MODEL 1
REMARK VINA RESULT:    -5.451      0.000      0.000
REMARK INTER + INTRA:          -6.213
REMARK INTER:                  -6.088
REMARK INTRA:                  -0.125
REMARK UNBOUND:                -0.125
REMARK  Name = 1550473
REMARK  2 active torsions:
REMARK  status: ('A' for Active; 'I' for Inactive)
REMARK    1  A    between atoms: N_1  and  C_4
REMARK    2  A    between atoms: C_4  and  C_5
REMARK                            x       y       z     vdW  Elec       q    Type
REMARK                         _______ _______ _______ _____ _____    ______ ____
ROOT
ATOM      1  N   UNL     1       9.396  -4.645  -7.995  0.00  0.00    -0.354 N 
ATOM      2  N   UNL     1       9.250  -4.774  -5.687  0.00  0.00    -0.372 N 
ATOM      3  N   UNL     1       8.096  -6.297  -6.959  0.00  0.00    -0.372 N 
ATOM      4  C   UNL     1       8.913  -5.240  -6.896  0.00  0.00    +0.166 C 
ATOM      5  H   UNL     1       9.986  -3.829  -7.881  0.00  0.00    +0.163 HD
ATOM      6  H   UNL     1       8.904  -5.205  -4.840  0.00  0.00    +0.159 HD
ATOM      7  H   UNL     1       9.877  -3.987  -5.575  0.00  0.00    +0.159 HD
ATOM      8  H   UNL     1       7.799  -6.692  -7.840  0.00  0.00    +0.159 HD
ATOM      9  H   UNL     1       7.730  -6.734  -6.122  0.00  0.00    +0.159 HD
ENDROOT
BRANCH   1  10
ATOM     10  C   UNL     1       9.133  -5.106  -9.357  0.00  0.00    +0.151 C 
BRANCH  10  11
ATOM     11  C   UNL     1       9.520  -4.023 -10.326  0.00  0.00    -0.028 A 
ATOM     12  C   UNL     1       9.371  -4.217 -11.707  0.00  0.00    +0.005 A 
ATOM     13  C   UNL     1      10.032  -2.799  -9.869  0.00  0.00    +0.005 A 
ATOM     14  C   UNL     1       9.702  -3.200 -12.606  0.00  0.00    +0.000 A 
ATOM     15  C   UNL     1      10.362  -1.787 -10.770  0.00  0.00    +0.000 A 
ATOM     16  C   UNL     1      10.195  -1.987 -12.138  0.00  0.00    +0.000 A 
ENDBRANCH  10  11
ENDBRANCH   1  10
TORSDOF 2
ENDMDL
MODEL 2
REMARK VINA RESULT:    -5.343      2.809      6.121
REMARK INTER + INTRA:          -6.092
REMARK INTER:                  -5.939
REMARK INTRA:                  -0.154
REMARK UNBOUND:                -0.125
REMARK  Name = 1550473
REMARK  2 active torsions:
REMARK  status: ('A' for Active; 'I' for Inactive)
REMARK    1  A    between atoms: N_1  and  C_4
REMARK    2  A    between atoms: C_4  and  C_5
REMARK                            x       y       z     vdW  Elec       q    Type
REMARK                         _______ _______ _______ _____ _____    ______ ____
ROOT
ATOM      1  N   UNL     1       8.937  -5.047  -8.304  0.00  0.00    -0.354 N 
ATOM      2  N   UNL     1       8.658  -5.527 -10.552  0.00  0.00    -0.372 N 
ATOM      3  N   UNL     1      10.510  -6.337  -9.467  0.00  0.00    -0.372 N 
ATOM      4  C   UNL     1       9.372  -5.635  -9.426  0.00  0.00    +0.166 C 
ATOM      5  H   UNL     1       8.082  -4.504  -8.345  0.00  0.00    +0.163 HD
ATOM      6  H   UNL     1       8.959  -5.963 -11.413  0.00  0.00    +0.159 HD
ATOM      7  H   UNL     1       7.780  -5.022 -10.580  0.00  0.00    +0.159 HD
ATOM      8  H   UNL     1      11.098  -6.451  -8.652  0.00  0.00    +0.159 HD
ATOM      9  H   UNL     1      10.835  -6.770 -10.322  0.00  0.00    +0.159 HD
ENDROOT
BRANCH   1  10
ATOM     10  C   UNL     1       9.613  -5.149  -7.011  0.00  0.00    +0.151 C 
BRANCH  10  11
ATOM     11  C   UNL     1       8.761  -5.959  -6.074  0.00  0.00    -0.028 A 
ATOM     12  C   UNL     1       9.353  -6.763  -5.089  0.00  0.00    +0.005 A 
ATOM     13  C   UNL     1       7.361  -5.922  -6.161  0.00  0.00    +0.005 A 
ATOM     14  C   UNL     1       8.562  -7.492  -4.198  0.00  0.00    +0.000 A 
ATOM     15  C   UNL     1       6.574  -6.653  -5.270  0.00  0.00    +0.000 A 
ATOM     16  C   UNL     1       7.175  -7.435  -4.288  0.00  0.00    +0.000 A 
ENDBRANCH  10  11
ENDBRANCH   1  10
TORSDOF 2
ENDMDL
MODEL 3
REMARK VINA RESULT:    -5.156      2.833      5.813
REMARK INTER + INTRA:          -5.883
REMARK INTER:                  -5.787
REMARK INTRA:                  -0.096
REMARK UNBOUND:                -0.125
REMARK  Name = 1550473
REMARK  2 active torsions:
REMARK  status: ('A' for Active; 'I' for Inactive)
REMARK    1  A    between atoms: N_1  and  C_4
REMARK    2  A    between atoms: C_4  and  C_5
REMARK                            x       y       z     vdW  Elec       q    Type
REMARK                         _______ _______ _______ _____ _____    ______ ____
ROOT
ATOM      1  N   UNL     1       9.500  -3.553  -7.318  0.00  0.00    -0.354 N 
ATOM      2  N   UNL     1      10.443  -1.466  -7.664  0.00  0.00    -0.372 N 
ATOM      3  N   UNL     1      10.034  -2.812  -9.476  0.00  0.00    -0.372 N 
ATOM      4  C   UNL     1       9.986  -2.625  -8.153  0.00  0.00    +0.166 C 
ATOM      5  H   UNL     1       9.519  -3.363  -6.323  0.00  0.00    +0.163 HD
ATOM      6  H   UNL     1      10.812  -0.746  -8.269  0.00  0.00    +0.159 HD
ATOM      7  H   UNL     1      10.418  -1.260  -6.672  0.00  0.00    +0.159 HD
ATOM      8  H   UNL     1       9.711  -3.668  -9.908  0.00  0.00    +0.159 HD
ATOM      9  H   UNL     1      10.411  -2.108 -10.098  0.00  0.00    +0.159 HD
ENDROOT
BRANCH   1  10
ATOM     10  C   UNL     1       8.929  -4.827  -7.754  0.00  0.00    +0.151 C 
BRANCH  10  11
ATOM     11  C   UNL     1       8.494  -5.609  -6.546  0.00  0.00    -0.028 A 
ATOM     12  C   UNL     1       7.134  -5.864  -6.314  0.00  0.00    +0.005 A 
ATOM     13  C   UNL     1       9.437  -6.104  -5.632  0.00  0.00    +0.005 A 
ATOM     14  C   UNL     1       6.731  -6.616  -5.208  0.00  0.00    +0.000 A 
ATOM     15  C   UNL     1       9.031  -6.853  -4.528  0.00  0.00    +0.000 A 
ATOM     16  C   UNL     1       7.678  -7.112  -4.318  0.00  0.00    +0.000 A 
ENDBRANCH  10  11
ENDBRANCH   1  10
TORSDOF 2
ENDMDL
MODEL 4
REMARK VINA RESULT:    -5.098      2.611      3.728
REMARK INTER + INTRA:          -5.819
REMARK INTER:                  -5.640
REMARK INTRA:                  -0.178
REMARK UNBOUND:                -0.125
REMARK  Name = 1550473
REMARK  2 active torsions:
REMARK  status: ('A' for Active; 'I' for Inactive)
REMARK    1  A    between atoms: N_1  and  C_4
REMARK    2  A    between atoms: C_4  and  C_5
REMARK                            x       y       z     vdW  Elec       q    Type
REMARK                         _______ _______ _______ _____ _____    ______ ____
ROOT
ATOM      1  N   UNL     1      11.294  -2.898  -7.100  0.00  0.00    -0.354 N 
ATOM      2  N   UNL     1      13.541  -2.681  -6.584  0.00  0.00    -0.372 N 
ATOM      3  N   UNL     1      12.559  -1.115  -7.945  0.00  0.00    -0.372 N 
ATOM      4  C   UNL     1      12.450  -2.231  -7.215  0.00  0.00    +0.166 C 
ATOM      5  H   UNL     1      11.284  -3.754  -6.557  0.00  0.00    +0.163 HD
ATOM      6  H   UNL     1      14.426  -2.196  -6.650  0.00  0.00    +0.159 HD
ATOM      7  H   UNL     1      13.517  -3.511  -6.005  0.00  0.00    +0.159 HD
ATOM      8  H   UNL     1      11.774  -0.727  -8.450  0.00  0.00    +0.159 HD
ATOM      9  H   UNL     1      13.439  -0.623  -8.032  0.00  0.00    +0.159 HD
ENDROOT
BRANCH   1  10
ATOM     10  C   UNL     1      10.035  -2.463  -7.703  0.00  0.00    +0.151 C 
BRANCH  10  11
ATOM     11  C   UNL     1       9.727  -3.340  -8.885  0.00  0.00    -0.028 A 
ATOM     12  C   UNL     1       9.984  -2.892 -10.189  0.00  0.00    +0.005 A 
ATOM     13  C   UNL     1       9.184  -4.622  -8.708  0.00  0.00    +0.005 A 
ATOM     14  C   UNL     1       9.727  -3.718 -11.286  0.00  0.00    +0.000 A 
ATOM     15  C   UNL     1       8.928  -5.442  -9.806  0.00  0.00    +0.000 A 
ATOM     16  C   UNL     1       9.201  -4.991 -11.095  0.00  0.00    +0.000 A 
ENDBRANCH  10  11
ENDBRANCH   1  10
TORSDOF 2
ENDMDL
MODEL 5
REMARK VINA RESULT:    -5.064      4.002      5.512
REMARK INTER + INTRA:          -5.781
REMARK INTER:                  -5.608
REMARK INTRA:                  -0.173
REMARK UNBOUND:                -0.125
REMARK  Name = 1550473
REMARK  2 active torsions:
REMARK  status: ('A' for Active; 'I' for Inactive)
REMARK    1  A    between atoms: N_1  and  C_4
REMARK    2  A    between atoms: C_4  and  C_5
REMARK                            x       y       z     vdW  Elec       q    Type
REMARK                         _______ _______ _______ _____ _____    ______ ____
ROOT
ATOM      1  N   UNL     1       9.056  -2.320 -13.553  0.00  0.00    -0.354 N 
ATOM      2  N   UNL     1       8.073  -0.371 -14.328  0.00  0.00    -0.372 N 
ATOM      3  N   UNL     1      10.228  -0.291 -13.546  0.00  0.00    -0.372 N 
ATOM      4  C   UNL     1       9.128  -1.006 -13.803  0.00  0.00    +0.166 C 
ATOM      5  H   UNL     1       8.183  -2.799 -13.743  0.00  0.00    +0.163 HD
ATOM      6  H   UNL     1       8.099   0.619 -14.531  0.00  0.00    +0.159 HD
ATOM      7  H   UNL     1       7.217  -0.862 -14.559  0.00  0.00    +0.159 HD
ATOM      8  H   UNL     1      11.057  -0.709 -13.144  0.00  0.00    +0.159 HD
ATOM      9  H   UNL     1      10.270   0.704 -13.731  0.00  0.00    +0.159 HD
ENDROOT
BRANCH   1  10
ATOM     10  C   UNL     1      10.166  -3.115 -13.032  0.00  0.00    +0.151 C 
BRANCH  10  11
ATOM     11  C   UNL     1       9.863  -3.512 -11.614  0.00  0.00    -0.028 A 
ATOM     12  C   UNL     1       9.303  -4.766 -11.330  0.00  0.00    +0.005 A 
ATOM     13  C   UNL     1      10.140  -2.641 -10.549  0.00  0.00    +0.005 A 
ATOM     14  C   UNL     1       9.049  -5.147 -10.010  0.00  0.00    +0.000 A 
ATOM     15  C   UNL     1       9.884  -3.025  -9.233  0.00  0.00    +0.000 A 
ATOM     16  C   UNL     1       9.341  -4.279  -8.963  0.00  0.00    +0.000 A 
ENDBRANCH  10  11
ENDBRANCH   1  10
TORSDOF 2
ENDMDL
MODEL 6
REMARK VINA RESULT:    -4.977      1.594      2.291
REMARK INTER + INTRA:          -5.684
REMARK INTER:                  -5.512
REMARK INTRA:                  -0.172
REMARK UNBOUND:                -0.125
REMARK  Name = 1550473
REMARK  2 active torsions:
REMARK  status: ('A' for Active; 'I' for Inactive)
REMARK    1  A    between atoms: N_1  and  C_4
REMARK    2  A    between atoms: C_4  and  C_5
REMARK                            x       y       z     vdW  Elec       q    Type
REMARK                         _______ _______ _______ _____ _____    ______ ____
ROOT
ATOM      1  N   UNL     1      10.174  -6.320  -8.628  0.00  0.00    -0.354 N 
ATOM      2  N   UNL     1      11.883  -7.209  -7.343  0.00  0.00    -0.372 N 
ATOM      3  N   UNL     1      10.603  -5.517  -6.469  0.00  0.00    -0.372 N 
ATOM      4  C   UNL     1      10.874  -6.341  -7.487  0.00  0.00    +0.166 C 
ATOM      5  H   UNL     1      10.449  -6.949  -9.373  0.00  0.00    +0.163 HD
ATOM      6  H   UNL     1      12.427  -7.251  -6.492  0.00  0.00    +0.159 HD
ATOM      7  H   UNL     1      12.126  -7.869  -8.072  0.00  0.00    +0.159 HD
ATOM      8  H   UNL     1       9.859  -4.834  -6.516  0.00  0.00    +0.159 HD
ATOM      9  H   UNL     1      11.144  -5.535  -5.613  0.00  0.00    +0.159 HD
ENDROOT
BRANCH   1  10
ATOM     10  C   UNL     1       9.023  -5.450  -8.865  0.00  0.00    +0.151 C 
BRANCH  10  11
ATOM     11  C   UNL     1       9.399  -4.404  -9.878  0.00  0.00    -0.028 A 
ATOM     12  C   UNL     1       9.851  -3.142  -9.465  0.00  0.00    +0.005 A 
ATOM     13  C   UNL     1       9.310  -4.670 -11.253  0.00  0.00    +0.005 A 
ATOM     14  C   UNL     1      10.229  -2.181 -10.406  0.00  0.00    +0.000 A 
ATOM     15  C   UNL     1       9.687  -3.707 -12.189  0.00  0.00    +0.000 A 
ATOM     16  C   UNL     1      10.149  -2.463 -11.765  0.00  0.00    +0.000 A 
ENDBRANCH  10  11
ENDBRANCH   1  10
TORSDOF 2
ENDMDL
MODEL 7
REMARK VINA RESULT:    -4.654      2.959      4.568
REMARK INTER + INTRA:          -5.323
REMARK INTER:                  -5.356
REMARK INTRA:                   0.033
REMARK UNBOUND:                -0.125
REMARK  Name = 1550473
REMARK  2 active torsions:
REMARK  status: ('A' for Active; 'I' for Inactive)
REMARK    1  A    between atoms: N_1  and  C_4
REMARK    2  A    between atoms: C_4  and  C_5
REMARK                            x       y       z     vdW  Elec       q    Type
REMARK                         _______ _______ _______ _____ _____    ______ ____
ROOT
ATOM      1  N   UNL     1      11.448  -1.958  -8.877  0.00  0.00    -0.354 N 
ATOM      2  N   UNL     1      12.681  -0.596  -7.468  0.00  0.00    -0.372 N 
ATOM      3  N   UNL     1      10.450  -0.152  -7.767  0.00  0.00    -0.372 N 
ATOM      4  C   UNL     1      11.516  -0.910  -8.046  0.00  0.00    +0.166 C 
ATOM      5  H   UNL     1      12.299  -2.474  -9.071  0.00  0.00    +0.163 HD
ATOM      6  H   UNL     1      12.762   0.188  -6.834  0.00  0.00    +0.159 HD
ATOM      7  H   UNL     1      13.519  -1.141  -7.628  0.00  0.00    +0.159 HD
ATOM      8  H   UNL     1       9.543  -0.333  -8.175  0.00  0.00    +0.159 HD
ATOM      9  H   UNL     1      10.514   0.643  -7.144  0.00  0.00    +0.159 HD
ENDROOT
BRANCH   1  10
ATOM     10  C   UNL     1      10.216  -2.417  -9.517  0.00  0.00    +0.151 C 
BRANCH  10  11
ATOM     11  C   UNL     1       9.665  -3.583  -8.743  0.00  0.00    -0.028 A 
ATOM     12  C   UNL     1       9.295  -4.764  -9.403  0.00  0.00    +0.005 A 
ATOM     13  C   UNL     1       9.517  -3.516  -7.349  0.00  0.00    +0.005 A 
ATOM     14  C   UNL     1       8.812  -5.858  -8.682  0.00  0.00    +0.000 A 
ATOM     15  C   UNL     1       9.034  -4.610  -6.633  0.00  0.00    +0.000 A 
ATOM     16  C   UNL     1       8.683  -5.782  -7.299  0.00  0.00    +0.000 A 
ENDBRANCH  10  11
ENDBRANCH   1  10
TORSDOF 2
ENDMDL
MODEL 8
REMARK VINA RESULT:    -4.458      4.970      6.486
REMARK INTER + INTRA:          -5.104
REMARK INTER:                  -4.996
REMARK INTRA:                  -0.109
REMARK UNBOUND:                -0.125
REMARK  Name = 1550473
REMARK  2 active torsions:
REMARK  status: ('A' for Active; 'I' for Inactive)
REMARK    1  A    between atoms: N_1  and  C_4
REMARK    2  A    between atoms: C_4  and  C_5
REMARK                            x       y       z     vdW  Elec       q    Type
REMARK                         _______ _______ _______ _____ _____    ______ ____
ROOT
ATOM      1  N   UNL     1       9.979  -0.713 -14.605  0.00  0.00    -0.354 N 
ATOM      2  N   UNL     1       8.775  -0.702 -16.583  0.00  0.00    -0.372 N 
ATOM      3  N   UNL     1       7.995   0.517 -14.803  0.00  0.00    -0.372 N 
ATOM      4  C   UNL     1       8.922  -0.298 -15.316  0.00  0.00    +0.166 C 
ATOM      5  H   UNL     1      10.631  -1.355 -15.042  0.00  0.00    +0.163 HD
ATOM      6  H   UNL     1       7.990  -0.403 -17.145  0.00  0.00    +0.159 HD
ATOM      7  H   UNL     1       9.452  -1.307 -17.032  0.00  0.00    +0.159 HD
ATOM      8  H   UNL     1       8.045   0.853 -13.851  0.00  0.00    +0.159 HD
ATOM      9  H   UNL     1       7.195   0.818 -15.346  0.00  0.00    +0.159 HD
ENDROOT
BRANCH   1  10
ATOM     10  C   UNL     1      10.261  -0.289 -13.235  0.00  0.00    +0.151 C 
BRANCH  10  11
ATOM     11  C   UNL     1      10.074  -1.459 -12.310  0.00  0.00    -0.028 A 
ATOM     12  C   UNL     1       9.623  -2.692 -12.803  0.00  0.00    +0.005 A 
ATOM     13  C   UNL     1      10.353  -1.344 -10.939  0.00  0.00    +0.005 A 
ATOM     14  C   UNL     1       9.478  -3.788 -11.950  0.00  0.00    +0.000 A 
ATOM     15  C   UNL     1      10.206  -2.440 -10.090  0.00  0.00    +0.000 A 
ATOM     16  C   UNL     1       9.771  -3.663 -10.596  0.00  0.00    +0.000 A 
ENDBRANCH  10  11
ENDBRANCH   1  10
TORSDOF 2
ENDMDL
MODEL 9
REMARK VINA RESULT:    -4.338      9.332     11.272
REMARK INTER + INTRA:          -4.970
REMARK INTER:                  -4.793
REMARK INTRA:                  -0.177
REMARK UNBOUND:                -0.125
REMARK  Name = 1550473
REMARK  2 active torsions:
REMARK  status: ('A' for Active; 'I' for Inactive)
REMARK    1  A    between atoms: N_1  and  C_4
REMARK    2  A    between atoms: C_4  and  C_5
REMARK                            x       y       z     vdW  Elec       q    Type
REMARK                         _______ _______ _______ _____ _____    ______ ____
ROOT
ATOM      1  N   UNL     1       6.709 -10.553  -3.847  0.00  0.00    -0.354 N 
ATOM      2  N   UNL     1       6.685  -8.345  -3.148  0.00  0.00    -0.372 N 
ATOM      3  N   UNL     1       6.762 -10.008  -1.568  0.00  0.00    -0.372 N 
ATOM      4  C   UNL     1       6.719  -9.651  -2.856  0.00  0.00    +0.166 C 
ATOM      5  H   UNL     1       6.645 -10.219  -4.801  0.00  0.00    +0.163 HD
ATOM      6  H   UNL     1       6.694  -7.642  -2.422  0.00  0.00    +0.159 HD
ATOM      7  H   UNL     1       6.667  -8.013  -4.104  0.00  0.00    +0.159 HD
ATOM      8  H   UNL     1       6.783 -10.978  -1.281  0.00  0.00    +0.159 HD
ATOM      9  H   UNL     1       6.760  -9.319  -0.827  0.00  0.00    +0.159 HD
ENDROOT
BRANCH   1  10
ATOM     10  C   UNL     1       6.798 -11.998  -3.638  0.00  0.00    +0.151 C 
BRANCH  10  11
ATOM     11  C   UNL     1       5.449 -12.613  -3.888  0.00  0.00    -0.028 A 
ATOM     12  C   UNL     1       5.100 -13.069  -5.167  0.00  0.00    +0.005 A 
ATOM     13  C   UNL     1       4.517 -12.749  -2.847  0.00  0.00    +0.005 A 
ATOM     14  C   UNL     1       3.858 -13.669  -5.393  0.00  0.00    +0.000 A 
ATOM     15  C   UNL     1       3.278 -13.348  -3.077  0.00  0.00    +0.000 A 
ATOM     16  C   UNL     1       2.950 -13.809  -4.349  0.00  0.00    +0.000 A 
ENDBRANCH  10  11
ENDBRANCH   1  10
TORSDOF 2
ENDMDL
