MODEL 1
REMARK VINA RESULT:    -6.050      0.000      0.000
REMARK INTER + INTRA:          -6.878
REMARK INTER:                  -6.757
REMARK INTRA:                  -0.121
REMARK UNBOUND:                -0.121
REMARK  Name = 1550473
REMARK  2 active torsions:
REMARK  status: ('A' for Active; 'I' for Inactive)
REMARK    1  A    between atoms: N_1  and  C_4
REMARK    2  A    between atoms: C_4  and  C_5
REMARK                            x       y       z     vdW  Elec       q    Type
REMARK                         _______ _______ _______ _____ _____    ______ ____
ROOT
ATOM      1  N   UNL     1       6.721  -7.467  -0.668  0.00  0.00    -0.354 N 
ATOM      2  N   UNL     1       4.508  -7.732  -1.297  0.00  0.00    -0.372 N 
ATOM      3  N   UNL     1       6.141  -8.794  -2.511  0.00  0.00    -0.372 N 
ATOM      4  C   UNL     1       5.806  -7.997  -1.490  0.00  0.00    +0.166 C 
ATOM      5  H   UNL     1       6.405  -6.847   0.069  0.00  0.00    +0.163 HD
ATOM      6  H   UNL     1       3.795  -8.120  -1.899  0.00  0.00    +0.159 HD
ATOM      7  H   UNL     1       4.192  -7.149  -0.532  0.00  0.00    +0.159 HD
ATOM      8  H   UNL     1       7.104  -9.028  -2.714  0.00  0.00    +0.159 HD
ATOM      9  H   UNL     1       5.442  -9.183  -3.131  0.00  0.00    +0.159 HD
ENDROOT
BRANCH   1  10
ATOM     10  C   UNL     1       8.155  -7.736  -0.759  0.00  0.00    +0.151 C 
BRANCH  10  11
ATOM     11  C   UNL     1       8.855  -7.061   0.388  0.00  0.00    -0.028 A 
ATOM     12  C   UNL     1      10.181  -7.391   0.707  0.00  0.00    +0.005 A 
ATOM     13  C   UNL     1       8.201  -6.086   1.156  0.00  0.00    +0.005 A 
ATOM     14  C   UNL     1      10.841  -6.743   1.753  0.00  0.00    +0.000 A 
ATOM     15  C   UNL     1       8.864  -5.442   2.201  0.00  0.00    +0.000 A 
ATOM     16  C   UNL     1      10.184  -5.768   2.497  0.00  0.00    +0.000 A 
ENDBRANCH  10  11
ENDBRANCH   1  10
TORSDOF 2
ENDMDL
MODEL 2
REMARK VINA RESULT:    -5.226      1.225      2.137
REMARK INTER + INTRA:          -5.958
REMARK INTER:                  -5.839
REMARK INTRA:                  -0.119
REMARK UNBOUND:                -0.121
REMARK  Name = 1550473
REMARK  2 active torsions:
REMARK  status: ('A' for Active; 'I' for Inactive)
REMARK    1  A    between atoms: N_1  and  C_4
REMARK    2  A    between atoms: C_4  and  C_5
REMARK                            x       y       z     vdW  Elec       q    Type
REMARK                         _______ _______ _______ _____ _____    ______ ____
ROOT
ATOM      1  N   UNL     1       7.798  -7.494  -0.135  0.00  0.00    -0.354 N 
ATOM      2  N   UNL     1       7.068  -9.127  -1.606  0.00  0.00    -0.372 N 
ATOM      3  N   UNL     1       6.633  -6.926  -2.088  0.00  0.00    -0.372 N 
ATOM      4  C   UNL     1       7.170  -7.836  -1.268  0.00  0.00    +0.166 C 
ATOM      5  H   UNL     1       8.156  -8.233   0.459  0.00  0.00    +0.163 HD
ATOM      6  H   UNL     1       6.603  -9.415  -2.456  0.00  0.00    +0.159 HD
ATOM      7  H   UNL     1       7.467  -9.861  -1.034  0.00  0.00    +0.159 HD
ATOM      8  H   UNL     1       6.671  -5.936  -1.887  0.00  0.00    +0.159 HD
ATOM      9  H   UNL     1       6.154  -7.196  -2.937  0.00  0.00    +0.159 HD
ENDROOT
BRANCH   1  10
ATOM     10  C   UNL     1       8.010  -6.114   0.298  0.00  0.00    +0.151 C 
BRANCH  10  11
ATOM     11  C   UNL     1       9.138  -6.079   1.292  0.00  0.00    -0.028 A 
ATOM     12  C   UNL     1       9.074  -5.237   2.412  0.00  0.00    +0.005 A 
ATOM     13  C   UNL     1      10.271  -6.890   1.123  0.00  0.00    +0.005 A 
ATOM     14  C   UNL     1      10.108  -5.226   3.351  0.00  0.00    +0.000 A 
ATOM     15  C   UNL     1      11.301  -6.875   2.062  0.00  0.00    +0.000 A 
ATOM     16  C   UNL     1      11.218  -6.045   3.178  0.00  0.00    +0.000 A 
ENDBRANCH  10  11
ENDBRANCH   1  10
TORSDOF 2
ENDMDL
MODEL 3
REMARK VINA RESULT:    -5.184      2.271      2.838
REMARK INTER + INTRA:          -5.911
REMARK INTER:                  -5.742
REMARK INTRA:                  -0.169
REMARK UNBOUND:                -0.121
REMARK  Name = 1550473
REMARK  2 active torsions:
REMARK  status: ('A' for Active; 'I' for Inactive)
REMARK    1  A    between atoms: N_1  and  C_4
REMARK    2  A    between atoms: C_4  and  C_5
REMARK                            x       y       z     vdW  Elec       q    Type
REMARK                         _______ _______ _______ _____ _____    ______ ____
ROOT
ATOM      1  N   UNL     1       8.860  -6.161  -1.530  0.00  0.00    -0.354 N 
ATOM      2  N   UNL     1      10.015  -5.689  -3.481  0.00  0.00    -0.372 N 
ATOM      3  N   UNL     1      10.422  -7.673  -2.405  0.00  0.00    -0.372 N 
ATOM      4  C   UNL     1       9.759  -6.513  -2.459  0.00  0.00    +0.166 C 
ATOM      5  H   UNL     1       8.413  -5.255  -1.612  0.00  0.00    +0.163 HD
ATOM      6  H   UNL     1      10.686  -5.929  -4.199  0.00  0.00    +0.159 HD
ATOM      7  H   UNL     1       9.533  -4.804  -3.585  0.00  0.00    +0.159 HD
ATOM      8  H   UNL     1      10.280  -8.337  -1.655  0.00  0.00    +0.159 HD
ATOM      9  H   UNL     1      11.106  -7.926  -3.107  0.00  0.00    +0.159 HD
ENDROOT
BRANCH   1  10
ATOM     10  C   UNL     1       8.470  -7.011  -0.406  0.00  0.00    +0.151 C 
BRANCH  10  11
ATOM     11  C   UNL     1       9.175  -6.538   0.835  0.00  0.00    -0.028 A 
ATOM     12  C   UNL     1      10.431  -7.056   1.181  0.00  0.00    +0.005 A 
ATOM     13  C   UNL     1       8.595  -5.567   1.666  0.00  0.00    +0.005 A 
ATOM     14  C   UNL     1      11.100  -6.596   2.317  0.00  0.00    +0.000 A 
ATOM     15  C   UNL     1       9.266  -5.110   2.800  0.00  0.00    +0.000 A 
ATOM     16  C   UNL     1      10.519  -5.623   3.124  0.00  0.00    +0.000 A 
ENDBRANCH  10  11
ENDBRANCH   1  10
TORSDOF 2
ENDMDL
MODEL 4
REMARK VINA RESULT:    -5.025      1.419      2.553
REMARK INTER + INTRA:          -5.733
REMARK INTER:                  -5.615
REMARK INTRA:                  -0.118
REMARK UNBOUND:                -0.121
REMARK  Name = 1550473
REMARK  2 active torsions:
REMARK  status: ('A' for Active; 'I' for Inactive)
REMARK    1  A    between atoms: N_1  and  C_4
REMARK    2  A    between atoms: C_4  and  C_5
REMARK                            x       y       z     vdW  Elec       q    Type
REMARK                         _______ _______ _______ _____ _____    ______ ____
ROOT
ATOM      1  N   UNL     1       7.189  -8.112  -1.530  0.00  0.00    -0.354 N 
ATOM      2  N   UNL     1       5.460  -9.102  -2.711  0.00  0.00    -0.372 N 
ATOM      3  N   UNL     1       4.968  -7.918  -0.808  0.00  0.00    -0.372 N 
ATOM      4  C   UNL     1       5.882  -8.370  -1.673  0.00  0.00    +0.166 C 
ATOM      5  H   UNL     1       7.834  -8.509  -2.203  0.00  0.00    +0.163 HD
ATOM      6  H   UNL     1       4.480  -9.310  -2.847  0.00  0.00    +0.159 HD
ATOM      7  H   UNL     1       6.103  -9.459  -3.408  0.00  0.00    +0.159 HD
ATOM      8  H   UNL     1       5.222  -7.365  -0.001  0.00  0.00    +0.159 HD
ATOM      9  H   UNL     1       3.983  -8.125  -0.921  0.00  0.00    +0.159 HD
ENDROOT
BRANCH   1  10
ATOM     10  C   UNL     1       7.746  -7.280  -0.465  0.00  0.00    +0.151 C 
BRANCH  10  11
ATOM     11  C   UNL     1       9.247  -7.373  -0.504  0.00  0.00    -0.028 A 
ATOM     12  C   UNL     1      10.006  -7.110   0.646  0.00  0.00    +0.005 A 
ATOM     13  C   UNL     1       9.915  -7.728  -1.686  0.00  0.00    +0.005 A 
ATOM     14  C   UNL     1      11.398  -7.225   0.618  0.00  0.00    +0.000 A 
ATOM     15  C   UNL     1      11.305  -7.840  -1.710  0.00  0.00    +0.000 A 
ATOM     16  C   UNL     1      12.046  -7.591  -0.557  0.00  0.00    +0.000 A 
ENDBRANCH  10  11
ENDBRANCH   1  10
TORSDOF 2
ENDMDL
MODEL 5
REMARK VINA RESULT:    -4.668      4.163      5.539
REMARK INTER + INTRA:          -5.334
REMARK INTER:                  -5.164
REMARK INTRA:                  -0.170
REMARK UNBOUND:                -0.121
REMARK  Name = 1550473
REMARK  2 active torsions:
REMARK  status: ('A' for Active; 'I' for Inactive)
REMARK    1  A    between atoms: N_1  and  C_4
REMARK    2  A    between atoms: C_4  and  C_5
REMARK                            x       y       z     vdW  Elec       q    Type
REMARK                         _______ _______ _______ _____ _____    ______ ____
ROOT
ATOM      1  N   UNL     1       9.222  -3.271   3.148  0.00  0.00    -0.354 N 
ATOM      2  N   UNL     1       9.377  -1.117   2.313  0.00  0.00    -0.372 N 
ATOM      3  N   UNL     1      11.304  -2.308   2.671  0.00  0.00    -0.372 N 
ATOM      4  C   UNL     1       9.969  -2.247   2.717  0.00  0.00    +0.166 C 
ATOM      5  H   UNL     1       8.216  -3.151   3.187  0.00  0.00    +0.163 HD
ATOM      6  H   UNL     1       9.914  -0.328   1.979  0.00  0.00    +0.159 HD
ATOM      7  H   UNL     1       8.369  -1.015   2.309  0.00  0.00    +0.159 HD
ATOM      8  H   UNL     1      11.813  -3.131   2.968  0.00  0.00    +0.159 HD
ATOM      9  H   UNL     1      11.861  -1.525   2.351  0.00  0.00    +0.159 HD
ENDROOT
BRANCH   1  10
ATOM     10  C   UNL     1       9.766  -4.564   3.559  0.00  0.00    +0.151 C 
BRANCH  10  11
ATOM     11  C   UNL     1       9.652  -5.532   2.413  0.00  0.00    -0.028 A 
ATOM     12  C   UNL     1      10.714  -6.392   2.100  0.00  0.00    +0.005 A 
ATOM     13  C   UNL     1       8.483  -5.596   1.640  0.00  0.00    +0.005 A 
ATOM     14  C   UNL     1      10.598  -7.312   1.055  0.00  0.00    +0.000 A 
ATOM     15  C   UNL     1       8.371  -6.515   0.597  0.00  0.00    +0.000 A 
ATOM     16  C   UNL     1       9.427  -7.374   0.306  0.00  0.00    +0.000 A 
ENDBRANCH  10  11
ENDBRANCH   1  10
TORSDOF 2
ENDMDL
MODEL 6
REMARK VINA RESULT:    -4.565     25.234     26.723
REMARK INTER + INTRA:          -5.220
REMARK INTER:                  -5.066
REMARK INTRA:                  -0.154
REMARK UNBOUND:                -0.121
REMARK  Name = 1550473
REMARK  2 active torsions:
REMARK  status: ('A' for Active; 'I' for Inactive)
REMARK    1  A    between atoms: N_1  and  C_4
REMARK    2  A    between atoms: C_4  and  C_5
REMARK                            x       y       z     vdW  Elec       q    Type
REMARK                         _______ _______ _______ _____ _____    ______ ____
ROOT
ATOM      1  N   UNL     1      -2.285   6.100  22.552  0.00  0.00    -0.354 N 
ATOM      2  N   UNL     1      -3.257   8.046  21.756  0.00  0.00    -0.372 N 
ATOM      3  N   UNL     1      -1.207   8.169  22.779  0.00  0.00    -0.372 N 
ATOM      4  C   UNL     1      -2.241   7.427  22.369  0.00  0.00    +0.166 C 
ATOM      5  H   UNL     1      -3.111   5.599  22.244  0.00  0.00    +0.163 HD
ATOM      6  H   UNL     1      -3.251   9.045  21.600  0.00  0.00    +0.159 HD
ATOM      7  H   UNL     1      -4.061   7.536  21.409  0.00  0.00    +0.159 HD
ATOM      8  H   UNL     1      -0.412   7.763  23.254  0.00  0.00    +0.159 HD
ATOM      9  H   UNL     1      -1.188   9.172  22.644  0.00  0.00    +0.159 HD
ENDROOT
BRANCH   1  10
ATOM     10  C   UNL     1      -1.207   5.323  23.160  0.00  0.00    +0.151 C 
BRANCH  10  11
ATOM     11  C   UNL     1      -0.721   4.299  22.171  0.00  0.00    -0.028 A 
ATOM     12  C   UNL     1      -0.002   4.694  21.033  0.00  0.00    +0.005 A 
ATOM     13  C   UNL     1      -0.972   2.933  22.369  0.00  0.00    +0.005 A 
ATOM     14  C   UNL     1       0.475   3.741  20.129  0.00  0.00    +0.000 A 
ATOM     15  C   UNL     1      -0.494   1.985  21.464  0.00  0.00    +0.000 A 
ATOM     16  C   UNL     1       0.231   2.389  20.346  0.00  0.00    +0.000 A 
ENDBRANCH  10  11
ENDBRANCH   1  10
TORSDOF 2
ENDMDL
MODEL 7
REMARK VINA RESULT:    -4.557      6.837      7.366
REMARK INTER + INTRA:          -5.211
REMARK INTER:                  -5.069
REMARK INTRA:                  -0.142
REMARK UNBOUND:                -0.121
REMARK  Name = 1550473
REMARK  2 active torsions:
REMARK  status: ('A' for Active; 'I' for Inactive)
REMARK    1  A    between atoms: N_1  and  C_4
REMARK    2  A    between atoms: C_4  and  C_5
REMARK                            x       y       z     vdW  Elec       q    Type
REMARK                         _______ _______ _______ _____ _____    ______ ____
ROOT
ATOM      1  N   UNL     1      10.218  -5.761  -4.796  0.00  0.00    -0.354 N 
ATOM      2  N   UNL     1       9.142  -6.998  -3.161  0.00  0.00    -0.372 N 
ATOM      3  N   UNL     1      11.372  -7.374  -3.547  0.00  0.00    -0.372 N 
ATOM      4  C   UNL     1      10.254  -6.704  -3.845  0.00  0.00    +0.166 C 
ATOM      5  H   UNL     1       9.332  -5.311  -4.995  0.00  0.00    +0.163 HD
ATOM      6  H   UNL     1       9.139  -7.703  -2.435  0.00  0.00    +0.159 HD
ATOM      7  H   UNL     1       8.268  -6.515  -3.330  0.00  0.00    +0.159 HD
ATOM      8  H   UNL     1      12.244  -7.203  -4.031  0.00  0.00    +0.159 HD
ATOM      9  H   UNL     1      11.386  -8.090  -2.832  0.00  0.00    +0.159 HD
ENDROOT
BRANCH   1  10
ATOM     10  C   UNL     1      11.386  -5.328  -5.562  0.00  0.00    +0.151 C 
BRANCH  10  11
ATOM     11  C   UNL     1      11.432  -3.825  -5.578  0.00  0.00    -0.028 A 
ATOM     12  C   UNL     1      10.421  -3.074  -4.960  0.00  0.00    +0.005 A 
ATOM     13  C   UNL     1      12.488  -3.145  -6.205  0.00  0.00    +0.005 A 
ATOM     14  C   UNL     1      10.479  -1.679  -4.949  0.00  0.00    +0.000 A 
ATOM     15  C   UNL     1      12.542  -1.751  -6.192  0.00  0.00    +0.000 A 
ATOM     16  C   UNL     1      11.539  -1.019  -5.562  0.00  0.00    +0.000 A 
ENDBRANCH  10  11
ENDBRANCH   1  10
TORSDOF 2
ENDMDL
MODEL 8
REMARK VINA RESULT:    -4.554      4.976      6.581
REMARK INTER + INTRA:          -5.208
REMARK INTER:                  -5.073
REMARK INTRA:                  -0.134
REMARK UNBOUND:                -0.121
REMARK  Name = 1550473
REMARK  2 active torsions:
REMARK  status: ('A' for Active; 'I' for Inactive)
REMARK    1  A    between atoms: N_1  and  C_4
REMARK    2  A    between atoms: C_4  and  C_5
REMARK                            x       y       z     vdW  Elec       q    Type
REMARK                         _______ _______ _______ _____ _____    ______ ____
ROOT
ATOM      1  N   UNL     1       9.987  -3.827   5.123  0.00  0.00    -0.354 N 
ATOM      2  N   UNL     1       8.898  -2.917   6.953  0.00  0.00    -0.372 N 
ATOM      3  N   UNL     1      10.660  -4.343   7.307  0.00  0.00    -0.372 N 
ATOM      4  C   UNL     1       9.857  -3.703   6.450  0.00  0.00    +0.166 C 
ATOM      5  H   UNL     1       9.327  -3.339   4.527  0.00  0.00    +0.163 HD
ATOM      6  H   UNL     1       8.778  -2.802   7.951  0.00  0.00    +0.159 HD
ATOM      7  H   UNL     1       8.269  -2.394   6.355  0.00  0.00    +0.159 HD
ATOM      8  H   UNL     1      11.400  -4.956   6.991  0.00  0.00    +0.159 HD
ATOM      9  H   UNL     1      10.549  -4.250   8.309  0.00  0.00    +0.159 HD
ENDROOT
BRANCH   1  10
ATOM     10  C   UNL     1      11.032  -4.615   4.473  0.00  0.00    +0.151 C 
BRANCH  10  11
ATOM     11  C   UNL     1      10.449  -5.310   3.273  0.00  0.00    -0.028 A 
ATOM     12  C   UNL     1      11.189  -6.282   2.584  0.00  0.00    +0.005 A 
ATOM     13  C   UNL     1       9.155  -5.004   2.824  0.00  0.00    +0.005 A 
ATOM     14  C   UNL     1      10.636  -6.949   1.488  0.00  0.00    +0.000 A 
ATOM     15  C   UNL     1       8.608  -5.672   1.728  0.00  0.00    +0.000 A 
ATOM     16  C   UNL     1       9.348  -6.646   1.062  0.00  0.00    +0.000 A 
ENDBRANCH  10  11
ENDBRANCH   1  10
TORSDOF 2
ENDMDL
MODEL 9
REMARK VINA RESULT:    -4.521      3.898      5.455
REMARK INTER + INTRA:          -5.171
REMARK INTER:                  -5.049
REMARK INTRA:                  -0.122
REMARK UNBOUND:                -0.121
REMARK  Name = 1550473
REMARK  2 active torsions:
REMARK  status: ('A' for Active; 'I' for Inactive)
REMARK    1  A    between atoms: N_1  and  C_4
REMARK    2  A    between atoms: C_4  and  C_5
REMARK                            x       y       z     vdW  Elec       q    Type
REMARK                         _______ _______ _______ _____ _____    ______ ____
ROOT
ATOM      1  N   UNL     1      10.066  -5.563  -3.282  0.00  0.00    -0.354 N 
ATOM      2  N   UNL     1      10.515  -3.543  -4.322  0.00  0.00    -0.372 N 
ATOM      3  N   UNL     1      12.038  -4.382  -2.825  0.00  0.00    -0.372 N 
ATOM      4  C   UNL     1      10.872  -4.509  -3.468  0.00  0.00    +0.166 C 
ATOM      5  H   UNL     1       9.182  -5.586  -3.776  0.00  0.00    +0.163 HD
ATOM      6  H   UNL     1      11.104  -2.738  -4.486  0.00  0.00    +0.159 HD
ATOM      7  H   UNL     1       9.652  -3.591  -4.850  0.00  0.00    +0.159 HD
ATOM      8  H   UNL     1      12.362  -5.073  -2.162  0.00  0.00    +0.159 HD
ATOM      9  H   UNL     1      12.636  -3.577  -2.966  0.00  0.00    +0.159 HD
ENDROOT
BRANCH   1  10
ATOM     10  C   UNL     1      10.386  -6.695  -2.414  0.00  0.00    +0.151 C 
BRANCH  10  11
ATOM     11  C   UNL     1       9.134  -7.487  -2.156  0.00  0.00    -0.028 A 
ATOM     12  C   UNL     1       8.003  -7.314  -2.968  0.00  0.00    +0.005 A 
ATOM     13  C   UNL     1       9.074  -8.415  -1.105  0.00  0.00    +0.005 A 
ATOM     14  C   UNL     1       6.850  -8.071  -2.748  0.00  0.00    +0.000 A 
ATOM     15  C   UNL     1       7.920  -9.168  -0.888  0.00  0.00    +0.000 A 
ATOM     16  C   UNL     1       6.809  -8.998  -1.711  0.00  0.00    +0.000 A 
ENDBRANCH  10  11
ENDBRANCH   1  10
TORSDOF 2
ENDMDL
