MODEL 1
REMARK VINA RESULT:    -5.777      0.000      0.000
REMARK INTER + INTRA:          -6.613
REMARK INTER:                  -6.452
REMARK INTRA:                  -0.161
REMARK UNBOUND:                -0.161
REMARK  Name = 1550473
REMARK  2 active torsions:
REMARK  status: ('A' for Active; 'I' for Inactive)
REMARK    1  A    between atoms: N_1  and  C_4
REMARK    2  A    between atoms: C_4  and  C_5
REMARK                            x       y       z     vdW  Elec       q    Type
REMARK                         _______ _______ _______ _____ _____    ______ ____
ROOT
ATOM      1  N   UNL     1      -2.148  -6.173  -5.732  0.00  0.00    -0.354 N 
ATOM      2  N   UNL     1      -0.182  -7.187  -6.416  0.00  0.00    -0.372 N 
ATOM      3  N   UNL     1      -0.304  -4.896  -6.411  0.00  0.00    -0.372 N 
ATOM      4  C   UNL     1      -0.890  -6.076  -6.182  0.00  0.00    +0.166 C 
ATOM      5  H   UNL     1      -2.545  -7.097  -5.608  0.00  0.00    +0.163 HD
ATOM      6  H   UNL     1       0.771  -7.145  -6.752  0.00  0.00    +0.159 HD
ATOM      7  H   UNL     1      -0.565  -8.109  -6.247  0.00  0.00    +0.159 HD
ATOM      8  H   UNL     1      -0.787  -4.020  -6.260  0.00  0.00    +0.159 HD
ATOM      9  H   UNL     1       0.645  -4.834  -6.759  0.00  0.00    +0.159 HD
ENDROOT
BRANCH   1  10
ATOM     10  C   UNL     1      -2.987  -5.024  -5.395  0.00  0.00    +0.151 C 
BRANCH  10  11
ATOM     11  C   UNL     1      -4.160  -4.980  -6.335  0.00  0.00    -0.028 A 
ATOM     12  C   UNL     1      -5.343  -5.670  -6.029  0.00  0.00    +0.005 A 
ATOM     13  C   UNL     1      -4.098  -4.245  -7.529  0.00  0.00    +0.005 A 
ATOM     14  C   UNL     1      -6.443  -5.606  -6.887  0.00  0.00    +0.000 A 
ATOM     15  C   UNL     1      -5.199  -4.184  -8.383  0.00  0.00    +0.000 A 
ATOM     16  C   UNL     1      -6.372  -4.862  -8.060  0.00  0.00    +0.000 A 
ENDBRANCH  10  11
ENDBRANCH   1  10
TORSDOF 2
ENDMDL
MODEL 2
REMARK VINA RESULT:    -5.770      2.471      3.379
REMARK INTER + INTRA:          -6.606
REMARK INTER:                  -6.499
REMARK INTRA:                  -0.106
REMARK UNBOUND:                -0.161
REMARK  Name = 1550473
REMARK  2 active torsions:
REMARK  status: ('A' for Active; 'I' for Inactive)
REMARK    1  A    between atoms: N_1  and  C_4
REMARK    2  A    between atoms: C_4  and  C_5
REMARK                            x       y       z     vdW  Elec       q    Type
REMARK                         _______ _______ _______ _____ _____    ______ ____
ROOT
ATOM      1  N   UNL     1      -4.064  -8.093  -6.282  0.00  0.00    -0.354 N 
ATOM      2  N   UNL     1      -5.070  -9.757  -5.024  0.00  0.00    -0.372 N 
ATOM      3  N   UNL     1      -4.534  -7.770  -4.009  0.00  0.00    -0.372 N 
ATOM      4  C   UNL     1      -4.549  -8.527  -5.111  0.00  0.00    +0.166 C 
ATOM      5  H   UNL     1      -4.077  -8.726  -7.073  0.00  0.00    +0.163 HD
ATOM      6  H   UNL     1      -5.447 -10.111  -4.155  0.00  0.00    +0.159 HD
ATOM      7  H   UNL     1      -5.124 -10.371  -5.828  0.00  0.00    +0.159 HD
ATOM      8  H   UNL     1      -4.149  -6.835  -4.006  0.00  0.00    +0.159 HD
ATOM      9  H   UNL     1      -4.896  -8.111  -3.127  0.00  0.00    +0.159 HD
ENDROOT
BRANCH   1  10
ATOM     10  C   UNL     1      -3.524  -6.752  -6.496  0.00  0.00    +0.151 C 
BRANCH  10  11
ATOM     11  C   UNL     1      -4.503  -5.951  -7.309  0.00  0.00    -0.028 A 
ATOM     12  C   UNL     1      -4.128  -5.412  -8.548  0.00  0.00    +0.005 A 
ATOM     13  C   UNL     1      -5.811  -5.734  -6.849  0.00  0.00    +0.005 A 
ATOM     14  C   UNL     1      -5.046  -4.695  -9.318  0.00  0.00    +0.000 A 
ATOM     15  C   UNL     1      -6.725  -5.016  -7.620  0.00  0.00    +0.000 A 
ATOM     16  C   UNL     1      -6.343  -4.498  -8.855  0.00  0.00    +0.000 A 
ENDBRANCH  10  11
ENDBRANCH   1  10
TORSDOF 2
ENDMDL
MODEL 3
REMARK VINA RESULT:    -5.706      0.959      1.948
REMARK INTER + INTRA:          -6.534
REMARK INTER:                  -6.404
REMARK INTRA:                  -0.130
REMARK UNBOUND:                -0.161
REMARK  Name = 1550473
REMARK  2 active torsions:
REMARK  status: ('A' for Active; 'I' for Inactive)
REMARK    1  A    between atoms: N_1  and  C_4
REMARK    2  A    between atoms: C_4  and  C_5
REMARK                            x       y       z     vdW  Elec       q    Type
REMARK                         _______ _______ _______ _____ _____    ______ ____
ROOT
ATOM      1  N   UNL     1      -1.896  -5.900  -6.115  0.00  0.00    -0.354 N 
ATOM      2  N   UNL     1       0.344  -5.349  -6.320  0.00  0.00    -0.372 N 
ATOM      3  N   UNL     1      -0.271  -7.557  -6.439  0.00  0.00    -0.372 N 
ATOM      4  C   UNL     1      -0.622  -6.275  -6.290  0.00  0.00    +0.166 C 
ATOM      5  H   UNL     1      -2.094  -4.915  -5.977  0.00  0.00    +0.163 HD
ATOM      6  H   UNL     1       1.314  -5.602  -6.454  0.00  0.00    +0.159 HD
ATOM      7  H   UNL     1       0.138  -4.362  -6.228  0.00  0.00    +0.159 HD
ATOM      8  H   UNL     1      -0.951  -8.304  -6.419  0.00  0.00    +0.159 HD
ATOM      9  H   UNL     1       0.696  -7.830  -6.562  0.00  0.00    +0.159 HD
ENDROOT
BRANCH   1  10
ATOM     10  C   UNL     1      -3.029  -6.824  -6.120  0.00  0.00    +0.151 C 
BRANCH  10  11
ATOM     11  C   UNL     1      -4.179  -6.187  -6.849  0.00  0.00    -0.028 A 
ATOM     12  C   UNL     1      -3.982  -5.577  -8.096  0.00  0.00    +0.005 A 
ATOM     13  C   UNL     1      -5.471  -6.195  -6.301  0.00  0.00    +0.005 A 
ATOM     14  C   UNL     1      -5.056  -5.011  -8.788  0.00  0.00    +0.000 A 
ATOM     15  C   UNL     1      -6.541  -5.629  -6.994  0.00  0.00    +0.000 A 
ATOM     16  C   UNL     1      -6.333  -5.039  -8.238  0.00  0.00    +0.000 A 
ENDBRANCH  10  11
ENDBRANCH   1  10
TORSDOF 2
ENDMDL
MODEL 4
REMARK VINA RESULT:    -5.361      2.920      4.584
REMARK INTER + INTRA:          -6.149
REMARK INTER:                  -5.977
REMARK INTRA:                  -0.172
REMARK UNBOUND:                -0.161
REMARK  Name = 1550473
REMARK  2 active torsions:
REMARK  status: ('A' for Active; 'I' for Inactive)
REMARK    1  A    between atoms: N_1  and  C_4
REMARK    2  A    between atoms: C_4  and  C_5
REMARK                            x       y       z     vdW  Elec       q    Type
REMARK                         _______ _______ _______ _____ _____    ______ ____
ROOT
ATOM      1  N   UNL     1      -4.569  -7.907  -6.363  0.00  0.00    -0.354 N 
ATOM      2  N   UNL     1      -5.065  -9.761  -5.065  0.00  0.00    -0.372 N 
ATOM      3  N   UNL     1      -4.547  -7.783  -4.023  0.00  0.00    -0.372 N 
ATOM      4  C   UNL     1      -4.723  -8.470  -5.157  0.00  0.00    +0.166 C 
ATOM      5  H   UNL     1      -4.687  -8.489  -7.184  0.00  0.00    +0.163 HD
ATOM      6  H   UNL     1      -5.191 -10.212  -4.169  0.00  0.00    +0.159 HD
ATOM      7  H   UNL     1      -5.227 -10.328  -5.888  0.00  0.00    +0.159 HD
ATOM      8  H   UNL     1      -4.283  -6.807  -4.023  0.00  0.00    +0.159 HD
ATOM      9  H   UNL     1      -4.658  -8.220  -3.116  0.00  0.00    +0.159 HD
ENDROOT
BRANCH   1  10
ATOM     10  C   UNL     1      -4.251  -6.496  -6.572  0.00  0.00    +0.151 C 
BRANCH  10  11
ATOM     11  C   UNL     1      -2.774  -6.357  -6.820  0.00  0.00    -0.028 A 
ATOM     12  C   UNL     1      -2.130  -7.175  -7.760  0.00  0.00    +0.005 A 
ATOM     13  C   UNL     1      -2.015  -5.405  -6.123  0.00  0.00    +0.005 A 
ATOM     14  C   UNL     1      -0.764  -7.025  -8.012  0.00  0.00    +0.000 A 
ATOM     15  C   UNL     1      -0.651  -5.259  -6.377  0.00  0.00    +0.000 A 
ATOM     16  C   UNL     1      -0.027  -6.068  -7.323  0.00  0.00    +0.000 A 
ENDBRANCH  10  11
ENDBRANCH   1  10
TORSDOF 2
ENDMDL
MODEL 5
REMARK VINA RESULT:    -5.283      1.485      2.029
REMARK INTER + INTRA:          -6.061
REMARK INTER:                  -5.919
REMARK INTRA:                  -0.143
REMARK UNBOUND:                -0.161
REMARK  Name = 1550473
REMARK  2 active torsions:
REMARK  status: ('A' for Active; 'I' for Inactive)
REMARK    1  A    between atoms: N_1  and  C_4
REMARK    2  A    between atoms: C_4  and  C_5
REMARK                            x       y       z     vdW  Elec       q    Type
REMARK                         _______ _______ _______ _____ _____    ______ ____
ROOT
ATOM      1  N   UNL     1      -0.956  -6.298  -6.226  0.00  0.00    -0.354 N 
ATOM      2  N   UNL     1       0.859  -6.989  -7.489  0.00  0.00    -0.372 N 
ATOM      3  N   UNL     1      -0.060  -4.927  -7.903  0.00  0.00    -0.372 N 
ATOM      4  C   UNL     1      -0.065  -6.064  -7.199  0.00  0.00    +0.166 C 
ATOM      5  H   UNL     1      -0.925  -7.192  -5.750  0.00  0.00    +0.163 HD
ATOM      6  H   UNL     1       1.546  -6.839  -8.216  0.00  0.00    +0.159 HD
ATOM      7  H   UNL     1       0.915  -7.863  -6.981  0.00  0.00    +0.159 HD
ATOM      8  H   UNL     1      -0.734  -4.192  -7.737  0.00  0.00    +0.159 HD
ATOM      9  H   UNL     1       0.612  -4.764  -8.642  0.00  0.00    +0.159 HD
ENDROOT
BRANCH   1  10
ATOM     10  C   UNL     1      -1.968  -5.335  -5.796  0.00  0.00    +0.151 C 
BRANCH  10  11
ATOM     11  C   UNL     1      -3.329  -5.959  -5.933  0.00  0.00    -0.028 A 
ATOM     12  C   UNL     1      -3.497  -7.343  -5.782  0.00  0.00    +0.005 A 
ATOM     13  C   UNL     1      -4.457  -5.170  -6.210  0.00  0.00    +0.005 A 
ATOM     14  C   UNL     1      -4.766  -7.919  -5.880  0.00  0.00    +0.000 A 
ATOM     15  C   UNL     1      -5.722  -5.749  -6.308  0.00  0.00    +0.000 A 
ATOM     16  C   UNL     1      -5.876  -7.123  -6.140  0.00  0.00    +0.000 A 
ENDBRANCH  10  11
ENDBRANCH   1  10
TORSDOF 2
ENDMDL
MODEL 6
REMARK VINA RESULT:    -5.242      1.806      2.306
REMARK INTER + INTRA:          -6.016
REMARK INTER:                  -5.896
REMARK INTRA:                  -0.120
REMARK UNBOUND:                -0.161
REMARK  Name = 1550473
REMARK  2 active torsions:
REMARK  status: ('A' for Active; 'I' for Inactive)
REMARK    1  A    between atoms: N_1  and  C_4
REMARK    2  A    between atoms: C_4  and  C_5
REMARK                            x       y       z     vdW  Elec       q    Type
REMARK                         _______ _______ _______ _____ _____    ______ ____
ROOT
ATOM      1  N   UNL     1      -4.175  -6.738  -5.254  0.00  0.00    -0.354 N 
ATOM      2  N   UNL     1      -4.156  -9.054  -5.260  0.00  0.00    -0.372 N 
ATOM      3  N   UNL     1      -2.490  -7.928  -6.364  0.00  0.00    -0.372 N 
ATOM      4  C   UNL     1      -3.605  -7.891  -5.628  0.00  0.00    +0.166 C 
ATOM      5  H   UNL     1      -5.037  -6.778  -4.721  0.00  0.00    +0.163 HD
ATOM      6  H   UNL     1      -3.746  -9.940  -5.524  0.00  0.00    +0.159 HD
ATOM      7  H   UNL     1      -4.992  -9.091  -4.688  0.00  0.00    +0.159 HD
ATOM      8  H   UNL     1      -2.028  -7.086  -6.680  0.00  0.00    +0.159 HD
ATOM      9  H   UNL     1      -2.071  -8.805  -6.649  0.00  0.00    +0.159 HD
ENDROOT
BRANCH   1  10
ATOM     10  C   UNL     1      -3.626  -5.418  -5.557  0.00  0.00    +0.151 C 
BRANCH  10  11
ATOM     11  C   UNL     1      -4.407  -4.808  -6.687  0.00  0.00    -0.028 A 
ATOM     12  C   UNL     1      -5.648  -5.342  -7.065  0.00  0.00    +0.005 A 
ATOM     13  C   UNL     1      -3.915  -3.692  -7.382  0.00  0.00    +0.005 A 
ATOM     14  C   UNL     1      -6.388  -4.757  -8.095  0.00  0.00    +0.000 A 
ATOM     15  C   UNL     1      -4.656  -3.112  -8.411  0.00  0.00    +0.000 A 
ATOM     16  C   UNL     1      -5.894  -3.643  -8.766  0.00  0.00    +0.000 A 
ENDBRANCH  10  11
ENDBRANCH   1  10
TORSDOF 2
ENDMDL
MODEL 7
REMARK VINA RESULT:    -4.990      2.505      4.908
REMARK INTER + INTRA:          -5.734
REMARK INTER:                  -5.595
REMARK INTRA:                  -0.139
REMARK UNBOUND:                -0.161
REMARK  Name = 1550473
REMARK  2 active torsions:
REMARK  status: ('A' for Active; 'I' for Inactive)
REMARK    1  A    between atoms: N_1  and  C_4
REMARK    2  A    between atoms: C_4  and  C_5
REMARK                            x       y       z     vdW  Elec       q    Type
REMARK                         _______ _______ _______ _____ _____    ______ ____
ROOT
ATOM      1  N   UNL     1      -3.363  -5.602  -6.176  0.00  0.00    -0.354 N 
ATOM      2  N   UNL     1      -5.596  -5.803  -5.596  0.00  0.00    -0.372 N 
ATOM      3  N   UNL     1      -4.060  -5.347  -3.953  0.00  0.00    -0.372 N 
ATOM      4  C   UNL     1      -4.324  -5.582  -5.243  0.00  0.00    +0.166 C 
ATOM      5  H   UNL     1      -3.624  -5.816  -7.132  0.00  0.00    +0.163 HD
ATOM      6  H   UNL     1      -6.343  -5.791  -4.914  0.00  0.00    +0.159 HD
ATOM      7  H   UNL     1      -5.860  -5.971  -6.559  0.00  0.00    +0.159 HD
ATOM      8  H   UNL     1      -3.120  -5.178  -3.621  0.00  0.00    +0.159 HD
ATOM      9  H   UNL     1      -4.792  -5.342  -3.255  0.00  0.00    +0.159 HD
ENDROOT
BRANCH   1  10
ATOM     10  C   UNL     1      -1.954  -5.320  -5.905  0.00  0.00    +0.151 C 
BRANCH  10  11
ATOM     11  C   UNL     1      -1.107  -6.372  -6.567  0.00  0.00    -0.028 A 
ATOM     12  C   UNL     1      -1.371  -7.734  -6.359  0.00  0.00    +0.005 A 
ATOM     13  C   UNL     1      -0.042  -6.014  -7.408  0.00  0.00    +0.005 A 
ATOM     14  C   UNL     1      -0.604  -8.711  -6.997  0.00  0.00    +0.000 A 
ATOM     15  C   UNL     1       0.722  -6.993  -8.042  0.00  0.00    +0.000 A 
ATOM     16  C   UNL     1       0.440  -8.341  -7.838  0.00  0.00    +0.000 A 
ENDBRANCH  10  11
ENDBRANCH   1  10
TORSDOF 2
ENDMDL
MODEL 8
REMARK VINA RESULT:    -4.892     10.129     11.775
REMARK INTER + INTRA:          -5.625
REMARK INTER:                  -5.442
REMARK INTRA:                  -0.183
REMARK UNBOUND:                -0.161
REMARK  Name = 1550473
REMARK  2 active torsions:
REMARK  status: ('A' for Active; 'I' for Inactive)
REMARK    1  A    between atoms: N_1  and  C_4
REMARK    2  A    between atoms: C_4  and  C_5
REMARK                            x       y       z     vdW  Elec       q    Type
REMARK                         _______ _______ _______ _____ _____    ______ ____
ROOT
ATOM      1  N   UNL     1     -13.293  -9.396  -6.578  0.00  0.00    -0.354 N 
ATOM      2  N   UNL     1     -15.209  -8.253  -7.203  0.00  0.00    -0.372 N 
ATOM      3  N   UNL     1     -15.374 -10.472  -6.640  0.00  0.00    -0.372 N 
ATOM      4  C   UNL     1     -14.614  -9.384  -6.803  0.00  0.00    +0.166 C 
ATOM      5  H   UNL     1     -12.768  -8.546  -6.748  0.00  0.00    +0.163 HD
ATOM      6  H   UNL     1     -16.204  -8.213  -7.377  0.00  0.00    +0.159 HD
ATOM      7  H   UNL     1     -14.689  -7.393  -7.329  0.00  0.00    +0.159 HD
ATOM      8  H   UNL     1     -14.986 -11.357  -6.345  0.00  0.00    +0.159 HD
ATOM      9  H   UNL     1     -16.370 -10.454  -6.821  0.00  0.00    +0.159 HD
ENDROOT
BRANCH   1  10
ATOM     10  C   UNL     1     -12.558 -10.560  -6.087  0.00  0.00    +0.151 C 
BRANCH  10  11
ATOM     11  C   UNL     1     -12.295 -10.392  -4.616  0.00  0.00    -0.028 A 
ATOM     12  C   UNL     1     -11.327  -9.483  -4.165  0.00  0.00    +0.005 A 
ATOM     13  C   UNL     1     -13.016 -11.134  -3.668  0.00  0.00    +0.005 A 
ATOM     14  C   UNL     1     -11.104  -9.304  -2.798  0.00  0.00    +0.000 A 
ATOM     15  C   UNL     1     -12.789 -10.954  -2.304  0.00  0.00    +0.000 A 
ATOM     16  C   UNL     1     -11.835 -10.037  -1.869  0.00  0.00    +0.000 A 
ENDBRANCH  10  11
ENDBRANCH   1  10
TORSDOF 2
ENDMDL
MODEL 9
REMARK VINA RESULT:    -4.579     18.852     20.004
REMARK INTER + INTRA:          -5.276
REMARK INTER:                  -5.111
REMARK INTRA:                  -0.165
REMARK UNBOUND:                -0.161
REMARK  Name = 1550473
REMARK  2 active torsions:
REMARK  status: ('A' for Active; 'I' for Inactive)
REMARK    1  A    between atoms: N_1  and  C_4
REMARK    2  A    between atoms: C_4  and  C_5
REMARK                            x       y       z     vdW  Elec       q    Type
REMARK                         _______ _______ _______ _____ _____    ______ ____
ROOT
ATOM      1  N   UNL     1      -7.702  -8.445 -26.969  0.00  0.00    -0.354 N 
ATOM      2  N   UNL     1      -6.579  -6.422 -27.067  0.00  0.00    -0.372 N 
ATOM      3  N   UNL     1      -8.856  -6.413 -26.786  0.00  0.00    -0.372 N 
ATOM      4  C   UNL     1      -7.722  -7.106 -26.940  0.00  0.00    +0.166 C 
ATOM      5  H   UNL     1      -6.813  -8.909 -27.118  0.00  0.00    +0.163 HD
ATOM      6  H   UNL     1      -6.562  -5.411 -27.046  0.00  0.00    +0.159 HD
ATOM      7  H   UNL     1      -5.686  -6.890 -27.171  0.00  0.00    +0.159 HD
ATOM      8  H   UNL     1      -9.753  -6.870 -26.691  0.00  0.00    +0.159 HD
ATOM      9  H   UNL     1      -8.861  -5.401 -26.774  0.00  0.00    +0.159 HD
ENDROOT
BRANCH   1  10
ATOM     10  C   UNL     1      -8.884  -9.285 -26.785  0.00  0.00    +0.151 C 
BRANCH  10  11
ATOM     11  C   UNL     1      -8.981  -9.688 -25.340  0.00  0.00    -0.028 A 
ATOM     12  C   UNL     1      -7.833 -10.065 -24.627  0.00  0.00    +0.005 A 
ATOM     13  C   UNL     1     -10.216  -9.690 -24.675  0.00  0.00    +0.005 A 
ATOM     14  C   UNL     1      -7.917 -10.410 -23.277  0.00  0.00    +0.000 A 
ATOM     15  C   UNL     1     -10.297 -10.036 -23.326  0.00  0.00    +0.000 A 
ATOM     16  C   UNL     1      -9.147 -10.394 -22.627  0.00  0.00    +0.000 A 
ENDBRANCH  10  11
ENDBRANCH   1  10
TORSDOF 2
ENDMDL
