MODEL 1
REMARK VINA RESULT:    -5.018      0.000      0.000
REMARK INTER + INTRA:          -5.788
REMARK INTER:                  -5.605
REMARK INTRA:                  -0.184
REMARK UNBOUND:                -0.184
REMARK  Name = 1550473
REMARK  2 active torsions:
REMARK  status: ('A' for Active; 'I' for Inactive)
REMARK    1  A    between atoms: N_1  and  C_4
REMARK    2  A    between atoms: C_4  and  C_5
REMARK                            x       y       z     vdW  Elec       q    Type
REMARK                         _______ _______ _______ _____ _____    ______ ____
ROOT
ATOM      1  N   UNL     1      11.623   4.340  -4.120  0.00  0.00    -0.354 N 
ATOM      2  N   UNL     1      12.096   2.568  -5.534  0.00  0.00    -0.372 N 
ATOM      3  N   UNL     1      10.030   2.674  -4.541  0.00  0.00    -0.372 N 
ATOM      4  C   UNL     1      11.244   3.205  -4.721  0.00  0.00    +0.166 C 
ATOM      5  H   UNL     1      12.567   4.675  -4.274  0.00  0.00    +0.163 HD
ATOM      6  H   UNL     1      11.836   1.711  -6.004  0.00  0.00    +0.159 HD
ATOM      7  H   UNL     1      13.023   2.929  -5.722  0.00  0.00    +0.159 HD
ATOM      8  H   UNL     1       9.342   3.103  -3.936  0.00  0.00    +0.159 HD
ATOM      9  H   UNL     1       9.756   1.811  -4.994  0.00  0.00    +0.159 HD
ENDROOT
BRANCH   1  10
ATOM     10  C   UNL     1      10.753   5.140  -3.259  0.00  0.00    +0.151 C 
BRANCH  10  11
ATOM     11  C   UNL     1      10.234   6.315  -4.041  0.00  0.00    -0.028 A 
ATOM     12  C   UNL     1      11.076   7.395  -4.345  0.00  0.00    +0.005 A 
ATOM     13  C   UNL     1       8.903   6.353  -4.484  0.00  0.00    +0.005 A 
ATOM     14  C   UNL     1      10.603   8.473  -5.097  0.00  0.00    +0.000 A 
ATOM     15  C   UNL     1       8.435   7.432  -5.234  0.00  0.00    +0.000 A 
ATOM     16  C   UNL     1       9.286   8.491  -5.542  0.00  0.00    +0.000 A 
ENDBRANCH  10  11
ENDBRANCH   1  10
TORSDOF 2
ENDMDL
MODEL 2
REMARK VINA RESULT:    -4.822     17.310     18.013
REMARK INTER + INTRA:          -5.569
REMARK INTER:                  -5.440
REMARK INTRA:                  -0.129
REMARK UNBOUND:                -0.184
REMARK  Name = 1550473
REMARK  2 active torsions:
REMARK  status: ('A' for Active; 'I' for Inactive)
REMARK    1  A    between atoms: N_1  and  C_4
REMARK    2  A    between atoms: C_4  and  C_5
REMARK                            x       y       z     vdW  Elec       q    Type
REMARK                         _______ _______ _______ _____ _____    ______ ____
ROOT
ATOM      1  N   UNL     1      -5.378   1.953 -10.003  0.00  0.00    -0.354 N 
ATOM      2  N   UNL     1      -4.301  -0.057 -10.408  0.00  0.00    -0.372 N 
ATOM      3  N   UNL     1      -6.437   0.235 -11.195  0.00  0.00    -0.372 N 
ATOM      4  C   UNL     1      -5.382   0.723 -10.534  0.00  0.00    +0.166 C 
ATOM      5  H   UNL     1      -4.558   2.252  -9.488  0.00  0.00    +0.163 HD
ATOM      6  H   UNL     1      -4.273  -0.989 -10.801  0.00  0.00    +0.159 HD
ATOM      7  H   UNL     1      -3.466   0.262  -9.932  0.00  0.00    +0.159 HD
ATOM      8  H   UNL     1      -7.285   0.771 -11.319  0.00  0.00    +0.159 HD
ATOM      9  H   UNL     1      -6.432  -0.699 -11.585  0.00  0.00    +0.159 HD
ENDROOT
BRANCH   1  10
ATOM     10  C   UNL     1      -6.483   2.901 -10.130  0.00  0.00    +0.151 C 
BRANCH  10  11
ATOM     11  C   UNL     1      -7.009   3.229  -8.760  0.00  0.00    -0.028 A 
ATOM     12  C   UNL     1      -7.983   4.223  -8.590  0.00  0.00    +0.005 A 
ATOM     13  C   UNL     1      -6.541   2.544  -7.627  0.00  0.00    +0.005 A 
ATOM     14  C   UNL     1      -8.494   4.507  -7.321  0.00  0.00    +0.000 A 
ATOM     15  C   UNL     1      -7.053   2.831  -6.362  0.00  0.00    +0.000 A 
ATOM     16  C   UNL     1      -8.031   3.811  -6.209  0.00  0.00    +0.000 A 
ENDBRANCH  10  11
ENDBRANCH   1  10
TORSDOF 2
ENDMDL
MODEL 3
REMARK VINA RESULT:    -4.689      3.767      4.939
REMARK INTER + INTRA:          -5.421
REMARK INTER:                  -5.311
REMARK INTRA:                  -0.109
REMARK UNBOUND:                -0.184
REMARK  Name = 1550473
REMARK  2 active torsions:
REMARK  status: ('A' for Active; 'I' for Inactive)
REMARK    1  A    between atoms: N_1  and  C_4
REMARK    2  A    between atoms: C_4  and  C_5
REMARK                            x       y       z     vdW  Elec       q    Type
REMARK                         _______ _______ _______ _____ _____    ______ ____
ROOT
ATOM      1  N   UNL     1       8.231   7.903  -6.714  0.00  0.00    -0.354 N 
ATOM      2  N   UNL     1       6.890   7.884  -8.603  0.00  0.00    -0.372 N 
ATOM      3  N   UNL     1       7.883   9.853  -7.967  0.00  0.00    -0.372 N 
ATOM      4  C   UNL     1       7.677   8.550  -7.749  0.00  0.00    +0.166 C 
ATOM      5  H   UNL     1       8.011   6.921  -6.587  0.00  0.00    +0.163 HD
ATOM      6  H   UNL     1       6.461   8.345  -9.394  0.00  0.00    +0.159 HD
ATOM      7  H   UNL     1       6.709   6.893  -8.499  0.00  0.00    +0.159 HD
ATOM      8  H   UNL     1       8.462  10.413  -7.356  0.00  0.00    +0.159 HD
ATOM      9  H   UNL     1       7.454  10.334  -8.747  0.00  0.00    +0.159 HD
ENDROOT
BRANCH   1  10
ATOM     10  C   UNL     1       9.146   8.522  -5.758  0.00  0.00    +0.151 C 
BRANCH  10  11
ATOM     11  C   UNL     1       9.736   7.454  -4.879  0.00  0.00    -0.028 A 
ATOM     12  C   UNL     1      11.086   7.504  -4.505  0.00  0.00    +0.005 A 
ATOM     13  C   UNL     1       8.947   6.391  -4.412  0.00  0.00    +0.005 A 
ATOM     14  C   UNL     1      11.627   6.528  -3.664  0.00  0.00    +0.000 A 
ATOM     15  C   UNL     1       9.491   5.418  -3.573  0.00  0.00    +0.000 A 
ATOM     16  C   UNL     1      10.830   5.488  -3.198  0.00  0.00    +0.000 A 
ENDBRANCH  10  11
ENDBRANCH   1  10
TORSDOF 2
ENDMDL
MODEL 4
REMARK VINA RESULT:    -4.672     17.607     18.838
REMARK INTER + INTRA:          -5.402
REMARK INTER:                  -5.310
REMARK INTRA:                  -0.092
REMARK UNBOUND:                -0.184
REMARK  Name = 1550473
REMARK  2 active torsions:
REMARK  status: ('A' for Active; 'I' for Inactive)
REMARK    1  A    between atoms: N_1  and  C_4
REMARK    2  A    between atoms: C_4  and  C_5
REMARK                            x       y       z     vdW  Elec       q    Type
REMARK                         _______ _______ _______ _____ _____    ______ ____
ROOT
ATOM      1  N   UNL     1       4.433  -2.850   9.709  0.00  0.00    -0.354 N 
ATOM      2  N   UNL     1       6.147  -2.819   8.151  0.00  0.00    -0.372 N 
ATOM      3  N   UNL     1       5.815  -4.717   9.399  0.00  0.00    -0.372 N 
ATOM      4  C   UNL     1       5.454  -3.465   9.098  0.00  0.00    +0.166 C 
ATOM      5  H   UNL     1       4.229  -1.890   9.457  0.00  0.00    +0.163 HD
ATOM      6  H   UNL     1       6.920  -3.259   7.670  0.00  0.00    +0.159 HD
ATOM      7  H   UNL     1       5.911  -1.876   7.869  0.00  0.00    +0.159 HD
ATOM      8  H   UNL     1       5.337  -5.256  10.108  0.00  0.00    +0.159 HD
ATOM      9  H   UNL     1       6.594  -5.169   8.937  0.00  0.00    +0.159 HD
ENDROOT
BRANCH   1  10
ATOM     10  C   UNL     1       3.582  -3.482  10.715  0.00  0.00    +0.151 C 
BRANCH  10  11
ATOM     11  C   UNL     1       2.362  -2.630  10.933  0.00  0.00    -0.028 A 
ATOM     12  C   UNL     1       1.216  -2.814  10.146  0.00  0.00    +0.005 A 
ATOM     13  C   UNL     1       2.344  -1.641  11.928  0.00  0.00    +0.005 A 
ATOM     14  C   UNL     1       0.072  -2.043  10.367  0.00  0.00    +0.000 A 
ATOM     15  C   UNL     1       1.201  -0.873  12.146  0.00  0.00    +0.000 A 
ATOM     16  C   UNL     1       0.064  -1.076  11.367  0.00  0.00    +0.000 A 
ENDBRANCH  10  11
ENDBRANCH   1  10
TORSDOF 2
ENDMDL
MODEL 5
REMARK VINA RESULT:    -4.576     20.293     21.473
REMARK INTER + INTRA:          -5.295
REMARK INTER:                  -5.194
REMARK INTRA:                  -0.101
REMARK UNBOUND:                -0.184
REMARK  Name = 1550473
REMARK  2 active torsions:
REMARK  status: ('A' for Active; 'I' for Inactive)
REMARK    1  A    between atoms: N_1  and  C_4
REMARK    2  A    between atoms: C_4  and  C_5
REMARK                            x       y       z     vdW  Elec       q    Type
REMARK                         _______ _______ _______ _____ _____    ______ ____
ROOT
ATOM      1  N   UNL     1      -9.061   0.494   4.742  0.00  0.00    -0.354 N 
ATOM      2  N   UNL     1     -11.173   0.711   3.816  0.00  0.00    -0.372 N 
ATOM      3  N   UNL     1     -10.711  -1.130   5.104  0.00  0.00    -0.372 N 
ATOM      4  C   UNL     1     -10.301   0.021   4.561  0.00  0.00    +0.166 C 
ATOM      5  H   UNL     1      -8.803   1.357   4.279  0.00  0.00    +0.163 HD
ATOM      6  H   UNL     1     -12.116   0.381   3.665  0.00  0.00    +0.159 HD
ATOM      7  H   UNL     1     -10.926   1.597   3.392  0.00  0.00    +0.159 HD
ATOM      8  H   UNL     1     -10.100  -1.702   5.673  0.00  0.00    +0.159 HD
ATOM      9  H   UNL     1     -11.648  -1.483   4.955  0.00  0.00    +0.159 HD
ENDROOT
BRANCH   1  10
ATOM     10  C   UNL     1      -8.053  -0.154   5.580  0.00  0.00    +0.151 C 
BRANCH  10  11
ATOM     11  C   UNL     1      -6.889   0.781   5.759  0.00  0.00    -0.028 A 
ATOM     12  C   UNL     1      -6.202   1.285   4.644  0.00  0.00    +0.005 A 
ATOM     13  C   UNL     1      -6.471   1.171   7.040  0.00  0.00    +0.005 A 
ATOM     14  C   UNL     1      -5.140   2.177   4.809  0.00  0.00    +0.000 A 
ATOM     15  C   UNL     1      -5.409   2.061   7.201  0.00  0.00    +0.000 A 
ATOM     16  C   UNL     1      -4.745   2.566   6.085  0.00  0.00    +0.000 A 
ENDBRANCH  10  11
ENDBRANCH   1  10
TORSDOF 2
ENDMDL
MODEL 6
REMARK VINA RESULT:    -4.461     19.696     20.770
REMARK INTER + INTRA:          -5.167
REMARK INTER:                  -5.063
REMARK INTRA:                  -0.103
REMARK UNBOUND:                -0.184
REMARK  Name = 1550473
REMARK  2 active torsions:
REMARK  status: ('A' for Active; 'I' for Inactive)
REMARK    1  A    between atoms: N_1  and  C_4
REMARK    2  A    between atoms: C_4  and  C_5
REMARK                            x       y       z     vdW  Elec       q    Type
REMARK                         _______ _______ _______ _____ _____    ______ ____
ROOT
ATOM      1  N   UNL     1      -5.964  -0.434   8.267  0.00  0.00    -0.354 N 
ATOM      2  N   UNL     1      -5.302  -2.433   9.232  0.00  0.00    -0.372 N 
ATOM      3  N   UNL     1      -7.491  -2.182   8.591  0.00  0.00    -0.372 N 
ATOM      4  C   UNL     1      -6.260  -1.670   8.690  0.00  0.00    +0.166 C 
ATOM      5  H   UNL     1      -5.019  -0.094   8.398  0.00  0.00    +0.163 HD
ATOM      6  H   UNL     1      -5.494  -3.371   9.557  0.00  0.00    +0.159 HD
ATOM      7  H   UNL     1      -4.347  -2.106   9.320  0.00  0.00    +0.159 HD
ATOM      8  H   UNL     1      -8.260  -1.656   8.197  0.00  0.00    +0.159 HD
ATOM      9  H   UNL     1      -7.706  -3.115   8.921  0.00  0.00    +0.159 HD
ENDROOT
BRANCH   1  10
ATOM     10  C   UNL     1      -6.921   0.457   7.613  0.00  0.00    +0.151 C 
BRANCH  10  11
ATOM     11  C   UNL     1      -6.208   1.255   6.557  0.00  0.00    -0.028 A 
ATOM     12  C   UNL     1      -6.513   1.073   5.200  0.00  0.00    +0.005 A 
ATOM     13  C   UNL     1      -5.230   2.199   6.907  0.00  0.00    +0.005 A 
ATOM     14  C   UNL     1      -5.871   1.835   4.221  0.00  0.00    +0.000 A 
ATOM     15  C   UNL     1      -4.591   2.957   5.926  0.00  0.00    +0.000 A 
ATOM     16  C   UNL     1      -4.914   2.777   4.583  0.00  0.00    +0.000 A 
ENDBRANCH  10  11
ENDBRANCH   1  10
TORSDOF 2
ENDMDL
MODEL 7
REMARK VINA RESULT:    -4.171     25.113     26.324
REMARK INTER + INTRA:          -4.842
REMARK INTER:                  -4.700
REMARK INTRA:                  -0.142
REMARK UNBOUND:                -0.184
REMARK  Name = 1550473
REMARK  2 active torsions:
REMARK  status: ('A' for Active; 'I' for Inactive)
REMARK    1  A    between atoms: N_1  and  C_4
REMARK    2  A    between atoms: C_4  and  C_5
REMARK                            x       y       z     vdW  Elec       q    Type
REMARK                         _______ _______ _______ _____ _____    ______ ____
ROOT
ATOM      1  N   UNL     1     -10.985  -7.628   0.853  0.00  0.00    -0.354 N 
ATOM      2  N   UNL     1     -10.222  -6.478  -1.006  0.00  0.00    -0.372 N 
ATOM      3  N   UNL     1      -8.873  -8.075  -0.060  0.00  0.00    -0.372 N 
ATOM      4  C   UNL     1     -10.029  -7.403  -0.058  0.00  0.00    +0.166 C 
ATOM      5  H   UNL     1     -11.826  -7.064   0.819  0.00  0.00    +0.163 HD
ATOM      6  H   UNL     1      -9.521  -6.288  -1.710  0.00  0.00    +0.159 HD
ATOM      7  H   UNL     1     -11.083  -5.947  -1.066  0.00  0.00    +0.159 HD
ATOM      8  H   UNL     1      -8.664  -8.782   0.632  0.00  0.00    +0.159 HD
ATOM      9  H   UNL     1      -8.154  -7.891  -0.749  0.00  0.00    +0.159 HD
ENDROOT
BRANCH   1  10
ATOM     10  C   UNL     1     -10.896  -8.650   1.895  0.00  0.00    +0.151 C 
BRANCH  10  11
ATOM     11  C   UNL     1     -11.205  -8.023   3.226  0.00  0.00    -0.028 A 
ATOM     12  C   UNL     1     -11.838  -6.774   3.295  0.00  0.00    +0.005 A 
ATOM     13  C   UNL     1     -10.872  -8.676   4.423  0.00  0.00    +0.005 A 
ATOM     14  C   UNL     1     -12.153  -6.205   4.531  0.00  0.00    +0.000 A 
ATOM     15  C   UNL     1     -11.187  -8.104   5.655  0.00  0.00    +0.000 A 
ATOM     16  C   UNL     1     -11.829  -6.870   5.709  0.00  0.00    +0.000 A 
ENDBRANCH  10  11
ENDBRANCH   1  10
TORSDOF 2
ENDMDL
MODEL 8
REMARK VINA RESULT:    -4.122     19.079     20.317
REMARK INTER + INTRA:          -4.788
REMARK INTER:                  -4.681
REMARK INTRA:                  -0.106
REMARK UNBOUND:                -0.184
REMARK  Name = 1550473
REMARK  2 active torsions:
REMARK  status: ('A' for Active; 'I' for Inactive)
REMARK    1  A    between atoms: N_1  and  C_4
REMARK    2  A    between atoms: C_4  and  C_5
REMARK                            x       y       z     vdW  Elec       q    Type
REMARK                         _______ _______ _______ _____ _____    ______ ____
ROOT
ATOM      1  N   UNL     1      -6.973   6.632   5.498  0.00  0.00    -0.354 N 
ATOM      2  N   UNL     1      -7.015   8.916   5.119  0.00  0.00    -0.372 N 
ATOM      3  N   UNL     1      -8.877   7.904   5.998  0.00  0.00    -0.372 N 
ATOM      4  C   UNL     1      -7.624   7.802   5.542  0.00  0.00    +0.166 C 
ATOM      5  H   UNL     1      -6.036   6.616   5.113  0.00  0.00    +0.163 HD
ATOM      6  H   UNL     1      -7.479   9.814   5.143  0.00  0.00    +0.159 HD
ATOM      7  H   UNL     1      -6.061   8.905   4.777  0.00  0.00    +0.159 HD
ATOM      8  H   UNL     1      -9.395   7.100   6.326  0.00  0.00    +0.159 HD
ATOM      9  H   UNL     1      -9.363   8.792   6.019  0.00  0.00    +0.159 HD
ENDROOT
BRANCH   1  10
ATOM     10  C   UNL     1      -7.528   5.370   5.984  0.00  0.00    +0.151 C 
BRANCH  10  11
ATOM     11  C   UNL     1      -6.556   4.260   5.690  0.00  0.00    -0.028 A 
ATOM     12  C   UNL     1      -6.036   4.094   4.398  0.00  0.00    +0.005 A 
ATOM     13  C   UNL     1      -6.147   3.375   6.699  0.00  0.00    +0.005 A 
ATOM     14  C   UNL     1      -5.110   3.083   4.130  0.00  0.00    +0.000 A 
ATOM     15  C   UNL     1      -5.224   2.366   6.428  0.00  0.00    +0.000 A 
ATOM     16  C   UNL     1      -4.703   2.222   5.144  0.00  0.00    +0.000 A 
ENDBRANCH  10  11
ENDBRANCH   1  10
TORSDOF 2
ENDMDL
MODEL 9
REMARK VINA RESULT:    -4.100      3.437      5.073
REMARK INTER + INTRA:          -4.762
REMARK INTER:                  -4.640
REMARK INTRA:                  -0.123
REMARK UNBOUND:                -0.184
REMARK  Name = 1550473
REMARK  2 active torsions:
REMARK  status: ('A' for Active; 'I' for Inactive)
REMARK    1  A    between atoms: N_1  and  C_4
REMARK    2  A    between atoms: C_4  and  C_5
REMARK                            x       y       z     vdW  Elec       q    Type
REMARK                         _______ _______ _______ _____ _____    ______ ____
ROOT
ATOM      1  N   UNL     1      13.078   8.748  -4.278  0.00  0.00    -0.354 N 
ATOM      2  N   UNL     1      15.101   9.733  -3.729  0.00  0.00    -0.372 N 
ATOM      3  N   UNL     1      13.670  10.848  -5.134  0.00  0.00    -0.372 N 
ATOM      4  C   UNL     1      13.936   9.772  -4.386  0.00  0.00    +0.166 C 
ATOM      5  H   UNL     1      13.352   7.948  -3.720  0.00  0.00    +0.163 HD
ATOM      6  H   UNL     1      15.767  10.492  -3.788  0.00  0.00    +0.159 HD
ATOM      7  H   UNL     1      15.352   8.952  -3.135  0.00  0.00    +0.159 HD
ATOM      8  H   UNL     1      12.811  10.936  -5.659  0.00  0.00    +0.159 HD
ATOM      9  H   UNL     1      14.329  11.613  -5.215  0.00  0.00    +0.159 HD
ENDROOT
BRANCH   1  10
ATOM     10  C   UNL     1      11.760   8.716  -4.910  0.00  0.00    +0.151 C 
BRANCH  10  11
ATOM     11  C   UNL     1      11.008   7.511  -4.416  0.00  0.00    -0.028 A 
ATOM     12  C   UNL     1       9.661   7.323  -4.757  0.00  0.00    +0.005 A 
ATOM     13  C   UNL     1      11.640   6.549  -3.612  0.00  0.00    +0.005 A 
ATOM     14  C   UNL     1       8.971   6.188  -4.324  0.00  0.00    +0.000 A 
ATOM     15  C   UNL     1      10.947   5.418  -3.181  0.00  0.00    +0.000 A 
ATOM     16  C   UNL     1       9.613   5.237  -3.539  0.00  0.00    +0.000 A 
ENDBRANCH  10  11
ENDBRANCH   1  10
TORSDOF 2
ENDMDL
