MODEL 1
REMARK VINA RESULT:    -6.177      0.000      0.000
REMARK INTER + INTRA:          -7.006
REMARK INTER:                  -6.899
REMARK INTRA:                  -0.107
REMARK UNBOUND:                -0.107
REMARK  Name = 1550473
REMARK  2 active torsions:
REMARK  status: ('A' for Active; 'I' for Inactive)
REMARK    1  A    between atoms: N_1  and  C_4
REMARK    2  A    between atoms: C_4  and  C_5
REMARK                            x       y       z     vdW  Elec       q    Type
REMARK                         _______ _______ _______ _____ _____    ______ ____
ROOT
ATOM      1  N   UNL     1       2.997  -1.440  -5.514  0.00  0.00    -0.354 N 
ATOM      2  N   UNL     1       3.009   0.798  -6.108  0.00  0.00    -0.372 N 
ATOM      3  N   UNL     1       4.643   0.016  -4.699  0.00  0.00    -0.372 N 
ATOM      4  C   UNL     1       3.552  -0.223  -5.434  0.00  0.00    +0.166 C 
ATOM      5  H   UNL     1       2.153  -1.550  -6.064  0.00  0.00    +0.163 HD
ATOM      6  H   UNL     1       3.408   1.727  -6.070  0.00  0.00    +0.159 HD
ATOM      7  H   UNL     1       2.193   0.676  -6.694  0.00  0.00    +0.159 HD
ATOM      8  H   UNL     1       5.097  -0.711  -4.162  0.00  0.00    +0.159 HD
ATOM      9  H   UNL     1       5.049   0.941  -4.639  0.00  0.00    +0.159 HD
ENDROOT
BRANCH   1  10
ATOM     10  C   UNL     1       3.541  -2.631  -4.862  0.00  0.00    +0.151 C 
BRANCH  10  11
ATOM     11  C   UNL     1       2.920  -3.854  -5.477  0.00  0.00    -0.028 A 
ATOM     12  C   UNL     1       3.041  -4.100  -6.853  0.00  0.00    +0.005 A 
ATOM     13  C   UNL     1       2.213  -4.775  -4.688  0.00  0.00    +0.005 A 
ATOM     14  C   UNL     1       2.489  -5.251  -7.419  0.00  0.00    +0.000 A 
ATOM     15  C   UNL     1       1.664  -5.924  -5.258  0.00  0.00    +0.000 A 
ATOM     16  C   UNL     1       1.804  -6.162  -6.623  0.00  0.00    +0.000 A 
ENDBRANCH  10  11
ENDBRANCH   1  10
TORSDOF 2
ENDMDL
MODEL 2
REMARK VINA RESULT:    -5.808      3.131      3.821
REMARK INTER + INTRA:          -6.594
REMARK INTER:                  -6.478
REMARK INTRA:                  -0.117
REMARK UNBOUND:                -0.107
REMARK  Name = 1550473
REMARK  2 active torsions:
REMARK  status: ('A' for Active; 'I' for Inactive)
REMARK    1  A    between atoms: N_1  and  C_4
REMARK    2  A    between atoms: C_4  and  C_5
REMARK                            x       y       z     vdW  Elec       q    Type
REMARK                         _______ _______ _______ _____ _____    ______ ____
ROOT
ATOM      1  N   UNL     1       2.037  -3.342  -9.181  0.00  0.00    -0.354 N 
ATOM      2  N   UNL     1       3.887  -2.052  -9.707  0.00  0.00    -0.372 N 
ATOM      3  N   UNL     1       4.205  -4.220  -9.025  0.00  0.00    -0.372 N 
ATOM      4  C   UNL     1       3.366  -3.215  -9.300  0.00  0.00    +0.166 C 
ATOM      5  H   UNL     1       1.457  -2.534  -9.376  0.00  0.00    +0.163 HD
ATOM      6  H   UNL     1       4.886  -1.927  -9.809  0.00  0.00    +0.159 HD
ATOM      7  H   UNL     1       3.303  -1.260  -9.945  0.00  0.00    +0.159 HD
ATOM      8  H   UNL     1       3.875  -5.121  -8.707  0.00  0.00    +0.159 HD
ATOM      9  H   UNL     1       5.208  -4.111  -9.110  0.00  0.00    +0.159 HD
ENDROOT
BRANCH   1  10
ATOM     10  C   UNL     1       1.365  -4.582  -8.797  0.00  0.00    +0.151 C 
BRANCH  10  11
ATOM     11  C   UNL     1       1.321  -4.673  -7.297  0.00  0.00    -0.028 A 
ATOM     12  C   UNL     1       1.737  -5.841  -6.641  0.00  0.00    +0.005 A 
ATOM     13  C   UNL     1       0.868  -3.592  -6.525  0.00  0.00    +0.005 A 
ATOM     14  C   UNL     1       1.724  -5.914  -5.246  0.00  0.00    +0.000 A 
ATOM     15  C   UNL     1       0.855  -3.670  -5.132  0.00  0.00    +0.000 A 
ATOM     16  C   UNL     1       1.286  -4.830  -4.493  0.00  0.00    +0.000 A 
ENDBRANCH  10  11
ENDBRANCH   1  10
TORSDOF 2
ENDMDL
MODEL 3
REMARK VINA RESULT:    -5.804     14.904     15.784
REMARK INTER + INTRA:          -6.590
REMARK INTER:                  -6.474
REMARK INTRA:                  -0.115
REMARK UNBOUND:                -0.107
REMARK  Name = 1550473
REMARK  2 active torsions:
REMARK  status: ('A' for Active; 'I' for Inactive)
REMARK    1  A    between atoms: N_1  and  C_4
REMARK    2  A    between atoms: C_4  and  C_5
REMARK                            x       y       z     vdW  Elec       q    Type
REMARK                         _______ _______ _______ _____ _____    ______ ____
ROOT
ATOM      1  N   UNL     1      -4.546   0.826   8.130  0.00  0.00    -0.354 N 
ATOM      2  N   UNL     1      -3.675   0.966  10.271  0.00  0.00    -0.372 N 
ATOM      3  N   UNL     1      -5.612  -0.218   9.937  0.00  0.00    -0.372 N 
ATOM      4  C   UNL     1      -4.619   0.522   9.432  0.00  0.00    +0.166 C 
ATOM      5  H   UNL     1      -3.784   1.417   7.815  0.00  0.00    +0.163 HD
ATOM      6  H   UNL     1      -3.701   0.749  11.259  0.00  0.00    +0.159 HD
ATOM      7  H   UNL     1      -2.890   1.517   9.946  0.00  0.00    +0.159 HD
ATOM      8  H   UNL     1      -6.358  -0.578   9.358  0.00  0.00    +0.159 HD
ATOM      9  H   UNL     1      -5.662  -0.435  10.924  0.00  0.00    +0.159 HD
ENDROOT
BRANCH   1  10
ATOM     10  C   UNL     1      -5.493   0.349   7.124  0.00  0.00    +0.151 C 
BRANCH  10  11
ATOM     11  C   UNL     1      -5.307   1.139   5.859  0.00  0.00    -0.028 A 
ATOM     12  C   UNL     1      -5.109   2.527   5.908  0.00  0.00    +0.005 A 
ATOM     13  C   UNL     1      -5.321   0.505   4.607  0.00  0.00    +0.005 A 
ATOM     14  C   UNL     1      -4.905   3.257   4.735  0.00  0.00    +0.000 A 
ATOM     15  C   UNL     1      -5.118   1.238   3.437  0.00  0.00    +0.000 A 
ATOM     16  C   UNL     1      -4.908   2.614   3.502  0.00  0.00    +0.000 A 
ENDBRANCH  10  11
ENDBRANCH   1  10
TORSDOF 2
ENDMDL
MODEL 4
REMARK VINA RESULT:    -5.724      0.859      1.913
REMARK INTER + INTRA:          -6.501
REMARK INTER:                  -6.373
REMARK INTRA:                  -0.127
REMARK UNBOUND:                -0.107
REMARK  Name = 1550473
REMARK  2 active torsions:
REMARK  status: ('A' for Active; 'I' for Inactive)
REMARK    1  A    between atoms: N_1  and  C_4
REMARK    2  A    between atoms: C_4  and  C_5
REMARK                            x       y       z     vdW  Elec       q    Type
REMARK                         _______ _______ _______ _____ _____    ______ ____
ROOT
ATOM      1  N   UNL     1       3.491  -1.390  -5.754  0.00  0.00    -0.354 N 
ATOM      2  N   UNL     1       4.275   0.452  -4.590  0.00  0.00    -0.372 N 
ATOM      3  N   UNL     1       2.841   0.781  -6.350  0.00  0.00    -0.372 N 
ATOM      4  C   UNL     1       3.529  -0.063  -5.574  0.00  0.00    +0.166 C 
ATOM      5  H   UNL     1       4.059  -1.974  -5.152  0.00  0.00    +0.163 HD
ATOM      6  H   UNL     1       4.320   1.449  -4.428  0.00  0.00    +0.159 HD
ATOM      7  H   UNL     1       4.806  -0.137  -3.960  0.00  0.00    +0.159 HD
ATOM      8  H   UNL     1       2.263   0.456  -7.114  0.00  0.00    +0.159 HD
ATOM      9  H   UNL     1       2.883   1.783  -6.211  0.00  0.00    +0.159 HD
ENDROOT
BRANCH   1  10
ATOM     10  C   UNL     1       2.668  -2.055  -6.763  0.00  0.00    +0.151 C 
BRANCH  10  11
ATOM     11  C   UNL     1       2.356  -3.452  -6.300  0.00  0.00    -0.028 A 
ATOM     12  C   UNL     1       2.344  -3.762  -4.932  0.00  0.00    +0.005 A 
ATOM     13  C   UNL     1       2.067  -4.468  -7.224  0.00  0.00    +0.005 A 
ATOM     14  C   UNL     1       2.025  -5.051  -4.500  0.00  0.00    +0.000 A 
ATOM     15  C   UNL     1       1.749  -5.754  -6.788  0.00  0.00    +0.000 A 
ATOM     16  C   UNL     1       1.726  -6.045  -5.426  0.00  0.00    +0.000 A 
ENDBRANCH  10  11
ENDBRANCH   1  10
TORSDOF 2
ENDMDL
MODEL 5
REMARK VINA RESULT:    -5.331     23.366     24.334
REMARK INTER + INTRA:          -6.062
REMARK INTER:                  -5.922
REMARK INTRA:                  -0.140
REMARK UNBOUND:                -0.107
REMARK  Name = 1550473
REMARK  2 active torsions:
REMARK  status: ('A' for Active; 'I' for Inactive)
REMARK    1  A    between atoms: N_1  and  C_4
REMARK    2  A    between atoms: C_4  and  C_5
REMARK                            x       y       z     vdW  Elec       q    Type
REMARK                         _______ _______ _______ _____ _____    ______ ____
ROOT
ATOM      1  N   UNL     1       0.764  14.188  10.905  0.00  0.00    -0.354 N 
ATOM      2  N   UNL     1       1.971  16.164  10.846  0.00  0.00    -0.372 N 
ATOM      3  N   UNL     1       3.067  14.209  11.339  0.00  0.00    -0.372 N 
ATOM      4  C   UNL     1       1.928  14.839  11.032  0.00  0.00    +0.166 C 
ATOM      5  H   UNL     1      -0.069  14.727  10.700  0.00  0.00    +0.163 HD
ATOM      6  H   UNL     1       2.835  16.682  10.932  0.00  0.00    +0.159 HD
ATOM      7  H   UNL     1       1.145  16.694  10.596  0.00  0.00    +0.159 HD
ATOM      8  H   UNL     1       3.101  13.211  11.497  0.00  0.00    +0.159 HD
ATOM      9  H   UNL     1       3.940  14.712  11.440  0.00  0.00    +0.159 HD
ENDROOT
BRANCH   1  10
ATOM     10  C   UNL     1       0.620  12.739  11.034  0.00  0.00    +0.151 C 
BRANCH  10  11
ATOM     11  C   UNL     1      -0.538  12.440  11.946  0.00  0.00    -0.028 A 
ATOM     12  C   UNL     1      -1.557  11.566  11.539  0.00  0.00    +0.005 A 
ATOM     13  C   UNL     1      -0.618  13.022  13.220  0.00  0.00    +0.005 A 
ATOM     14  C   UNL     1      -2.617  11.264  12.398  0.00  0.00    +0.000 A 
ATOM     15  C   UNL     1      -1.679  12.719  14.074  0.00  0.00    +0.000 A 
ATOM     16  C   UNL     1      -2.676  11.838  13.663  0.00  0.00    +0.000 A 
ENDBRANCH  10  11
ENDBRANCH   1  10
TORSDOF 2
ENDMDL
MODEL 6
REMARK VINA RESULT:    -5.274      2.769      5.325
REMARK INTER + INTRA:          -5.998
REMARK INTER:                  -5.905
REMARK INTRA:                  -0.093
REMARK UNBOUND:                -0.107
REMARK  Name = 1550473
REMARK  2 active torsions:
REMARK  status: ('A' for Active; 'I' for Inactive)
REMARK    1  A    between atoms: N_1  and  C_4
REMARK    2  A    between atoms: C_4  and  C_5
REMARK                            x       y       z     vdW  Elec       q    Type
REMARK                         _______ _______ _______ _____ _____    ______ ____
ROOT
ATOM      1  N   UNL     1       2.742  -3.609  -7.616  0.00  0.00    -0.354 N 
ATOM      2  N   UNL     1       3.537  -5.250  -9.044  0.00  0.00    -0.372 N 
ATOM      3  N   UNL     1       2.057  -5.839  -7.392  0.00  0.00    -0.372 N 
ATOM      4  C   UNL     1       2.772  -4.890  -8.007  0.00  0.00    +0.166 C 
ATOM      5  H   UNL     1       3.330  -2.943  -8.104  0.00  0.00    +0.163 HD
ATOM      6  H   UNL     1       3.577  -6.209  -9.363  0.00  0.00    +0.159 HD
ATOM      7  H   UNL     1       4.088  -4.575  -9.559  0.00  0.00    +0.159 HD
ATOM      8  H   UNL     1       1.464  -5.633  -6.599  0.00  0.00    +0.159 HD
ATOM      9  H   UNL     1       2.092  -6.806  -7.690  0.00  0.00    +0.159 HD
ENDROOT
BRANCH   1  10
ATOM     10  C   UNL     1       1.901  -3.103  -6.533  0.00  0.00    +0.151 C 
BRANCH  10  11
ATOM     11  C   UNL     1       2.261  -1.669  -6.260  0.00  0.00    -0.028 A 
ATOM     12  C   UNL     1       3.022  -1.327  -5.133  0.00  0.00    +0.005 A 
ATOM     13  C   UNL     1       1.848  -0.647  -7.129  0.00  0.00    +0.005 A 
ATOM     14  C   UNL     1       3.381   0.002  -4.896  0.00  0.00    +0.000 A 
ATOM     15  C   UNL     1       2.208   0.679  -6.889  0.00  0.00    +0.000 A 
ATOM     16  C   UNL     1       2.977   1.003  -5.773  0.00  0.00    +0.000 A 
ENDBRANCH  10  11
ENDBRANCH   1  10
TORSDOF 2
ENDMDL
MODEL 7
REMARK VINA RESULT:    -5.265     23.976     25.732
REMARK INTER + INTRA:          -5.988
REMARK INTER:                  -5.847
REMARK INTRA:                  -0.141
REMARK UNBOUND:                -0.107
REMARK  Name = 1550473
REMARK  2 active torsions:
REMARK  status: ('A' for Active; 'I' for Inactive)
REMARK    1  A    between atoms: N_1  and  C_4
REMARK    2  A    between atoms: C_4  and  C_5
REMARK                            x       y       z     vdW  Elec       q    Type
REMARK                         _______ _______ _______ _____ _____    ______ ____
ROOT
ATOM      1  N   UNL     1       8.238  12.742  12.487  0.00  0.00    -0.354 N 
ATOM      2  N   UNL     1       8.949  10.793  11.457  0.00  0.00    -0.372 N 
ATOM      3  N   UNL     1       9.363  11.079  13.696  0.00  0.00    -0.372 N 
ATOM      4  C   UNL     1       8.847  11.550  12.556  0.00  0.00    +0.166 C 
ATOM      5  H   UNL     1       7.894  13.055  11.587  0.00  0.00    +0.163 HD
ATOM      6  H   UNL     1       9.400   9.888  11.479  0.00  0.00    +0.159 HD
ATOM      7  H   UNL     1       8.563  11.089  10.568  0.00  0.00    +0.159 HD
ATOM      8  H   UNL     1       9.324  11.604  14.559  0.00  0.00    +0.159 HD
ATOM      9  H   UNL     1       9.829  10.181  13.735  0.00  0.00    +0.159 HD
ENDROOT
BRANCH   1  10
ATOM     10  C   UNL     1       8.027  13.620  13.637  0.00  0.00    +0.151 C 
BRANCH  10  11
ATOM     11  C   UNL     1       6.566  13.963  13.730  0.00  0.00    -0.028 A 
ATOM     12  C   UNL     1       5.998  14.331  14.959  0.00  0.00    +0.005 A 
ATOM     13  C   UNL     1       5.745  13.929  12.593  0.00  0.00    +0.005 A 
ATOM     14  C   UNL     1       4.647  14.679  15.041  0.00  0.00    +0.000 A 
ATOM     15  C   UNL     1       4.397  14.277  12.678  0.00  0.00    +0.000 A 
ATOM     16  C   UNL     1       3.849  14.654  13.902  0.00  0.00    +0.000 A 
ENDBRANCH  10  11
ENDBRANCH   1  10
TORSDOF 2
ENDMDL
MODEL 8
REMARK VINA RESULT:    -5.226     22.771     24.639
REMARK INTER + INTRA:          -5.944
REMARK INTER:                  -5.804
REMARK INTRA:                  -0.140
REMARK UNBOUND:                -0.107
REMARK  Name = 1550473
REMARK  2 active torsions:
REMARK  status: ('A' for Active; 'I' for Inactive)
REMARK    1  A    between atoms: N_1  and  C_4
REMARK    2  A    between atoms: C_4  and  C_5
REMARK                            x       y       z     vdW  Elec       q    Type
REMARK                         _______ _______ _______ _____ _____    ______ ____
ROOT
ATOM      1  N   UNL     1      -1.332  12.559  11.811  0.00  0.00    -0.354 N 
ATOM      2  N   UNL     1      -2.354  10.579  12.443  0.00  0.00    -0.372 N 
ATOM      3  N   UNL     1      -1.734  10.857  10.251  0.00  0.00    -0.372 N 
ATOM      4  C   UNL     1      -1.800  11.344  11.495  0.00  0.00    +0.166 C 
ATOM      5  H   UNL     1      -1.439  12.883  12.766  0.00  0.00    +0.163 HD
ATOM      6  H   UNL     1      -2.713   9.657  12.235  0.00  0.00    +0.159 HD
ATOM      7  H   UNL     1      -2.418  10.887  13.406  0.00  0.00    +0.159 HD
ATOM      8  H   UNL     1      -1.333  11.387   9.489  0.00  0.00    +0.159 HD
ATOM      9  H   UNL     1      -2.098   9.941  10.021  0.00  0.00    +0.159 HD
ENDROOT
BRANCH   1  10
ATOM     10  C   UNL     1      -0.662  13.449  10.865  0.00  0.00    +0.151 C 
BRANCH  10  11
ATOM     11  C   UNL     1       0.546  14.051  11.527  0.00  0.00    -0.028 A 
ATOM     12  C   UNL     1       0.973  13.592  12.782  0.00  0.00    +0.005 A 
ATOM     13  C   UNL     1       1.272  15.077  10.903  0.00  0.00    +0.005 A 
ATOM     14  C   UNL     1       2.112  14.131  13.385  0.00  0.00    +0.000 A 
ATOM     15  C   UNL     1       2.409  15.612  11.508  0.00  0.00    +0.000 A 
ATOM     16  C   UNL     1       2.830  15.137  12.748  0.00  0.00    +0.000 A 
ENDBRANCH  10  11
ENDBRANCH   1  10
TORSDOF 2
ENDMDL
MODEL 9
REMARK VINA RESULT:    -5.040     24.325     25.243
REMARK INTER + INTRA:          -5.736
REMARK INTER:                  -5.594
REMARK INTRA:                  -0.142
REMARK UNBOUND:                -0.107
REMARK  Name = 1550473
REMARK  2 active torsions:
REMARK  status: ('A' for Active; 'I' for Inactive)
REMARK    1  A    between atoms: N_1  and  C_4
REMARK    2  A    between atoms: C_4  and  C_5
REMARK                            x       y       z     vdW  Elec       q    Type
REMARK                         _______ _______ _______ _____ _____    ______ ____
ROOT
ATOM      1  N   UNL     1      -0.961  12.415  14.178  0.00  0.00    -0.354 N 
ATOM      2  N   UNL     1      -3.244  12.047  14.297  0.00  0.00    -0.372 N 
ATOM      3  N   UNL     1      -1.976  10.713  12.928  0.00  0.00    -0.372 N 
ATOM      4  C   UNL     1      -2.045  11.725  13.798  0.00  0.00    +0.166 C 
ATOM      5  H   UNL     1      -1.084  13.191  14.818  0.00  0.00    +0.163 HD
ATOM      6  H   UNL     1      -4.079  11.542  14.032  0.00  0.00    +0.159 HD
ATOM      7  H   UNL     1      -3.358  12.793  14.972  0.00  0.00    +0.159 HD
ATOM      8  H   UNL     1      -1.101  10.424  12.510  0.00  0.00    +0.159 HD
ATOM      9  H   UNL     1      -2.802  10.203  12.641  0.00  0.00    +0.159 HD
ENDROOT
BRANCH   1  10
ATOM     10  C   UNL     1       0.399  12.111  13.735  0.00  0.00    +0.151 C 
BRANCH  10  11
ATOM     11  C   UNL     1       0.900  13.240  12.878  0.00  0.00    -0.028 A 
ATOM     12  C   UNL     1       0.240  13.577  11.687  0.00  0.00    +0.005 A 
ATOM     13  C   UNL     1       2.031  13.981  13.254  0.00  0.00    +0.005 A 
ATOM     14  C   UNL     1       0.687  14.646  10.906  0.00  0.00    +0.000 A 
ATOM     15  C   UNL     1       2.475  15.046  12.470  0.00  0.00    +0.000 A 
ATOM     16  C   UNL     1       1.802  15.380  11.298  0.00  0.00    +0.000 A 
ENDBRANCH  10  11
ENDBRANCH   1  10
TORSDOF 2
ENDMDL
