MODEL 1
REMARK VINA RESULT:    -5.996      0.000      0.000
REMARK INTER + INTRA:          -6.873
REMARK INTER:                  -6.697
REMARK INTRA:                  -0.176
REMARK UNBOUND:                -0.176
REMARK  Name = 1550473
REMARK  2 active torsions:
REMARK  status: ('A' for Active; 'I' for Inactive)
REMARK    1  A    between atoms: N_1  and  C_4
REMARK    2  A    between atoms: C_4  and  C_5
REMARK                            x       y       z     vdW  Elec       q    Type
REMARK                         _______ _______ _______ _____ _____    ______ ____
ROOT
ATOM      1  N   UNL     1      -0.007 -10.046  -9.880  0.00  0.00    -0.354 N 
ATOM      2  N   UNL     1       1.786  -9.371  -8.578  0.00  0.00    -0.372 N 
ATOM      3  N   UNL     1       0.260 -10.836  -7.689  0.00  0.00    -0.372 N 
ATOM      4  C   UNL     1       0.666 -10.090  -8.722  0.00  0.00    +0.166 C 
ATOM      5  H   UNL     1       0.337  -9.438 -10.614  0.00  0.00    +0.163 HD
ATOM      6  H   UNL     1       2.317  -9.386  -7.718  0.00  0.00    +0.159 HD
ATOM      7  H   UNL     1       2.152  -8.799  -9.330  0.00  0.00    +0.159 HD
ATOM      8  H   UNL     1      -0.580 -11.397  -7.732  0.00  0.00    +0.159 HD
ATOM      9  H   UNL     1       0.771 -10.855  -6.816  0.00  0.00    +0.159 HD
ENDROOT
BRANCH   1  10
ATOM     10  C   UNL     1      -1.207 -10.833 -10.158  0.00  0.00    +0.151 C 
BRANCH  10  11
ATOM     11  C   UNL     1      -0.822 -12.052 -10.950  0.00  0.00    -0.028 A 
ATOM     12  C   UNL     1      -0.571 -13.271 -10.304  0.00  0.00    +0.005 A 
ATOM     13  C   UNL     1      -0.714 -11.996 -12.348  0.00  0.00    +0.005 A 
ATOM     14  C   UNL     1      -0.243 -14.411 -11.042  0.00  0.00    +0.000 A 
ATOM     15  C   UNL     1      -0.385 -13.136 -13.082  0.00  0.00    +0.000 A 
ATOM     16  C   UNL     1      -0.152 -14.344 -12.429  0.00  0.00    +0.000 A 
ENDBRANCH  10  11
ENDBRANCH   1  10
TORSDOF 2
ENDMDL
MODEL 2
REMARK VINA RESULT:    -5.873      3.697      4.500
REMARK INTER + INTRA:          -6.736
REMARK INTER:                  -6.611
REMARK INTRA:                  -0.124
REMARK UNBOUND:                -0.176
REMARK  Name = 1550473
REMARK  2 active torsions:
REMARK  status: ('A' for Active; 'I' for Inactive)
REMARK    1  A    between atoms: N_1  and  C_4
REMARK    2  A    between atoms: C_4  and  C_5
REMARK                            x       y       z     vdW  Elec       q    Type
REMARK                         _______ _______ _______ _____ _____    ______ ____
ROOT
ATOM      1  N   UNL     1       2.347  -9.915 -13.628  0.00  0.00    -0.354 N 
ATOM      2  N   UNL     1       4.474  -9.341 -14.343  0.00  0.00    -0.372 N 
ATOM      3  N   UNL     1       2.917  -9.989 -15.900  0.00  0.00    -0.372 N 
ATOM      4  C   UNL     1       3.231  -9.753 -14.621  0.00  0.00    +0.166 C 
ATOM      5  H   UNL     1       2.656  -9.749 -12.677  0.00  0.00    +0.163 HD
ATOM      6  H   UNL     1       5.161  -9.207 -15.072  0.00  0.00    +0.159 HD
ATOM      7  H   UNL     1       4.766  -9.132 -13.397  0.00  0.00    +0.159 HD
ATOM      8  H   UNL     1       1.998 -10.307 -16.175  0.00  0.00    +0.159 HD
ATOM      9  H   UNL     1       3.595  -9.871 -16.642  0.00  0.00    +0.159 HD
ENDROOT
BRANCH   1  10
ATOM     10  C   UNL     1       0.953 -10.308 -13.829  0.00  0.00    +0.151 C 
BRANCH  10  11
ATOM     11  C   UNL     1       0.725 -11.652 -13.195  0.00  0.00    -0.028 A 
ATOM     12  C   UNL     1      -0.390 -11.871 -12.373  0.00  0.00    +0.005 A 
ATOM     13  C   UNL     1       1.618 -12.712 -13.416  0.00  0.00    +0.005 A 
ATOM     14  C   UNL     1      -0.618 -13.128 -11.807  0.00  0.00    +0.000 A 
ATOM     15  C   UNL     1       1.386 -13.966 -12.849  0.00  0.00    +0.000 A 
ATOM     16  C   UNL     1       0.267 -14.174 -12.047  0.00  0.00    +0.000 A 
ENDBRANCH  10  11
ENDBRANCH   1  10
TORSDOF 2
ENDMDL
MODEL 3
REMARK VINA RESULT:    -5.852     10.208     11.838
REMARK INTER + INTRA:          -6.712
REMARK INTER:                  -6.573
REMARK INTRA:                  -0.139
REMARK UNBOUND:                -0.176
REMARK  Name = 1550473
REMARK  2 active torsions:
REMARK  status: ('A' for Active; 'I' for Inactive)
REMARK    1  A    between atoms: N_1  and  C_4
REMARK    2  A    between atoms: C_4  and  C_5
REMARK                            x       y       z     vdW  Elec       q    Type
REMARK                         _______ _______ _______ _____ _____    ______ ____
ROOT
ATOM      1  N   UNL     1       3.715  -6.207   0.119  0.00  0.00    -0.354 N 
ATOM      2  N   UNL     1       4.768  -7.504   1.723  0.00  0.00    -0.372 N 
ATOM      3  N   UNL     1       5.502  -5.358   1.375  0.00  0.00    -0.372 N 
ATOM      4  C   UNL     1       4.656  -6.346   1.062  0.00  0.00    +0.166 C 
ATOM      5  H   UNL     1       3.124  -7.003  -0.093  0.00  0.00    +0.163 HD
ATOM      6  H   UNL     1       5.466  -7.637   2.441  0.00  0.00    +0.159 HD
ATOM      7  H   UNL     1       4.146  -8.283   1.541  0.00  0.00    +0.159 HD
ATOM      8  H   UNL     1       5.474  -4.461   0.909  0.00  0.00    +0.159 HD
ATOM      9  H   UNL     1       6.216  -5.476   2.083  0.00  0.00    +0.159 HD
ENDROOT
BRANCH   1  10
ATOM     10  C   UNL     1       3.475  -4.969  -0.621  0.00  0.00    +0.151 C 
BRANCH  10  11
ATOM     11  C   UNL     1       3.602  -5.245  -2.094  0.00  0.00    -0.028 A 
ATOM     12  C   UNL     1       2.519  -5.766  -2.816  0.00  0.00    +0.005 A 
ATOM     13  C   UNL     1       4.801  -4.981  -2.774  0.00  0.00    +0.005 A 
ATOM     14  C   UNL     1       2.626  -5.994  -4.190  0.00  0.00    +0.000 A 
ATOM     15  C   UNL     1       4.904  -5.211  -4.146  0.00  0.00    +0.000 A 
ATOM     16  C   UNL     1       3.816  -5.716  -4.854  0.00  0.00    +0.000 A 
ENDBRANCH  10  11
ENDBRANCH   1  10
TORSDOF 2
ENDMDL
MODEL 4
REMARK VINA RESULT:    -5.740      3.618      4.781
REMARK INTER + INTRA:          -6.587
REMARK INTER:                  -6.449
REMARK INTRA:                  -0.138
REMARK UNBOUND:                -0.176
REMARK  Name = 1550473
REMARK  2 active torsions:
REMARK  status: ('A' for Active; 'I' for Inactive)
REMARK    1  A    between atoms: N_1  and  C_4
REMARK    2  A    between atoms: C_4  and  C_5
REMARK                            x       y       z     vdW  Elec       q    Type
REMARK                         _______ _______ _______ _____ _____    ______ ____
ROOT
ATOM      1  N   UNL     1       2.733 -10.681 -13.568  0.00  0.00    -0.354 N 
ATOM      2  N   UNL     1       4.132  -9.024 -14.380  0.00  0.00    -0.372 N 
ATOM      3  N   UNL     1       2.650 -10.027 -15.817  0.00  0.00    -0.372 N 
ATOM      4  C   UNL     1       3.161  -9.922 -14.585  0.00  0.00    +0.166 C 
ATOM      5  H   UNL     1       3.182 -10.575 -12.666  0.00  0.00    +0.163 HD
ATOM      6  H   UNL     1       4.474  -8.435 -15.127  0.00  0.00    +0.159 HD
ATOM      7  H   UNL     1       4.548  -8.888 -13.466  0.00  0.00    +0.159 HD
ATOM      8  H   UNL     1       1.920 -10.689 -16.039  0.00  0.00    +0.159 HD
ATOM      9  H   UNL     1       2.987  -9.454 -16.581  0.00  0.00    +0.159 HD
ENDROOT
BRANCH   1  10
ATOM     10  C   UNL     1       1.644 -11.651 -13.674  0.00  0.00    +0.151 C 
BRANCH  10  11
ATOM     11  C   UNL     1       0.760 -11.531 -12.463  0.00  0.00    -0.028 A 
ATOM     12  C   UNL     1       0.684 -10.324 -11.754  0.00  0.00    +0.005 A 
ATOM     13  C   UNL     1      -0.008 -12.620 -12.023  0.00  0.00    +0.005 A 
ATOM     14  C   UNL     1      -0.159 -10.203 -10.647  0.00  0.00    +0.000 A 
ATOM     15  C   UNL     1      -0.848 -12.496 -10.917  0.00  0.00    +0.000 A 
ATOM     16  C   UNL     1      -0.926 -11.286 -10.230  0.00  0.00    +0.000 A 
ENDBRANCH  10  11
ENDBRANCH   1  10
TORSDOF 2
ENDMDL
MODEL 5
REMARK VINA RESULT:    -5.617      9.894     11.466
REMARK INTER + INTRA:          -6.450
REMARK INTER:                  -6.302
REMARK INTRA:                  -0.148
REMARK UNBOUND:                -0.176
REMARK  Name = 1550473
REMARK  2 active torsions:
REMARK  status: ('A' for Active; 'I' for Inactive)
REMARK    1  A    between atoms: N_1  and  C_4
REMARK    2  A    between atoms: C_4  and  C_5
REMARK                            x       y       z     vdW  Elec       q    Type
REMARK                         _______ _______ _______ _____ _____    ______ ____
ROOT
ATOM      1  N   UNL     1       5.482  -6.314  -0.406  0.00  0.00    -0.354 N 
ATOM      2  N   UNL     1       5.556  -4.505   1.038  0.00  0.00    -0.372 N 
ATOM      3  N   UNL     1       4.380  -6.374   1.661  0.00  0.00    -0.372 N 
ATOM      4  C   UNL     1       5.137  -5.745   0.756  0.00  0.00    +0.166 C 
ATOM      5  H   UNL     1       6.033  -5.773  -1.063  0.00  0.00    +0.163 HD
ATOM      6  H   UNL     1       5.315  -4.051   1.909  0.00  0.00    +0.159 HD
ATOM      7  H   UNL     1       6.145  -3.984   0.400  0.00  0.00    +0.159 HD
ATOM      8  H   UNL     1       4.027  -7.309   1.507  0.00  0.00    +0.159 HD
ATOM      9  H   UNL     1       4.118  -5.932   2.533  0.00  0.00    +0.159 HD
ENDROOT
BRANCH   1  10
ATOM     10  C   UNL     1       5.123  -7.679  -0.786  0.00  0.00    +0.151 C 
BRANCH  10  11
ATOM     11  C   UNL     1       3.891  -7.641  -1.648  0.00  0.00    -0.028 A 
ATOM     12  C   UNL     1       3.665  -6.565  -2.520  0.00  0.00    +0.005 A 
ATOM     13  C   UNL     1       2.949  -8.680  -1.603  0.00  0.00    +0.005 A 
ATOM     14  C   UNL     1       2.536  -6.544  -3.342  0.00  0.00    +0.000 A 
ATOM     15  C   UNL     1       1.823  -8.654  -2.425  0.00  0.00    +0.000 A 
ATOM     16  C   UNL     1       1.618  -7.587  -3.297  0.00  0.00    +0.000 A 
ENDBRANCH  10  11
ENDBRANCH   1  10
TORSDOF 2
ENDMDL
MODEL 6
REMARK VINA RESULT:    -5.473      8.364      9.643
REMARK INTER + INTRA:          -6.289
REMARK INTER:                  -6.160
REMARK INTRA:                  -0.130
REMARK UNBOUND:                -0.176
REMARK  Name = 1550473
REMARK  2 active torsions:
REMARK  status: ('A' for Active; 'I' for Inactive)
REMARK    1  A    between atoms: N_1  and  C_4
REMARK    2  A    between atoms: C_4  and  C_5
REMARK                            x       y       z     vdW  Elec       q    Type
REMARK                         _______ _______ _______ _____ _____    ______ ____
ROOT
ATOM      1  N   UNL     1       3.273  -5.884  -4.591  0.00  0.00    -0.354 N 
ATOM      2  N   UNL     1       2.086  -5.742  -2.607  0.00  0.00    -0.372 N 
ATOM      3  N   UNL     1       1.057  -6.636  -4.453  0.00  0.00    -0.372 N 
ATOM      4  C   UNL     1       2.144  -6.089  -3.898  0.00  0.00    +0.166 C 
ATOM      5  H   UNL     1       4.052  -5.438  -4.120  0.00  0.00    +0.163 HD
ATOM      6  H   UNL     1       1.250  -5.888  -2.058  0.00  0.00    +0.159 HD
ATOM      7  H   UNL     1       2.881  -5.338  -2.127  0.00  0.00    +0.159 HD
ATOM      8  H   UNL     1       1.035  -6.915  -5.425  0.00  0.00    +0.159 HD
ATOM      9  H   UNL     1       0.207  -6.780  -3.923  0.00  0.00    +0.159 HD
ENDROOT
BRANCH   1  10
ATOM     10  C   UNL     1       3.458  -6.275  -5.987  0.00  0.00    +0.151 C 
BRANCH  10  11
ATOM     11  C   UNL     1       4.079  -5.131  -6.739  0.00  0.00    -0.028 A 
ATOM     12  C   UNL     1       4.997  -4.279  -6.108  0.00  0.00    +0.005 A 
ATOM     13  C   UNL     1       3.759  -4.898  -8.086  0.00  0.00    +0.005 A 
ATOM     14  C   UNL     1       5.598  -3.235  -6.816  0.00  0.00    +0.000 A 
ATOM     15  C   UNL     1       4.360  -3.853  -8.788  0.00  0.00    +0.000 A 
ATOM     16  C   UNL     1       5.281  -3.024  -8.153  0.00  0.00    +0.000 A 
ENDBRANCH  10  11
ENDBRANCH   1  10
TORSDOF 2
ENDMDL
MODEL 7
REMARK VINA RESULT:    -5.167     18.474     21.123
REMARK INTER + INTRA:          -5.947
REMARK INTER:                  -5.822
REMARK INTRA:                  -0.126
REMARK UNBOUND:                -0.176
REMARK  Name = 1550473
REMARK  2 active torsions:
REMARK  status: ('A' for Active; 'I' for Inactive)
REMARK    1  A    between atoms: N_1  and  C_4
REMARK    2  A    between atoms: C_4  and  C_5
REMARK                            x       y       z     vdW  Elec       q    Type
REMARK                         _______ _______ _______ _____ _____    ______ ____
ROOT
ATOM      1  N   UNL     1       1.804   7.213  -7.688  0.00  0.00    -0.354 N 
ATOM      2  N   UNL     1       3.014   6.305  -9.442  0.00  0.00    -0.372 N 
ATOM      3  N   UNL     1       2.602   5.011  -7.592  0.00  0.00    -0.372 N 
ATOM      4  C   UNL     1       2.465   6.180  -8.227  0.00  0.00    +0.166 C 
ATOM      5  H   UNL     1       1.761   8.082  -8.208  0.00  0.00    +0.163 HD
ATOM      6  H   UNL     1       3.516   5.542  -9.876  0.00  0.00    +0.159 HD
ATOM      7  H   UNL     1       2.930   7.160  -9.979  0.00  0.00    +0.159 HD
ATOM      8  H   UNL     1       2.217   4.855  -6.670  0.00  0.00    +0.159 HD
ATOM      9  H   UNL     1       3.111   4.240  -8.005  0.00  0.00    +0.159 HD
ENDROOT
BRANCH   1  10
ATOM     10  C   UNL     1       1.124   7.162  -6.394  0.00  0.00    +0.151 C 
BRANCH  10  11
ATOM     11  C   UNL     1       1.314   8.476  -5.689  0.00  0.00    -0.028 A 
ATOM     12  C   UNL     1       1.469   9.662  -6.421  0.00  0.00    +0.005 A 
ATOM     13  C   UNL     1       1.334   8.543  -4.287  0.00  0.00    +0.005 A 
ATOM     14  C   UNL     1       1.615  10.887  -5.766  0.00  0.00    +0.000 A 
ATOM     15  C   UNL     1       1.481   9.768  -3.636  0.00  0.00    +0.000 A 
ATOM     16  C   UNL     1       1.619  10.940  -4.376  0.00  0.00    +0.000 A 
ENDBRANCH  10  11
ENDBRANCH   1  10
TORSDOF 2
ENDMDL
MODEL 8
REMARK VINA RESULT:    -5.165      9.185     10.213
REMARK INTER + INTRA:          -5.945
REMARK INTER:                  -5.805
REMARK INTRA:                  -0.140
REMARK UNBOUND:                -0.176
REMARK  Name = 1550473
REMARK  2 active torsions:
REMARK  status: ('A' for Active; 'I' for Inactive)
REMARK    1  A    between atoms: N_1  and  C_4
REMARK    2  A    between atoms: C_4  and  C_5
REMARK                            x       y       z     vdW  Elec       q    Type
REMARK                         _______ _______ _______ _____ _____    ______ ____
ROOT
ATOM      1  N   UNL     1       3.282  -6.751  -4.283  0.00  0.00    -0.354 N 
ATOM      2  N   UNL     1       0.967  -6.679  -4.295  0.00  0.00    -0.372 N 
ATOM      3  N   UNL     1       2.100  -5.635  -2.595  0.00  0.00    -0.372 N 
ATOM      4  C   UNL     1       2.132  -6.354  -3.722  0.00  0.00    +0.166 C 
ATOM      5  H   UNL     1       3.237  -7.320  -5.121  0.00  0.00    +0.163 HD
ATOM      6  H   UNL     1       0.083  -6.391  -3.896  0.00  0.00    +0.159 HD
ATOM      7  H   UNL     1       0.927  -7.209  -5.157  0.00  0.00    +0.159 HD
ATOM      8  H   UNL     1       2.944  -5.362  -2.110  0.00  0.00    +0.159 HD
ATOM      9  H   UNL     1       1.225  -5.347  -2.174  0.00  0.00    +0.159 HD
ENDROOT
BRANCH   1  10
ATOM     10  C   UNL     1       4.605  -6.404  -3.768  0.00  0.00    +0.151 C 
BRANCH  10  11
ATOM     11  C   UNL     1       5.423  -5.806  -4.879  0.00  0.00    -0.028 A 
ATOM     12  C   UNL     1       5.093  -4.551  -5.411  0.00  0.00    +0.005 A 
ATOM     13  C   UNL     1       6.534  -6.487  -5.402  0.00  0.00    +0.005 A 
ATOM     14  C   UNL     1       5.870  -3.981  -6.422  0.00  0.00    +0.000 A 
ATOM     15  C   UNL     1       7.307  -5.915  -6.412  0.00  0.00    +0.000 A 
ATOM     16  C   UNL     1       6.976  -4.661  -6.920  0.00  0.00    +0.000 A 
ENDBRANCH  10  11
ENDBRANCH   1  10
TORSDOF 2
ENDMDL
MODEL 9
REMARK VINA RESULT:    -5.114     12.755     13.152
REMARK INTER + INTRA:          -5.888
REMARK INTER:                  -5.807
REMARK INTRA:                  -0.080
REMARK UNBOUND:                -0.176
REMARK  Name = 1550473
REMARK  2 active torsions:
REMARK  status: ('A' for Active; 'I' for Inactive)
REMARK    1  A    between atoms: N_1  and  C_4
REMARK    2  A    between atoms: C_4  and  C_5
REMARK                            x       y       z     vdW  Elec       q    Type
REMARK                         _______ _______ _______ _____ _____    ______ ____
ROOT
ATOM      1  N   UNL     1       4.952  -6.432  -0.214  0.00  0.00    -0.354 N 
ATOM      2  N   UNL     1       5.006  -4.117  -0.164  0.00  0.00    -0.372 N 
ATOM      3  N   UNL     1       5.518  -5.280   1.747  0.00  0.00    -0.372 N 
ATOM      4  C   UNL     1       5.159  -5.292   0.459  0.00  0.00    +0.166 C 
ATOM      5  H   UNL     1       4.652  -6.373  -1.180  0.00  0.00    +0.163 HD
ATOM      6  H   UNL     1       5.158  -3.241   0.317  0.00  0.00    +0.159 HD
ATOM      7  H   UNL     1       4.751  -4.062  -1.142  0.00  0.00    +0.159 HD
ATOM      8  H   UNL     1       5.644  -6.132   2.276  0.00  0.00    +0.159 HD
ATOM      9  H   UNL     1       5.663  -4.413   2.248  0.00  0.00    +0.159 HD
ENDROOT
BRANCH   1  10
ATOM     10  C   UNL     1       5.144  -7.764   0.357  0.00  0.00    +0.151 C 
BRANCH  10  11
ATOM     11  C   UNL     1       6.369  -8.388  -0.253  0.00  0.00    -0.028 A 
ATOM     12  C   UNL     1       7.218  -7.633  -1.076  0.00  0.00    +0.005 A 
ATOM     13  C   UNL     1       6.690  -9.732  -0.008  0.00  0.00    +0.005 A 
ATOM     14  C   UNL     1       8.372  -8.204  -1.618  0.00  0.00    +0.000 A 
ATOM     15  C   UNL     1       7.842 -10.298  -0.552  0.00  0.00    +0.000 A 
ATOM     16  C   UNL     1       8.685  -9.533  -1.355  0.00  0.00    +0.000 A 
ENDBRANCH  10  11
ENDBRANCH   1  10
TORSDOF 2
ENDMDL
