MODEL 1
REMARK VINA RESULT:    -5.249      0.000      0.000
REMARK INTER + INTRA:          -6.019
REMARK INTER:                  -5.863
REMARK INTRA:                  -0.156
REMARK UNBOUND:                -0.156
REMARK  Name = 1550473
REMARK  2 active torsions:
REMARK  status: ('A' for Active; 'I' for Inactive)
REMARK    1  A    between atoms: N_1  and  C_4
REMARK    2  A    between atoms: C_4  and  C_5
REMARK                            x       y       z     vdW  Elec       q    Type
REMARK                         _______ _______ _______ _____ _____    ______ ____
ROOT
ATOM      1  N   UNL     1      -2.235  -9.816  -7.647  0.00  0.00    -0.354 N 
ATOM      2  N   UNL     1      -4.351  -9.773  -6.707  0.00  0.00    -0.372 N 
ATOM      3  N   UNL     1      -2.527  -9.945  -5.326  0.00  0.00    -0.372 N 
ATOM      4  C   UNL     1      -3.022  -9.845  -6.564  0.00  0.00    +0.166 C 
ATOM      5  H   UNL     1      -2.674  -9.770  -8.560  0.00  0.00    +0.163 HD
ATOM      6  H   UNL     1      -4.971  -9.790  -5.908  0.00  0.00    +0.159 HD
ATOM      7  H   UNL     1      -4.785  -9.681  -7.618  0.00  0.00    +0.159 HD
ATOM      8  H   UNL     1      -1.533 -10.009  -5.150  0.00  0.00    +0.159 HD
ATOM      9  H   UNL     1      -3.131  -9.975  -4.514  0.00  0.00    +0.159 HD
ENDROOT
BRANCH   1  10
ATOM     10  C   UNL     1      -0.774  -9.834  -7.597  0.00  0.00    +0.151 C 
BRANCH  10  11
ATOM     11  C   UNL     1      -0.271 -11.022  -8.369  0.00  0.00    -0.028 A 
ATOM     12  C   UNL     1      -0.545 -12.326  -7.929  0.00  0.00    +0.005 A 
ATOM     13  C   UNL     1       0.475 -10.852  -9.545  0.00  0.00    +0.005 A 
ATOM     14  C   UNL     1      -0.104 -13.430  -8.663  0.00  0.00    +0.000 A 
ATOM     15  C   UNL     1       0.915 -11.957 -10.274  0.00  0.00    +0.000 A 
ATOM     16  C   UNL     1       0.623 -13.245  -9.834  0.00  0.00    +0.000 A 
ENDBRANCH  10  11
ENDBRANCH   1  10
TORSDOF 2
ENDMDL
MODEL 2
REMARK VINA RESULT:    -5.208     18.452     20.020
REMARK INTER + INTRA:          -5.972
REMARK INTER:                  -5.864
REMARK INTRA:                  -0.108
REMARK UNBOUND:                -0.156
REMARK  Name = 1550473
REMARK  2 active torsions:
REMARK  status: ('A' for Active; 'I' for Inactive)
REMARK    1  A    between atoms: N_1  and  C_4
REMARK    2  A    between atoms: C_4  and  C_5
REMARK                            x       y       z     vdW  Elec       q    Type
REMARK                         _______ _______ _______ _____ _____    ______ ____
ROOT
ATOM      1  N   UNL     1       6.344   2.657   4.943  0.00  0.00    -0.354 N 
ATOM      2  N   UNL     1       6.311   1.451   6.920  0.00  0.00    -0.372 N 
ATOM      3  N   UNL     1       7.561   3.372   6.814  0.00  0.00    -0.372 N 
ATOM      4  C   UNL     1       6.740   2.504   6.213  0.00  0.00    +0.166 C 
ATOM      5  H   UNL     1       5.745   1.948   4.536  0.00  0.00    +0.163 HD
ATOM      6  H   UNL     1       6.590   1.310   7.881  0.00  0.00    +0.159 HD
ATOM      7  H   UNL     1       5.676   0.768   6.525  0.00  0.00    +0.159 HD
ATOM      8  H   UNL     1       7.925   4.184   6.333  0.00  0.00    +0.159 HD
ATOM      9  H   UNL     1       7.861   3.243   7.771  0.00  0.00    +0.159 HD
ENDROOT
BRANCH   1  10
ATOM     10  C   UNL     1       6.711   3.797   4.104  0.00  0.00    +0.151 C 
BRANCH  10  11
ATOM     11  C   UNL     1       5.890   3.764   2.844  0.00  0.00    -0.028 A 
ATOM     12  C   UNL     1       5.352   4.945   2.314  0.00  0.00    +0.005 A 
ATOM     13  C   UNL     1       5.653   2.554   2.172  0.00  0.00    +0.005 A 
ATOM     14  C   UNL     1       4.615   4.919   1.127  0.00  0.00    +0.000 A 
ATOM     15  C   UNL     1       4.916   2.532   0.988  0.00  0.00    +0.000 A 
ATOM     16  C   UNL     1       4.399   3.715   0.465  0.00  0.00    +0.000 A 
ENDBRANCH  10  11
ENDBRANCH   1  10
TORSDOF 2
ENDMDL
MODEL 3
REMARK VINA RESULT:    -4.989     20.387     21.249
REMARK INTER + INTRA:          -5.728
REMARK INTER:                  -5.594
REMARK INTRA:                  -0.135
REMARK UNBOUND:                -0.156
REMARK  Name = 1550473
REMARK  2 active torsions:
REMARK  status: ('A' for Active; 'I' for Inactive)
REMARK    1  A    between atoms: N_1  and  C_4
REMARK    2  A    between atoms: C_4  and  C_5
REMARK                            x       y       z     vdW  Elec       q    Type
REMARK                         _______ _______ _______ _____ _____    ______ ____
ROOT
ATOM      1  N   UNL     1       6.851   2.948   4.853  0.00  0.00    -0.354 N 
ATOM      2  N   UNL     1       5.969   2.271   6.884  0.00  0.00    -0.372 N 
ATOM      3  N   UNL     1       8.052   3.233   6.845  0.00  0.00    -0.372 N 
ATOM      4  C   UNL     1       6.965   2.823   6.182  0.00  0.00    +0.166 C 
ATOM      5  H   UNL     1       6.015   2.589   4.406  0.00  0.00    +0.163 HD
ATOM      6  H   UNL     1       6.025   2.167   7.889  0.00  0.00    +0.159 HD
ATOM      7  H   UNL     1       5.115   1.956   6.441  0.00  0.00    +0.159 HD
ATOM      8  H   UNL     1       8.841   3.652   6.372  0.00  0.00    +0.159 HD
ATOM      9  H   UNL     1       8.132   3.127   7.848  0.00  0.00    +0.159 HD
ENDROOT
BRANCH   1  10
ATOM     10  C   UNL     1       7.856   3.583   4.002  0.00  0.00    +0.151 C 
BRANCH  10  11
ATOM     11  C   UNL     1       7.172   4.541   3.066  0.00  0.00    -0.028 A 
ATOM     12  C   UNL     1       5.826   4.358   2.717  0.00  0.00    +0.005 A 
ATOM     13  C   UNL     1       7.864   5.638   2.530  0.00  0.00    +0.005 A 
ATOM     14  C   UNL     1       5.182   5.265   1.872  0.00  0.00    +0.000 A 
ATOM     15  C   UNL     1       7.218   6.541   1.685  0.00  0.00    +0.000 A 
ATOM     16  C   UNL     1       5.877   6.356   1.359  0.00  0.00    +0.000 A 
ENDBRANCH  10  11
ENDBRANCH   1  10
TORSDOF 2
ENDMDL
MODEL 4
REMARK VINA RESULT:    -4.871     17.845     19.305
REMARK INTER + INTRA:          -5.596
REMARK INTER:                  -5.506
REMARK INTRA:                  -0.091
REMARK UNBOUND:                -0.156
REMARK  Name = 1550473
REMARK  2 active torsions:
REMARK  status: ('A' for Active; 'I' for Inactive)
REMARK    1  A    between atoms: N_1  and  C_4
REMARK    2  A    between atoms: C_4  and  C_5
REMARK                            x       y       z     vdW  Elec       q    Type
REMARK                         _______ _______ _______ _____ _____    ______ ____
ROOT
ATOM      1  N   UNL     1       3.999   4.305   1.136  0.00  0.00    -0.354 N 
ATOM      2  N   UNL     1       2.256   5.602   0.335  0.00  0.00    -0.372 N 
ATOM      3  N   UNL     1       2.858   3.716  -0.824  0.00  0.00    -0.372 N 
ATOM      4  C   UNL     1       3.049   4.531   0.219  0.00  0.00    +0.166 C 
ATOM      5  H   UNL     1       4.113   4.977   1.887  0.00  0.00    +0.163 HD
ATOM      6  H   UNL     1       1.528   5.797  -0.339  0.00  0.00    +0.159 HD
ATOM      7  H   UNL     1       2.341   6.247   1.112  0.00  0.00    +0.159 HD
ATOM      8  H   UNL     1       3.428   2.894  -0.972  0.00  0.00    +0.159 HD
ATOM      9  H   UNL     1       2.143   3.900  -1.516  0.00  0.00    +0.159 HD
ENDROOT
BRANCH   1  10
ATOM     10  C   UNL     1       4.881   3.139   1.131  0.00  0.00    +0.151 C 
BRANCH  10  11
ATOM     11  C   UNL     1       5.931   3.313   2.193  0.00  0.00    -0.028 A 
ATOM     12  C   UNL     1       5.684   2.906   3.512  0.00  0.00    +0.005 A 
ATOM     13  C   UNL     1       7.178   3.878   1.885  0.00  0.00    +0.005 A 
ATOM     14  C   UNL     1       6.671   3.039   4.492  0.00  0.00    +0.000 A 
ATOM     15  C   UNL     1       8.160   4.010   2.866  0.00  0.00    +0.000 A 
ATOM     16  C   UNL     1       7.907   3.589   4.169  0.00  0.00    +0.000 A 
ENDBRANCH  10  11
ENDBRANCH   1  10
TORSDOF 2
ENDMDL
MODEL 5
REMARK VINA RESULT:    -4.849     17.272     18.861
REMARK INTER + INTRA:          -5.572
REMARK INTER:                  -5.445
REMARK INTRA:                  -0.127
REMARK UNBOUND:                -0.156
REMARK  Name = 1550473
REMARK  2 active torsions:
REMARK  status: ('A' for Active; 'I' for Inactive)
REMARK    1  A    between atoms: N_1  and  C_4
REMARK    2  A    between atoms: C_4  and  C_5
REMARK                            x       y       z     vdW  Elec       q    Type
REMARK                         _______ _______ _______ _____ _____    ______ ____
ROOT
ATOM      1  N   UNL     1       5.417   3.049  -0.297  0.00  0.00    -0.354 N 
ATOM      2  N   UNL     1       6.190   2.542  -2.420  0.00  0.00    -0.372 N 
ATOM      3  N   UNL     1       5.719   0.826  -0.972  0.00  0.00    -0.372 N 
ATOM      4  C   UNL     1       5.770   2.140  -1.215  0.00  0.00    +0.166 C 
ATOM      5  H   UNL     1       5.508   4.031  -0.532  0.00  0.00    +0.163 HD
ATOM      6  H   UNL     1       6.460   1.878  -3.134  0.00  0.00    +0.159 HD
ATOM      7  H   UNL     1       6.236   3.522  -2.669  0.00  0.00    +0.159 HD
ATOM      8  H   UNL     1       5.417   0.457  -0.080  0.00  0.00    +0.159 HD
ATOM      9  H   UNL     1       5.996   0.146  -1.670  0.00  0.00    +0.159 HD
ENDROOT
BRANCH   1  10
ATOM     10  C   UNL     1       4.896   2.715   1.027  0.00  0.00    +0.151 C 
BRANCH  10  11
ATOM     11  C   UNL     1       5.936   3.045   2.062  0.00  0.00    -0.028 A 
ATOM     12  C   UNL     1       7.087   3.765   1.711  0.00  0.00    +0.005 A 
ATOM     13  C   UNL     1       5.773   2.645   3.398  0.00  0.00    +0.005 A 
ATOM     14  C   UNL     1       8.039   4.098   2.678  0.00  0.00    +0.000 A 
ATOM     15  C   UNL     1       6.727   2.978   4.360  0.00  0.00    +0.000 A 
ATOM     16  C   UNL     1       7.858   3.707   4.000  0.00  0.00    +0.000 A 
ENDBRANCH  10  11
ENDBRANCH   1  10
TORSDOF 2
ENDMDL
MODEL 6
REMARK VINA RESULT:    -4.827      7.802      9.175
REMARK INTER + INTRA:          -5.547
REMARK INTER:                  -5.410
REMARK INTRA:                  -0.137
REMARK UNBOUND:                -0.156
REMARK  Name = 1550473
REMARK  2 active torsions:
REMARK  status: ('A' for Active; 'I' for Inactive)
REMARK    1  A    between atoms: N_1  and  C_4
REMARK    2  A    between atoms: C_4  and  C_5
REMARK                            x       y       z     vdW  Elec       q    Type
REMARK                         _______ _______ _______ _____ _____    ______ ____
ROOT
ATOM      1  N   UNL     1       3.953  -4.252  -8.209  0.00  0.00    -0.354 N 
ATOM      2  N   UNL     1       5.150  -4.345  -6.228  0.00  0.00    -0.372 N 
ATOM      3  N   UNL     1       5.315  -2.467  -7.536  0.00  0.00    -0.372 N 
ATOM      4  C   UNL     1       4.799  -3.685  -7.338  0.00  0.00    +0.166 C 
ATOM      5  H   UNL     1       3.621  -5.190  -8.016  0.00  0.00    +0.163 HD
ATOM      6  H   UNL     1       5.784  -3.942  -5.551  0.00  0.00    +0.159 HD
ATOM      7  H   UNL     1       4.781  -5.264  -6.015  0.00  0.00    +0.159 HD
ATOM      8  H   UNL     1       5.094  -1.919  -8.357  0.00  0.00    +0.159 HD
ATOM      9  H   UNL     1       5.960  -2.051  -6.876  0.00  0.00    +0.159 HD
ENDROOT
BRANCH   1  10
ATOM     10  C   UNL     1       3.466  -3.596  -9.421  0.00  0.00    +0.151 C 
BRANCH  10  11
ATOM     11  C   UNL     1       1.962  -3.612  -9.418  0.00  0.00    -0.028 A 
ATOM     12  C   UNL     1       1.263  -4.710  -8.895  0.00  0.00    +0.005 A 
ATOM     13  C   UNL     1       1.231  -2.530  -9.930  0.00  0.00    +0.005 A 
ATOM     14  C   UNL     1      -0.133  -4.712  -8.865  0.00  0.00    +0.000 A 
ATOM     15  C   UNL     1      -0.164  -2.536  -9.898  0.00  0.00    +0.000 A 
ATOM     16  C   UNL     1      -0.845  -3.627  -9.363  0.00  0.00    +0.000 A 
ENDBRANCH  10  11
ENDBRANCH   1  10
TORSDOF 2
ENDMDL
MODEL 7
REMARK VINA RESULT:    -4.661      6.503      7.431
REMARK INTER + INTRA:          -5.362
REMARK INTER:                  -5.227
REMARK INTRA:                  -0.135
REMARK UNBOUND:                -0.156
REMARK  Name = 1550473
REMARK  2 active torsions:
REMARK  status: ('A' for Active; 'I' for Inactive)
REMARK    1  A    between atoms: N_1  and  C_4
REMARK    2  A    between atoms: C_4  and  C_5
REMARK                            x       y       z     vdW  Elec       q    Type
REMARK                         _______ _______ _______ _____ _____    ______ ____
ROOT
ATOM      1  N   UNL     1       0.159  -3.998 -10.380  0.00  0.00    -0.354 N 
ATOM      2  N   UNL     1      -1.554  -2.845  -9.331  0.00  0.00    -0.372 N 
ATOM      3  N   UNL     1       0.336  -1.701  -9.951  0.00  0.00    -0.372 N 
ATOM      4  C   UNL     1      -0.340  -2.854  -9.895  0.00  0.00    +0.166 C 
ATOM      5  H   UNL     1      -0.390  -4.844 -10.280  0.00  0.00    +0.163 HD
ATOM      6  H   UNL     1      -1.958  -1.996  -8.959  0.00  0.00    +0.159 HD
ATOM      7  H   UNL     1      -2.120  -3.683  -9.273  0.00  0.00    +0.159 HD
ATOM      8  H   UNL     1       1.260  -1.641 -10.359  0.00  0.00    +0.159 HD
ATOM      9  H   UNL     1      -0.047  -0.843  -9.574  0.00  0.00    +0.159 HD
ENDROOT
BRANCH   1  10
ATOM     10  C   UNL     1       1.448  -4.104 -11.061  0.00  0.00    +0.151 C 
BRANCH  10  11
ATOM     11  C   UNL     1       2.279  -5.156 -10.379  0.00  0.00    -0.028 A 
ATOM     12  C   UNL     1       2.147  -6.507 -10.731  0.00  0.00    +0.005 A 
ATOM     13  C   UNL     1       3.204  -4.807  -9.383  0.00  0.00    +0.005 A 
ATOM     14  C   UNL     1       2.940  -7.480 -10.119  0.00  0.00    +0.000 A 
ATOM     15  C   UNL     1       3.993  -5.782  -8.773  0.00  0.00    +0.000 A 
ATOM     16  C   UNL     1       3.863  -7.118  -9.143  0.00  0.00    +0.000 A 
ENDBRANCH  10  11
ENDBRANCH   1  10
TORSDOF 2
ENDMDL
MODEL 8
REMARK VINA RESULT:    -4.630      2.834      3.705
REMARK INTER + INTRA:          -5.326
REMARK INTER:                  -5.181
REMARK INTRA:                  -0.146
REMARK UNBOUND:                -0.156
REMARK  Name = 1550473
REMARK  2 active torsions:
REMARK  status: ('A' for Active; 'I' for Inactive)
REMARK    1  A    between atoms: N_1  and  C_4
REMARK    2  A    between atoms: C_4  and  C_5
REMARK                            x       y       z     vdW  Elec       q    Type
REMARK                         _______ _______ _______ _____ _____    ______ ____
ROOT
ATOM      1  N   UNL     1       1.027  -8.490  -7.026  0.00  0.00    -0.354 N 
ATOM      2  N   UNL     1       2.732  -7.030  -6.455  0.00  0.00    -0.372 N 
ATOM      3  N   UNL     1       2.182  -8.717  -5.000  0.00  0.00    -0.372 N 
ATOM      4  C   UNL     1       1.969  -8.090  -6.162  0.00  0.00    +0.166 C 
ATOM      5  H   UNL     1       0.895  -7.954  -7.876  0.00  0.00    +0.163 HD
ATOM      6  H   UNL     1       3.453  -6.707  -5.824  0.00  0.00    +0.159 HD
ATOM      7  H   UNL     1       2.628  -6.524  -7.326  0.00  0.00    +0.159 HD
ATOM      8  H   UNL     1       1.637  -9.520  -4.717  0.00  0.00    +0.159 HD
ATOM      9  H   UNL     1       2.891  -8.402  -4.350  0.00  0.00    +0.159 HD
ENDROOT
BRANCH   1  10
ATOM     10  C   UNL     1       0.179  -9.664  -6.827  0.00  0.00    +0.151 C 
BRANCH  10  11
ATOM     11  C   UNL     1       0.383 -10.617  -7.972  0.00  0.00    -0.028 A 
ATOM     12  C   UNL     1       0.807 -10.146  -9.223  0.00  0.00    +0.005 A 
ATOM     13  C   UNL     1       0.158 -11.993  -7.811  0.00  0.00    +0.005 A 
ATOM     14  C   UNL     1       1.025 -11.035 -10.279  0.00  0.00    +0.000 A 
ATOM     15  C   UNL     1       0.376 -12.877  -8.868  0.00  0.00    +0.000 A 
ATOM     16  C   UNL     1       0.812 -12.397 -10.101  0.00  0.00    +0.000 A 
ENDBRANCH  10  11
ENDBRANCH   1  10
TORSDOF 2
ENDMDL
MODEL 9
REMARK VINA RESULT:    -4.536     20.873     22.149
REMARK INTER + INTRA:          -5.222
REMARK INTER:                  -5.058
REMARK INTRA:                  -0.165
REMARK UNBOUND:                -0.156
REMARK  Name = 1550473
REMARK  2 active torsions:
REMARK  status: ('A' for Active; 'I' for Inactive)
REMARK    1  A    between atoms: N_1  and  C_4
REMARK    2  A    between atoms: C_4  and  C_5
REMARK                            x       y       z     vdW  Elec       q    Type
REMARK                         _______ _______ _______ _____ _____    ______ ____
ROOT
ATOM      1  N   UNL     1     -15.040  -3.596 -21.329  0.00  0.00    -0.354 N 
ATOM      2  N   UNL     1     -13.921  -5.368 -22.314  0.00  0.00    -0.372 N 
ATOM      3  N   UNL     1     -15.757  -4.490 -23.373  0.00  0.00    -0.372 N 
ATOM      4  C   UNL     1     -14.916  -4.473 -22.334  0.00  0.00    +0.166 C 
ATOM      5  H   UNL     1     -14.388  -3.655 -20.555  0.00  0.00    +0.163 HD
ATOM      6  H   UNL     1     -13.800  -6.040 -23.060  0.00  0.00    +0.159 HD
ATOM      7  H   UNL     1     -13.243  -5.395 -21.562  0.00  0.00    +0.159 HD
ATOM      8  H   UNL     1     -16.532  -3.844 -23.445  0.00  0.00    +0.159 HD
ATOM      9  H   UNL     1     -15.659  -5.162 -24.124  0.00  0.00    +0.159 HD
ENDROOT
BRANCH   1  10
ATOM     10  C   UNL     1     -16.056  -2.546 -21.281  0.00  0.00    +0.151 C 
BRANCH  10  11
ATOM     11  C   UNL     1     -17.253  -3.054 -20.527  0.00  0.00    -0.028 A 
ATOM     12  C   UNL     1     -18.485  -3.221 -21.176  0.00  0.00    +0.005 A 
ATOM     13  C   UNL     1     -17.161  -3.376 -19.164  0.00  0.00    +0.005 A 
ATOM     14  C   UNL     1     -19.590  -3.722 -20.483  0.00  0.00    +0.000 A 
ATOM     15  C   UNL     1     -18.266  -3.875 -18.475  0.00  0.00    +0.000 A 
ATOM     16  C   UNL     1     -19.480  -4.050 -19.136  0.00  0.00    +0.000 A 
ENDBRANCH  10  11
ENDBRANCH   1  10
TORSDOF 2
ENDMDL
