MODEL 1
REMARK VINA RESULT:    -6.084      0.000      0.000
REMARK INTER + INTRA:          -6.940
REMARK INTER:                  -6.796
REMARK INTRA:                  -0.145
REMARK UNBOUND:                -0.145
REMARK  Name = 1550473
REMARK  2 active torsions:
REMARK  status: ('A' for Active; 'I' for Inactive)
REMARK    1  A    between atoms: N_1  and  C_4
REMARK    2  A    between atoms: C_4  and  C_5
REMARK                            x       y       z     vdW  Elec       q    Type
REMARK                         _______ _______ _______ _____ _____    ______ ____
ROOT
ATOM      1  N   UNL     1      10.460   2.759  11.600  0.00  0.00    -0.354 N 
ATOM      2  N   UNL     1       9.198   2.634   9.662  0.00  0.00    -0.372 N 
ATOM      3  N   UNL     1      11.487   2.652   9.496  0.00  0.00    -0.372 N 
ATOM      4  C   UNL     1      10.393   2.683  10.264  0.00  0.00    +0.166 C 
ATOM      5  H   UNL     1       9.594   2.809  12.123  0.00  0.00    +0.163 HD
ATOM      6  H   UNL     1       9.116   2.572   8.656  0.00  0.00    +0.159 HD
ATOM      7  H   UNL     1       8.335   2.637  10.190  0.00  0.00    +0.159 HD
ATOM      8  H   UNL     1      12.418   2.692   9.888  0.00  0.00    +0.159 HD
ATOM      9  H   UNL     1      11.425   2.603   8.486  0.00  0.00    +0.159 HD
ENDROOT
BRANCH   1  10
ATOM     10  C   UNL     1      11.711   2.763  12.356  0.00  0.00    +0.151 C 
BRANCH  10  11
ATOM     11  C   UNL     1      11.708   3.931  13.303  0.00  0.00    -0.028 A 
ATOM     12  C   UNL     1      11.390   5.218  12.845  0.00  0.00    +0.005 A 
ATOM     13  C   UNL     1      12.018   3.757  14.661  0.00  0.00    +0.005 A 
ATOM     14  C   UNL     1      11.358   6.299  13.730  0.00  0.00    +0.000 A 
ATOM     15  C   UNL     1      11.985   4.838  15.541  0.00  0.00    +0.000 A 
ATOM     16  C   UNL     1      11.653   6.108  15.076  0.00  0.00    +0.000 A 
ENDBRANCH  10  11
ENDBRANCH   1  10
TORSDOF 2
ENDMDL
MODEL 2
REMARK VINA RESULT:    -4.836     28.870     29.804
REMARK INTER + INTRA:          -5.546
REMARK INTER:                  -5.401
REMARK INTRA:                  -0.146
REMARK UNBOUND:                -0.145
REMARK  Name = 1550473
REMARK  2 active torsions:
REMARK  status: ('A' for Active; 'I' for Inactive)
REMARK    1  A    between atoms: N_1  and  C_4
REMARK    2  A    between atoms: C_4  and  C_5
REMARK                            x       y       z     vdW  Elec       q    Type
REMARK                         _______ _______ _______ _____ _____    ______ ____
ROOT
ATOM      1  N   UNL     1     -16.861  -1.948   3.376  0.00  0.00    -0.354 N 
ATOM      2  N   UNL     1     -17.898  -3.079   1.642  0.00  0.00    -0.372 N 
ATOM      3  N   UNL     1     -18.815  -1.113   2.389  0.00  0.00    -0.372 N 
ATOM      4  C   UNL     1     -17.853  -2.037   2.481  0.00  0.00    +0.166 C 
ATOM      5  H   UNL     1     -16.179  -2.696   3.416  0.00  0.00    +0.163 HD
ATOM      6  H   UNL     1     -18.632  -3.172   0.953  0.00  0.00    +0.159 HD
ATOM      7  H   UNL     1     -17.189  -3.803   1.653  0.00  0.00    +0.159 HD
ATOM      8  H   UNL     1     -18.842  -0.306   2.997  0.00  0.00    +0.159 HD
ATOM      9  H   UNL     1     -19.565  -1.195   1.714  0.00  0.00    +0.159 HD
ENDROOT
BRANCH   1  10
ATOM     10  C   UNL     1     -16.691  -0.826   4.299  0.00  0.00    +0.151 C 
BRANCH  10  11
ATOM     11  C   UNL     1     -16.560  -1.358   5.699  0.00  0.00    -0.028 A 
ATOM     12  C   UNL     1     -16.466  -2.738   5.931  0.00  0.00    +0.005 A 
ATOM     13  C   UNL     1     -16.523  -0.487   6.799  0.00  0.00    +0.005 A 
ATOM     14  C   UNL     1     -16.315  -3.231   7.230  0.00  0.00    +0.000 A 
ATOM     15  C   UNL     1     -16.373  -0.983   8.094  0.00  0.00    +0.000 A 
ATOM     16  C   UNL     1     -16.266  -2.354   8.308  0.00  0.00    +0.000 A 
ENDBRANCH  10  11
ENDBRANCH   1  10
TORSDOF 2
ENDMDL
MODEL 3
REMARK VINA RESULT:    -4.541     23.636     24.626
REMARK INTER + INTRA:          -5.216
REMARK INTER:                  -5.080
REMARK INTRA:                  -0.136
REMARK UNBOUND:                -0.145
REMARK  Name = 1550473
REMARK  2 active torsions:
REMARK  status: ('A' for Active; 'I' for Inactive)
REMARK    1  A    between atoms: N_1  and  C_4
REMARK    2  A    between atoms: C_4  and  C_5
REMARK                            x       y       z     vdW  Elec       q    Type
REMARK                         _______ _______ _______ _____ _____    ______ ____
ROOT
ATOM      1  N   UNL     1      -1.294  13.741  -5.337  0.00  0.00    -0.354 N 
ATOM      2  N   UNL     1       0.824  14.559  -4.878  0.00  0.00    -0.372 N 
ATOM      3  N   UNL     1      -0.558  15.767  -6.255  0.00  0.00    -0.372 N 
ATOM      4  C   UNL     1      -0.358  14.685  -5.495  0.00  0.00    +0.166 C 
ATOM      5  H   UNL     1      -1.069  12.930  -4.771  0.00  0.00    +0.163 HD
ATOM      6  H   UNL     1       1.548  15.257  -4.976  0.00  0.00    +0.159 HD
ATOM      7  H   UNL     1       1.029  13.770  -4.277  0.00  0.00    +0.159 HD
ATOM      8  H   UNL     1      -1.425  15.919  -6.752  0.00  0.00    +0.159 HD
ATOM      9  H   UNL     1       0.159  16.471  -6.374  0.00  0.00    +0.159 HD
ENDROOT
BRANCH   1  10
ATOM     10  C   UNL     1      -2.632  13.810  -5.921  0.00  0.00    +0.151 C 
BRANCH  10  11
ATOM     11  C   UNL     1      -3.640  13.374  -4.894  0.00  0.00    -0.028 A 
ATOM     12  C   UNL     1      -3.452  13.679  -3.538  0.00  0.00    +0.005 A 
ATOM     13  C   UNL     1      -4.788  12.660  -5.271  0.00  0.00    +0.005 A 
ATOM     14  C   UNL     1      -4.403  13.301  -2.587  0.00  0.00    +0.000 A 
ATOM     15  C   UNL     1      -5.734  12.283  -4.318  0.00  0.00    +0.000 A 
ATOM     16  C   UNL     1      -5.543  12.606  -2.977  0.00  0.00    +0.000 A 
ENDBRANCH  10  11
ENDBRANCH   1  10
TORSDOF 2
ENDMDL
MODEL 4
REMARK VINA RESULT:    -4.518     23.563     25.328
REMARK INTER + INTRA:          -5.191
REMARK INTER:                  -5.081
REMARK INTRA:                  -0.110
REMARK UNBOUND:                -0.145
REMARK  Name = 1550473
REMARK  2 active torsions:
REMARK  status: ('A' for Active; 'I' for Inactive)
REMARK    1  A    between atoms: N_1  and  C_4
REMARK    2  A    between atoms: C_4  and  C_5
REMARK                            x       y       z     vdW  Elec       q    Type
REMARK                         _______ _______ _______ _____ _____    ______ ____
ROOT
ATOM      1  N   UNL     1      -1.604  13.674  -5.281  0.00  0.00    -0.354 N 
ATOM      2  N   UNL     1       0.148  14.399  -3.952  0.00  0.00    -0.372 N 
ATOM      3  N   UNL     1      -0.293  15.511  -5.910  0.00  0.00    -0.372 N 
ATOM      4  C   UNL     1      -0.594  14.525  -5.059  0.00  0.00    +0.166 C 
ATOM      5  H   UNL     1      -1.763  12.929  -4.612  0.00  0.00    +0.163 HD
ATOM      6  H   UNL     1       0.914  15.029  -3.755  0.00  0.00    +0.159 HD
ATOM      7  H   UNL     1      -0.042  13.683  -3.262  0.00  0.00    +0.159 HD
ATOM      8  H   UNL     1      -0.810  15.656  -6.767  0.00  0.00    +0.159 HD
ATOM      9  H   UNL     1       0.478  16.144  -5.737  0.00  0.00    +0.159 HD
ENDROOT
BRANCH   1  10
ATOM     10  C   UNL     1      -2.506  13.757  -6.429  0.00  0.00    +0.151 C 
BRANCH  10  11
ATOM     11  C   UNL     1      -3.725  12.918  -6.158  0.00  0.00    -0.028 A 
ATOM     12  C   UNL     1      -4.128  11.933  -7.071  0.00  0.00    +0.005 A 
ATOM     13  C   UNL     1      -4.477  13.100  -4.987  0.00  0.00    +0.005 A 
ATOM     14  C   UNL     1      -5.242  11.133  -6.806  0.00  0.00    +0.000 A 
ATOM     15  C   UNL     1      -5.589  12.300  -4.726  0.00  0.00    +0.000 A 
ATOM     16  C   UNL     1      -5.970  11.315  -5.635  0.00  0.00    +0.000 A 
ENDBRANCH  10  11
ENDBRANCH   1  10
TORSDOF 2
ENDMDL
MODEL 5
REMARK VINA RESULT:    -4.385     23.688     25.574
REMARK INTER + INTRA:          -5.042
REMARK INTER:                  -4.910
REMARK INTRA:                  -0.132
REMARK UNBOUND:                -0.145
REMARK  Name = 1550473
REMARK  2 active torsions:
REMARK  status: ('A' for Active; 'I' for Inactive)
REMARK    1  A    between atoms: N_1  and  C_4
REMARK    2  A    between atoms: C_4  and  C_5
REMARK                            x       y       z     vdW  Elec       q    Type
REMARK                         _______ _______ _______ _____ _____    ______ ____
ROOT
ATOM      1  N   UNL     1      -1.786  15.030  -4.632  0.00  0.00    -0.354 N 
ATOM      2  N   UNL     1      -0.242  16.756  -4.669  0.00  0.00    -0.372 N 
ATOM      3  N   UNL     1       0.515  14.590  -4.631  0.00  0.00    -0.372 N 
ATOM      4  C   UNL     1      -0.513  15.445  -4.644  0.00  0.00    +0.166 C 
ATOM      5  H   UNL     1      -2.520  15.729  -4.612  0.00  0.00    +0.163 HD
ATOM      6  H   UNL     1       0.709  17.099  -4.682  0.00  0.00    +0.159 HD
ATOM      7  H   UNL     1      -0.978  17.451  -4.695  0.00  0.00    +0.159 HD
ATOM      8  H   UNL     1       0.379  13.589  -4.606  0.00  0.00    +0.159 HD
ATOM      9  H   UNL     1       1.474  14.915  -4.632  0.00  0.00    +0.159 HD
ENDROOT
BRANCH   1  10
ATOM     10  C   UNL     1      -2.189  13.625  -4.658  0.00  0.00    +0.151 C 
BRANCH  10  11
ATOM     11  C   UNL     1      -2.954  13.357  -5.924  0.00  0.00    -0.028 A 
ATOM     12  C   UNL     1      -4.216  12.747  -5.878  0.00  0.00    +0.005 A 
ATOM     13  C   UNL     1      -2.426  13.716  -7.174  0.00  0.00    +0.005 A 
ATOM     14  C   UNL     1      -4.941  12.525  -7.051  0.00  0.00    +0.000 A 
ATOM     15  C   UNL     1      -3.152  13.492  -8.343  0.00  0.00    +0.000 A 
ATOM     16  C   UNL     1      -4.410  12.898  -8.281  0.00  0.00    +0.000 A 
ENDBRANCH  10  11
ENDBRANCH   1  10
TORSDOF 2
ENDMDL
MODEL 6
REMARK VINA RESULT:    -4.337     30.699     32.363
REMARK INTER + INTRA:          -4.988
REMARK INTER:                  -4.854
REMARK INTRA:                  -0.135
REMARK UNBOUND:                -0.145
REMARK  Name = 1550473
REMARK  2 active torsions:
REMARK  status: ('A' for Active; 'I' for Inactive)
REMARK    1  A    between atoms: N_1  and  C_4
REMARK    2  A    between atoms: C_4  and  C_5
REMARK                            x       y       z     vdW  Elec       q    Type
REMARK                         _______ _______ _______ _____ _____    ______ ____
ROOT
ATOM      1  N   UNL     1     -14.319 -11.225  -3.946  0.00  0.00    -0.354 N 
ATOM      2  N   UNL     1     -16.532 -10.755  -4.441  0.00  0.00    -0.372 N 
ATOM      3  N   UNL     1     -14.881  -9.725  -5.656  0.00  0.00    -0.372 N 
ATOM      4  C   UNL     1     -15.228 -10.570  -4.679  0.00  0.00    +0.166 C 
ATOM      5  H   UNL     1     -14.646 -11.829  -3.200  0.00  0.00    +0.163 HD
ATOM      6  H   UNL     1     -17.241 -10.277  -4.980  0.00  0.00    +0.159 HD
ATOM      7  H   UNL     1     -16.857 -11.394  -3.725  0.00  0.00    +0.159 HD
ATOM      8  H   UNL     1     -13.913  -9.537  -5.882  0.00  0.00    +0.159 HD
ATOM      9  H   UNL     1     -15.576  -9.228  -6.199  0.00  0.00    +0.159 HD
ENDROOT
BRANCH   1  10
ATOM     10  C   UNL     1     -12.876 -11.135  -4.161  0.00  0.00    +0.151 C 
BRANCH  10  11
ATOM     11  C   UNL     1     -12.200 -10.853  -2.847  0.00  0.00    -0.028 A 
ATOM     12  C   UNL     1     -11.497 -11.864  -2.176  0.00  0.00    +0.005 A 
ATOM     13  C   UNL     1     -12.254  -9.574  -2.271  0.00  0.00    +0.005 A 
ATOM     14  C   UNL     1     -10.844 -11.594  -0.971  0.00  0.00    +0.000 A 
ATOM     15  C   UNL     1     -11.602  -9.309  -1.068  0.00  0.00    +0.000 A 
ATOM     16  C   UNL     1     -10.895 -10.319  -0.419  0.00  0.00    +0.000 A 
ENDBRANCH  10  11
ENDBRANCH   1  10
TORSDOF 2
ENDMDL
MODEL 7
REMARK VINA RESULT:    -4.289     28.031     29.905
REMARK INTER + INTRA:          -4.936
REMARK INTER:                  -4.803
REMARK INTRA:                  -0.132
REMARK UNBOUND:                -0.145
REMARK  Name = 1550473
REMARK  2 active torsions:
REMARK  status: ('A' for Active; 'I' for Inactive)
REMARK    1  A    between atoms: N_1  and  C_4
REMARK    2  A    between atoms: C_4  and  C_5
REMARK                            x       y       z     vdW  Elec       q    Type
REMARK                         _______ _______ _______ _____ _____    ______ ____
ROOT
ATOM      1  N   UNL     1     -16.948  -0.037   7.764  0.00  0.00    -0.354 N 
ATOM      2  N   UNL     1     -17.104  -0.289  10.061  0.00  0.00    -0.372 N 
ATOM      3  N   UNL     1     -15.179  -0.949   9.001  0.00  0.00    -0.372 N 
ATOM      4  C   UNL     1     -16.407  -0.424   8.927  0.00  0.00    +0.166 C 
ATOM      5  H   UNL     1     -17.895   0.325   7.771  0.00  0.00    +0.163 HD
ATOM      6  H   UNL     1     -16.720  -0.569  10.954  0.00  0.00    +0.159 HD
ATOM      7  H   UNL     1     -18.032   0.116  10.071  0.00  0.00    +0.159 HD
ATOM      8  H   UNL     1     -14.603  -1.083   8.181  0.00  0.00    +0.159 HD
ATOM      9  H   UNL     1     -14.782  -1.246   9.884  0.00  0.00    +0.159 HD
ENDROOT
BRANCH   1  10
ATOM     10  C   UNL     1     -16.252  -0.092   6.480  0.00  0.00    +0.151 C 
BRANCH  10  11
ATOM     11  C   UNL     1     -17.054  -0.930   5.523  0.00  0.00    -0.028 A 
ATOM     12  C   UNL     1     -18.132  -1.701   5.982  0.00  0.00    +0.005 A 
ATOM     13  C   UNL     1     -16.744  -0.953   4.154  0.00  0.00    +0.005 A 
ATOM     14  C   UNL     1     -18.896  -2.457   5.089  0.00  0.00    +0.000 A 
ATOM     15  C   UNL     1     -17.509  -1.709   3.265  0.00  0.00    +0.000 A 
ATOM     16  C   UNL     1     -18.586  -2.459   3.733  0.00  0.00    +0.000 A 
ENDBRANCH  10  11
ENDBRANCH   1  10
TORSDOF 2
ENDMDL
MODEL 8
REMARK VINA RESULT:    -4.251     27.339     29.387
REMARK INTER + INTRA:          -4.893
REMARK INTER:                  -4.726
REMARK INTRA:                  -0.167
REMARK UNBOUND:                -0.145
REMARK  Name = 1550473
REMARK  2 active torsions:
REMARK  status: ('A' for Active; 'I' for Inactive)
REMARK    1  A    between atoms: N_1  and  C_4
REMARK    2  A    between atoms: C_4  and  C_5
REMARK                            x       y       z     vdW  Elec       q    Type
REMARK                         _______ _______ _______ _____ _____    ______ ____
ROOT
ATOM      1  N   UNL     1     -16.239   0.926   7.122  0.00  0.00    -0.354 N 
ATOM      2  N   UNL     1     -14.224   1.968   7.590  0.00  0.00    -0.372 N 
ATOM      3  N   UNL     1     -15.488   2.734   5.835  0.00  0.00    -0.372 N 
ATOM      4  C   UNL     1     -15.331   1.871   6.844  0.00  0.00    +0.166 C 
ATOM      5  H   UNL     1     -16.047   0.282   7.882  0.00  0.00    +0.163 HD
ATOM      6  H   UNL     1     -13.523   2.673   7.406  0.00  0.00    +0.159 HD
ATOM      7  H   UNL     1     -14.056   1.353   8.377  0.00  0.00    +0.159 HD
ATOM      8  H   UNL     1     -16.298   2.710   5.231  0.00  0.00    +0.159 HD
ATOM      9  H   UNL     1     -14.792   3.439   5.627  0.00  0.00    +0.159 HD
ENDROOT
BRANCH   1  10
ATOM     10  C   UNL     1     -17.503   0.770   6.405  0.00  0.00    +0.151 C 
BRANCH  10  11
ATOM     11  C   UNL     1     -17.399  -0.410   5.478  0.00  0.00    -0.028 A 
ATOM     12  C   UNL     1     -16.877  -1.630   5.934  0.00  0.00    +0.005 A 
ATOM     13  C   UNL     1     -17.827  -0.317   4.145  0.00  0.00    +0.005 A 
ATOM     14  C   UNL     1     -16.808  -2.735   5.082  0.00  0.00    +0.000 A 
ATOM     15  C   UNL     1     -17.756  -1.423   3.298  0.00  0.00    +0.000 A 
ATOM     16  C   UNL     1     -17.249  -2.632   3.767  0.00  0.00    +0.000 A 
ENDBRANCH  10  11
ENDBRANCH   1  10
TORSDOF 2
ENDMDL
MODEL 9
REMARK VINA RESULT:    -4.191     41.553     42.688
REMARK INTER + INTRA:          -4.826
REMARK INTER:                  -4.701
REMARK INTRA:                  -0.125
REMARK UNBOUND:                -0.145
REMARK  Name = 1550473
REMARK  2 active torsions:
REMARK  status: ('A' for Active; 'I' for Inactive)
REMARK    1  A    between atoms: N_1  and  C_4
REMARK    2  A    between atoms: C_4  and  C_5
REMARK                            x       y       z     vdW  Elec       q    Type
REMARK                         _______ _______ _______ _____ _____    ______ ____
ROOT
ATOM      1  N   UNL     1     -16.142  -6.549 -19.575  0.00  0.00    -0.354 N 
ATOM      2  N   UNL     1     -17.512  -5.010 -20.633  0.00  0.00    -0.372 N 
ATOM      3  N   UNL     1     -15.247  -4.643 -20.603  0.00  0.00    -0.372 N 
ATOM      4  C   UNL     1     -16.289  -5.409 -20.264  0.00  0.00    +0.166 C 
ATOM      5  H   UNL     1     -16.975  -7.069 -19.322  0.00  0.00    +0.163 HD
ATOM      6  H   UNL     1     -17.653  -4.156 -21.157  0.00  0.00    +0.159 HD
ATOM      7  H   UNL     1     -18.338  -5.555 -20.419  0.00  0.00    +0.159 HD
ATOM      8  H   UNL     1     -14.298  -4.885 -20.349  0.00  0.00    +0.159 HD
ATOM      9  H   UNL     1     -15.369  -3.779 -21.117  0.00  0.00    +0.159 HD
ENDROOT
BRANCH   1  10
ATOM     10  C   UNL     1     -14.850  -7.100 -19.171  0.00  0.00    +0.151 C 
BRANCH  10  11
ATOM     11  C   UNL     1     -15.063  -8.086 -18.056  0.00  0.00    -0.028 A 
ATOM     12  C   UNL     1     -16.358  -8.493 -17.704  0.00  0.00    +0.005 A 
ATOM     13  C   UNL     1     -13.974  -8.622 -17.352  0.00  0.00    +0.005 A 
ATOM     14  C   UNL     1     -16.555  -9.433 -16.688  0.00  0.00    +0.000 A 
ATOM     15  C   UNL     1     -14.174  -9.559 -16.339  0.00  0.00    +0.000 A 
ATOM     16  C   UNL     1     -15.465  -9.966 -16.009  0.00  0.00    +0.000 A 
ENDBRANCH  10  11
ENDBRANCH   1  10
TORSDOF 2
ENDMDL
