MODEL 1
REMARK VINA RESULT:    -4.805      0.000      0.000
REMARK INTER + INTRA:          -5.466
REMARK INTER:                  -5.367
REMARK INTRA:                  -0.099
REMARK UNBOUND:                -0.099
REMARK  Name = 1550473
REMARK  2 active torsions:
REMARK  status: ('A' for Active; 'I' for Inactive)
REMARK    1  A    between atoms: N_1  and  C_4
REMARK    2  A    between atoms: C_4  and  C_5
REMARK                            x       y       z     vdW  Elec       q    Type
REMARK                         _______ _______ _______ _____ _____    ______ ____
ROOT
ATOM      1  N   UNL     1      -4.292 -11.638  -8.787  0.00  0.00    -0.354 N 
ATOM      2  N   UNL     1      -4.363 -10.517 -10.812  0.00  0.00    -0.372 N 
ATOM      3  N   UNL     1      -3.995  -9.316  -8.892  0.00  0.00    -0.372 N 
ATOM      4  C   UNL     1      -4.216 -10.496  -9.482  0.00  0.00    +0.166 C 
ATOM      5  H   UNL     1      -4.492 -12.495  -9.290  0.00  0.00    +0.163 HD
ATOM      6  H   UNL     1      -4.307  -9.671 -11.363  0.00  0.00    +0.159 HD
ATOM      7  H   UNL     1      -4.517 -11.381 -11.317  0.00  0.00    +0.159 HD
ATOM      8  H   UNL     1      -3.881  -9.232  -7.890  0.00  0.00    +0.159 HD
ATOM      9  H   UNL     1      -3.948  -8.457  -9.425  0.00  0.00    +0.159 HD
ENDROOT
BRANCH   1  10
ATOM     10  C   UNL     1      -4.093 -11.732  -7.342  0.00  0.00    +0.151 C 
BRANCH  10  11
ATOM     11  C   UNL     1      -3.612 -13.115  -7.000  0.00  0.00    -0.028 A 
ATOM     12  C   UNL     1      -2.353 -13.307  -6.414  0.00  0.00    +0.005 A 
ATOM     13  C   UNL     1      -4.414 -14.238  -7.255  0.00  0.00    +0.005 A 
ATOM     14  C   UNL     1      -1.918 -14.589  -6.069  0.00  0.00    +0.000 A 
ATOM     15  C   UNL     1      -3.977 -15.517  -6.910  0.00  0.00    +0.000 A 
ATOM     16  C   UNL     1      -2.730 -15.691  -6.315  0.00  0.00    +0.000 A 
ENDBRANCH  10  11
ENDBRANCH   1  10
TORSDOF 2
ENDMDL
MODEL 2
REMARK VINA RESULT:    -4.548      2.433      5.904
REMARK INTER + INTRA:          -5.179
REMARK INTER:                  -5.080
REMARK INTRA:                  -0.099
REMARK UNBOUND:                -0.099
REMARK  Name = 1550473
REMARK  2 active torsions:
REMARK  status: ('A' for Active; 'I' for Inactive)
REMARK    1  A    between atoms: N_1  and  C_4
REMARK    2  A    between atoms: C_4  and  C_5
REMARK                            x       y       z     vdW  Elec       q    Type
REMARK                         _______ _______ _______ _____ _____    ______ ____
ROOT
ATOM      1  N   UNL     1      -3.764 -11.444  -8.857  0.00  0.00    -0.354 N 
ATOM      2  N   UNL     1      -4.088 -13.517  -7.877  0.00  0.00    -0.372 N 
ATOM      3  N   UNL     1      -4.375 -11.631  -6.602  0.00  0.00    -0.372 N 
ATOM      4  C   UNL     1      -4.074 -12.182  -7.782  0.00  0.00    +0.166 C 
ATOM      5  H   UNL     1      -3.515 -11.923  -9.714  0.00  0.00    +0.163 HD
ATOM      6  H   UNL     1      -4.321 -14.100  -7.084  0.00  0.00    +0.159 HD
ATOM      7  H   UNL     1      -3.884 -13.992  -8.747  0.00  0.00    +0.159 HD
ATOM      8  H   UNL     1      -4.376 -10.629  -6.463  0.00  0.00    +0.159 HD
ATOM      9  H   UNL     1      -4.600 -12.198  -5.794  0.00  0.00    +0.159 HD
ENDROOT
BRANCH   1  10
ATOM     10  C   UNL     1      -3.772  -9.982  -8.874  0.00  0.00    +0.151 C 
BRANCH  10  11
ATOM     11  C   UNL     1      -3.690  -9.508 -10.299  0.00  0.00    -0.028 A 
ATOM     12  C   UNL     1      -2.587  -9.842 -11.098  0.00  0.00    +0.005 A 
ATOM     13  C   UNL     1      -4.715  -8.728 -10.857  0.00  0.00    +0.005 A 
ATOM     14  C   UNL     1      -2.525  -9.427 -12.431  0.00  0.00    +0.000 A 
ATOM     15  C   UNL     1      -4.648  -8.314 -12.187  0.00  0.00    +0.000 A 
ATOM     16  C   UNL     1      -3.555  -8.666 -12.974  0.00  0.00    +0.000 A 
ENDBRANCH  10  11
ENDBRANCH   1  10
TORSDOF 2
ENDMDL
MODEL 3
REMARK VINA RESULT:    -4.519     15.331     17.241
REMARK INTER + INTRA:          -5.147
REMARK INTER:                  -5.013
REMARK INTRA:                  -0.134
REMARK UNBOUND:                -0.099
REMARK  Name = 1550473
REMARK  2 active torsions:
REMARK  status: ('A' for Active; 'I' for Inactive)
REMARK    1  A    between atoms: N_1  and  C_4
REMARK    2  A    between atoms: C_4  and  C_5
REMARK                            x       y       z     vdW  Elec       q    Type
REMARK                         _______ _______ _______ _____ _____    ______ ____
ROOT
ATOM      1  N   UNL     1       4.561   3.658  -7.973  0.00  0.00    -0.354 N 
ATOM      2  N   UNL     1       5.898   4.876  -6.526  0.00  0.00    -0.372 N 
ATOM      3  N   UNL     1       4.383   5.991  -7.840  0.00  0.00    -0.372 N 
ATOM      4  C   UNL     1       4.938   4.836  -7.457  0.00  0.00    +0.166 C 
ATOM      5  H   UNL     1       5.042   2.821  -7.662  0.00  0.00    +0.163 HD
ATOM      6  H   UNL     1       6.200   5.750  -6.116  0.00  0.00    +0.159 HD
ATOM      7  H   UNL     1       6.344   4.034  -6.184  0.00  0.00    +0.159 HD
ATOM      8  H   UNL     1       3.658   6.029  -8.543  0.00  0.00    +0.159 HD
ATOM      9  H   UNL     1       4.681   6.877  -7.450  0.00  0.00    +0.159 HD
ENDROOT
BRANCH   1  10
ATOM     10  C   UNL     1       3.488   3.500  -8.953  0.00  0.00    +0.151 C 
BRANCH  10  11
ATOM     11  C   UNL     1       2.554   2.417  -8.487  0.00  0.00    -0.028 A 
ATOM     12  C   UNL     1       1.194   2.455  -8.828  0.00  0.00    +0.005 A 
ATOM     13  C   UNL     1       3.023   1.348  -7.709  0.00  0.00    +0.005 A 
ATOM     14  C   UNL     1       0.331   1.435  -8.421  0.00  0.00    +0.000 A 
ATOM     15  C   UNL     1       2.159   0.331  -7.304  0.00  0.00    +0.000 A 
ATOM     16  C   UNL     1       0.813   0.374  -7.662  0.00  0.00    +0.000 A 
ENDBRANCH  10  11
ENDBRANCH   1  10
TORSDOF 2
ENDMDL
MODEL 4
REMARK VINA RESULT:    -4.424     20.812     21.879
REMARK INTER + INTRA:          -5.040
REMARK INTER:                  -4.860
REMARK INTRA:                  -0.180
REMARK UNBOUND:                -0.099
REMARK  Name = 1550473
REMARK  2 active torsions:
REMARK  status: ('A' for Active; 'I' for Inactive)
REMARK    1  A    between atoms: N_1  and  C_4
REMARK    2  A    between atoms: C_4  and  C_5
REMARK                            x       y       z     vdW  Elec       q    Type
REMARK                         _______ _______ _______ _____ _____    ______ ____
ROOT
ATOM      1  N   UNL     1       5.931   2.187   4.751  0.00  0.00    -0.354 N 
ATOM      2  N   UNL     1       5.642   1.895   2.472  0.00  0.00    -0.372 N 
ATOM      3  N   UNL     1       4.322   0.700   3.919  0.00  0.00    -0.372 N 
ATOM      4  C   UNL     1       5.298   1.594   3.730  0.00  0.00    +0.166 C 
ATOM      5  H   UNL     1       6.683   2.833   4.541  0.00  0.00    +0.163 HD
ATOM      6  H   UNL     1       5.180   1.467   1.681  0.00  0.00    +0.159 HD
ATOM      7  H   UNL     1       6.363   2.576   2.265  0.00  0.00    +0.159 HD
ATOM      8  H   UNL     1       4.020   0.425   4.844  0.00  0.00    +0.159 HD
ATOM      9  H   UNL     1       3.856   0.252   3.140  0.00  0.00    +0.159 HD
ENDROOT
BRANCH   1  10
ATOM     10  C   UNL     1       5.596   1.969   6.157  0.00  0.00    +0.151 C 
BRANCH  10  11
ATOM     11  C   UNL     1       6.609   1.038   6.765  0.00  0.00    -0.028 A 
ATOM     12  C   UNL     1       7.936   1.454   6.952  0.00  0.00    +0.005 A 
ATOM     13  C   UNL     1       6.247  -0.259   7.160  0.00  0.00    +0.005 A 
ATOM     14  C   UNL     1       8.870   0.600   7.544  0.00  0.00    +0.000 A 
ATOM     15  C   UNL     1       7.183  -1.109   7.749  0.00  0.00    +0.000 A 
ATOM     16  C   UNL     1       8.493  -0.678   7.943  0.00  0.00    +0.000 A 
ENDBRANCH  10  11
ENDBRANCH   1  10
TORSDOF 2
ENDMDL
MODEL 5
REMARK VINA RESULT:    -4.363     45.931     47.200
REMARK INTER + INTRA:          -4.972
REMARK INTER:                  -4.815
REMARK INTRA:                  -0.157
REMARK UNBOUND:                -0.099
REMARK  Name = 1550473
REMARK  2 active torsions:
REMARK  status: ('A' for Active; 'I' for Inactive)
REMARK    1  A    between atoms: N_1  and  C_4
REMARK    2  A    between atoms: C_4  and  C_5
REMARK                            x       y       z     vdW  Elec       q    Type
REMARK                         _______ _______ _______ _____ _____    ______ ____
ROOT
ATOM      1  N   UNL     1      18.089  24.845   9.936  0.00  0.00    -0.354 N 
ATOM      2  N   UNL     1      19.199  22.857  10.362  0.00  0.00    -0.372 N 
ATOM      3  N   UNL     1      17.182  22.789   9.271  0.00  0.00    -0.372 N 
ATOM      4  C   UNL     1      18.147  23.509   9.852  0.00  0.00    +0.166 C 
ATOM      5  H   UNL     1      18.839  25.330  10.416  0.00  0.00    +0.163 HD
ATOM      6  H   UNL     1      19.272  21.850  10.311  0.00  0.00    +0.159 HD
ATOM      7  H   UNL     1      19.969  23.348  10.800  0.00  0.00    +0.159 HD
ATOM      8  H   UNL     1      16.359  23.220   8.872  0.00  0.00    +0.159 HD
ATOM      9  H   UNL     1      17.231  21.779   9.220  0.00  0.00    +0.159 HD
ENDROOT
BRANCH   1  10
ATOM     10  C   UNL     1      17.014  25.654   9.366  0.00  0.00    +0.151 C 
BRANCH  10  11
ATOM     11  C   UNL     1      16.181  26.221  10.482  0.00  0.00    -0.028 A 
ATOM     12  C   UNL     1      16.791  26.727  11.639  0.00  0.00    +0.005 A 
ATOM     13  C   UNL     1      14.781  26.260  10.386  0.00  0.00    +0.005 A 
ATOM     14  C   UNL     1      16.019  27.282  12.663  0.00  0.00    +0.000 A 
ATOM     15  C   UNL     1      14.015  26.814  11.411  0.00  0.00    +0.000 A 
ATOM     16  C   UNL     1      14.634  27.326  12.549  0.00  0.00    +0.000 A 
ENDBRANCH  10  11
ENDBRANCH   1  10
TORSDOF 2
ENDMDL
MODEL 6
REMARK VINA RESULT:    -4.348     42.890     43.612
REMARK INTER + INTRA:          -4.956
REMARK INTER:                  -4.793
REMARK INTRA:                  -0.163
REMARK UNBOUND:                -0.099
REMARK  Name = 1550473
REMARK  2 active torsions:
REMARK  status: ('A' for Active; 'I' for Inactive)
REMARK    1  A    between atoms: N_1  and  C_4
REMARK    2  A    between atoms: C_4  and  C_5
REMARK                            x       y       z     vdW  Elec       q    Type
REMARK                         _______ _______ _______ _____ _____    ______ ____
ROOT
ATOM      1  N   UNL     1      24.295  19.392   2.592  0.00  0.00    -0.354 N 
ATOM      2  N   UNL     1      22.147  19.003   3.366  0.00  0.00    -0.372 N 
ATOM      3  N   UNL     1      22.497  20.719   1.884  0.00  0.00    -0.372 N 
ATOM      4  C   UNL     1      22.993  19.710   2.607  0.00  0.00    +0.166 C 
ATOM      5  H   UNL     1      24.613  18.635   3.186  0.00  0.00    +0.163 HD
ATOM      6  H   UNL     1      21.159  19.217   3.396  0.00  0.00    +0.159 HD
ATOM      7  H   UNL     1      22.460  18.218   3.924  0.00  0.00    +0.159 HD
ATOM      8  H   UNL     1      23.084  21.295   1.295  0.00  0.00    +0.159 HD
ATOM      9  H   UNL     1      21.514  20.956   1.909  0.00  0.00    +0.159 HD
ENDROOT
BRANCH   1  10
ATOM     10  C   UNL     1      25.290  20.065   1.759  0.00  0.00    +0.151 C 
BRANCH  10  11
ATOM     11  C   UNL     1      25.534  19.242   0.524  0.00  0.00    -0.028 A 
ATOM     12  C   UNL     1      24.776  19.459  -0.637  0.00  0.00    +0.005 A 
ATOM     13  C   UNL     1      26.524  18.248   0.505  0.00  0.00    +0.005 A 
ATOM     14  C   UNL     1      25.022  18.715  -1.794  0.00  0.00    +0.000 A 
ATOM     15  C   UNL     1      26.766  17.507  -0.652  0.00  0.00    +0.000 A 
ATOM     16  C   UNL     1      26.016  17.743  -1.802  0.00  0.00    +0.000 A 
ENDBRANCH  10  11
ENDBRANCH   1  10
TORSDOF 2
ENDMDL
MODEL 7
REMARK VINA RESULT:    -4.321      4.201      6.842
REMARK INTER + INTRA:          -4.926
REMARK INTER:                  -4.752
REMARK INTRA:                  -0.174
REMARK UNBOUND:                -0.099
REMARK  Name = 1550473
REMARK  2 active torsions:
REMARK  status: ('A' for Active; 'I' for Inactive)
REMARK    1  A    between atoms: N_1  and  C_4
REMARK    2  A    between atoms: C_4  and  C_5
REMARK                            x       y       z     vdW  Elec       q    Type
REMARK                         _______ _______ _______ _____ _____    ______ ____
ROOT
ATOM      1  N   UNL     1      -1.544  -9.486  -9.755  0.00  0.00    -0.354 N 
ATOM      2  N   UNL     1      -1.605 -11.338  -8.366  0.00  0.00    -0.372 N 
ATOM      3  N   UNL     1      -1.903 -11.633 -10.622  0.00  0.00    -0.372 N 
ATOM      4  C   UNL     1      -1.684 -10.808  -9.593  0.00  0.00    +0.166 C 
ATOM      5  H   UNL     1      -1.410  -8.911  -8.931  0.00  0.00    +0.163 HD
ATOM      6  H   UNL     1      -1.704 -12.333  -8.213  0.00  0.00    +0.159 HD
ATOM      7  H   UNL     1      -1.426 -10.767  -7.549  0.00  0.00    +0.159 HD
ATOM      8  H   UNL     1      -1.979 -11.295 -11.573  0.00  0.00    +0.159 HD
ATOM      9  H   UNL     1      -2.016 -12.630 -10.488  0.00  0.00    +0.159 HD
ENDROOT
BRANCH   1  10
ATOM     10  C   UNL     1      -1.559  -8.815 -11.054  0.00  0.00    +0.151 C 
BRANCH  10  11
ATOM     11  C   UNL     1      -2.944  -8.294 -11.321  0.00  0.00    -0.028 A 
ATOM     12  C   UNL     1      -3.507  -7.311 -10.495  0.00  0.00    +0.005 A 
ATOM     13  C   UNL     1      -3.697  -8.776 -12.403  0.00  0.00    +0.005 A 
ATOM     14  C   UNL     1      -4.782  -6.805 -10.760  0.00  0.00    +0.000 A 
ATOM     15  C   UNL     1      -4.970  -8.269 -12.665  0.00  0.00    +0.000 A 
ATOM     16  C   UNL     1      -5.511  -7.282 -11.845  0.00  0.00    +0.000 A 
ENDBRANCH  10  11
ENDBRANCH   1  10
TORSDOF 2
ENDMDL
MODEL 8
REMARK VINA RESULT:    -4.109      3.805      5.874
REMARK INTER + INTRA:          -4.688
REMARK INTER:                  -4.552
REMARK INTRA:                  -0.137
REMARK UNBOUND:                -0.099
REMARK  Name = 1550473
REMARK  2 active torsions:
REMARK  status: ('A' for Active; 'I' for Inactive)
REMARK    1  A    between atoms: N_1  and  C_4
REMARK    2  A    between atoms: C_4  and  C_5
REMARK                            x       y       z     vdW  Elec       q    Type
REMARK                         _______ _______ _______ _____ _____    ______ ____
ROOT
ATOM      1  N   UNL     1      -3.088 -10.482  -8.298  0.00  0.00    -0.354 N 
ATOM      2  N   UNL     1      -1.784  -9.524  -6.641  0.00  0.00    -0.372 N 
ATOM      3  N   UNL     1      -3.648  -8.403  -7.374  0.00  0.00    -0.372 N 
ATOM      4  C   UNL     1      -2.850  -9.474  -7.449  0.00  0.00    +0.166 C 
ATOM      5  H   UNL     1      -2.429 -11.252  -8.328  0.00  0.00    +0.163 HD
ATOM      6  H   UNL     1      -1.582  -8.779  -5.988  0.00  0.00    +0.159 HD
ATOM      7  H   UNL     1      -1.153 -10.315  -6.641  0.00  0.00    +0.159 HD
ATOM      8  H   UNL     1      -4.465  -8.302  -7.961  0.00  0.00    +0.159 HD
ATOM      9  H   UNL     1      -3.455  -7.642  -6.734  0.00  0.00    +0.159 HD
ENDROOT
BRANCH   1  10
ATOM     10  C   UNL     1      -4.250 -10.551  -9.182  0.00  0.00    +0.151 C 
BRANCH  10  11
ATOM     11  C   UNL     1      -3.915  -9.882 -10.487  0.00  0.00    -0.028 A 
ATOM     12  C   UNL     1      -2.691 -10.135 -11.123  0.00  0.00    +0.005 A 
ATOM     13  C   UNL     1      -4.820  -8.998 -11.095  0.00  0.00    +0.005 A 
ATOM     14  C   UNL     1      -2.392  -9.537 -12.349  0.00  0.00    +0.000 A 
ATOM     15  C   UNL     1      -4.517  -8.403 -12.319  0.00  0.00    +0.000 A 
ATOM     16  C   UNL     1      -3.304  -8.674 -12.947  0.00  0.00    +0.000 A 
ENDBRANCH  10  11
ENDBRANCH   1  10
TORSDOF 2
ENDMDL
MODEL 9
REMARK VINA RESULT:    -4.070     24.948     26.456
REMARK INTER + INTRA:          -4.645
REMARK INTER:                  -4.508
REMARK INTRA:                  -0.136
REMARK UNBOUND:                -0.099
REMARK  Name = 1550473
REMARK  2 active torsions:
REMARK  status: ('A' for Active; 'I' for Inactive)
REMARK    1  A    between atoms: N_1  and  C_4
REMARK    2  A    between atoms: C_4  and  C_5
REMARK                            x       y       z     vdW  Elec       q    Type
REMARK                         _______ _______ _______ _____ _____    ______ ____
ROOT
ATOM      1  N   UNL     1      -2.348  12.347  -1.626  0.00  0.00    -0.354 N 
ATOM      2  N   UNL     1      -3.702  11.102  -3.033  0.00  0.00    -0.372 N 
ATOM      3  N   UNL     1      -4.205  11.184  -0.795  0.00  0.00    -0.372 N 
ATOM      4  C   UNL     1      -3.410  11.552  -1.806  0.00  0.00    +0.166 C 
ATOM      5  H   UNL     1      -1.768  12.565  -2.429  0.00  0.00    +0.163 HD
ATOM      6  H   UNL     1      -4.500  10.503  -3.200  0.00  0.00    +0.159 HD
ATOM      7  H   UNL     1      -3.148  11.358  -3.840  0.00  0.00    +0.159 HD
ATOM      8  H   UNL     1      -4.035  11.484   0.155  0.00  0.00    +0.159 HD
ATOM      9  H   UNL     1      -5.001  10.575  -0.941  0.00  0.00    +0.159 HD
ENDROOT
BRANCH   1  10
ATOM     10  C   UNL     1      -1.974  12.934  -0.341  0.00  0.00    +0.151 C 
BRANCH  10  11
ATOM     11  C   UNL     1      -0.476  12.921  -0.211  0.00  0.00    -0.028 A 
ATOM     12  C   UNL     1       0.146  13.473   0.918  0.00  0.00    +0.005 A 
ATOM     13  C   UNL     1       0.327  12.353  -1.212  0.00  0.00    +0.005 A 
ATOM     14  C   UNL     1       1.536  13.434   1.053  0.00  0.00    +0.000 A 
ATOM     15  C   UNL     1       1.714  12.317  -1.074  0.00  0.00    +0.000 A 
ATOM     16  C   UNL     1       2.318  12.855   0.060  0.00  0.00    +0.000 A 
ENDBRANCH  10  11
ENDBRANCH   1  10
TORSDOF 2
ENDMDL
