MODEL 1
REMARK VINA RESULT:    -6.021      0.000      0.000
REMARK INTER + INTRA:          -6.907
REMARK INTER:                  -6.725
REMARK INTRA:                  -0.182
REMARK UNBOUND:                -0.182
REMARK  Name = 1550473
REMARK  2 active torsions:
REMARK  status: ('A' for Active; 'I' for Inactive)
REMARK    1  A    between atoms: N_1  and  C_4
REMARK    2  A    between atoms: C_4  and  C_5
REMARK                            x       y       z     vdW  Elec       q    Type
REMARK                         _______ _______ _______ _____ _____    ______ ____
ROOT
ATOM      1  N   UNL     1       0.072  10.050   4.274  0.00  0.00    -0.354 N 
ATOM      2  N   UNL     1      -2.162  10.454   4.731  0.00  0.00    -0.372 N 
ATOM      3  N   UNL     1      -0.642  10.557   6.448  0.00  0.00    -0.372 N 
ATOM      4  C   UNL     1      -0.895  10.351   5.151  0.00  0.00    +0.166 C 
ATOM      5  H   UNL     1      -0.189   9.875   3.311  0.00  0.00    +0.163 HD
ATOM      6  H   UNL     1      -2.913  10.683   5.369  0.00  0.00    +0.159 HD
ATOM      7  H   UNL     1      -2.413  10.324   3.759  0.00  0.00    +0.159 HD
ATOM      8  H   UNL     1       0.292  10.489   6.829  0.00  0.00    +0.159 HD
ATOM      9  H   UNL     1      -1.382  10.776   7.103  0.00  0.00    +0.159 HD
ENDROOT
BRANCH   1  10
ATOM     10  C   UNL     1       1.491   9.967   4.618  0.00  0.00    +0.151 C 
BRANCH  10  11
ATOM     11  C   UNL     1       2.177  11.231   4.180  0.00  0.00    -0.028 A 
ATOM     12  C   UNL     1       2.272  11.554   2.819  0.00  0.00    +0.005 A 
ATOM     13  C   UNL     1       2.730  12.112   5.122  0.00  0.00    +0.005 A 
ATOM     14  C   UNL     1       2.883  12.743   2.413  0.00  0.00    +0.000 A 
ATOM     15  C   UNL     1       3.340  13.298   4.712  0.00  0.00    +0.000 A 
ATOM     16  C   UNL     1       3.414  13.614   3.358  0.00  0.00    +0.000 A 
ENDBRANCH  10  11
ENDBRANCH   1  10
TORSDOF 2
ENDMDL
MODEL 2
REMARK VINA RESULT:    -5.688     19.213     20.045
REMARK INTER + INTRA:          -6.536
REMARK INTER:                  -6.358
REMARK INTRA:                  -0.177
REMARK UNBOUND:                -0.182
REMARK  Name = 1550473
REMARK  2 active torsions:
REMARK  status: ('A' for Active; 'I' for Inactive)
REMARK    1  A    between atoms: N_1  and  C_4
REMARK    2  A    between atoms: C_4  and  C_5
REMARK                            x       y       z     vdW  Elec       q    Type
REMARK                         _______ _______ _______ _____ _____    ______ ____
ROOT
ATOM      1  N   UNL     1      16.215  -2.739   7.655  0.00  0.00    -0.354 N 
ATOM      2  N   UNL     1      14.958  -3.296   9.518  0.00  0.00    -0.372 N 
ATOM      3  N   UNL     1      15.022  -4.755   7.748  0.00  0.00    -0.372 N 
ATOM      4  C   UNL     1      15.406  -3.595   8.293  0.00  0.00    +0.166 C 
ATOM      5  H   UNL     1      16.444  -1.863   8.110  0.00  0.00    +0.163 HD
ATOM      6  H   UNL     1      14.349  -3.924  10.026  0.00  0.00    +0.159 HD
ATOM      7  H   UNL     1      15.225  -2.441   9.990  0.00  0.00    +0.159 HD
ATOM      8  H   UNL     1      15.321  -5.036   6.824  0.00  0.00    +0.159 HD
ATOM      9  H   UNL     1      14.404  -5.391   8.235  0.00  0.00    +0.159 HD
ENDROOT
BRANCH   1  10
ATOM     10  C   UNL     1      16.801  -2.994   6.340  0.00  0.00    +0.151 C 
BRANCH  10  11
ATOM     11  C   UNL     1      15.987  -2.285   5.293  0.00  0.00    -0.028 A 
ATOM     12  C   UNL     1      15.064  -2.993   4.509  0.00  0.00    +0.005 A 
ATOM     13  C   UNL     1      16.130  -0.905   5.084  0.00  0.00    +0.005 A 
ATOM     14  C   UNL     1      14.286  -2.330   3.558  0.00  0.00    +0.000 A 
ATOM     15  C   UNL     1      15.352  -0.247   4.132  0.00  0.00    +0.000 A 
ATOM     16  C   UNL     1      14.428  -0.959   3.371  0.00  0.00    +0.000 A 
ENDBRANCH  10  11
ENDBRANCH   1  10
TORSDOF 2
ENDMDL
MODEL 3
REMARK VINA RESULT:    -5.449      1.780      2.676
REMARK INTER + INTRA:          -6.268
REMARK INTER:                  -6.091
REMARK INTRA:                  -0.177
REMARK UNBOUND:                -0.182
REMARK  Name = 1550473
REMARK  2 active torsions:
REMARK  status: ('A' for Active; 'I' for Inactive)
REMARK    1  A    between atoms: N_1  and  C_4
REMARK    2  A    between atoms: C_4  and  C_5
REMARK                            x       y       z     vdW  Elec       q    Type
REMARK                         _______ _______ _______ _____ _____    ______ ____
ROOT
ATOM      1  N   UNL     1      -0.289  10.923   6.471  0.00  0.00    -0.354 N 
ATOM      2  N   UNL     1       0.597  10.317   8.523  0.00  0.00    -0.372 N 
ATOM      3  N   UNL     1       0.269   8.695   6.934  0.00  0.00    -0.372 N 
ATOM      4  C   UNL     1       0.186   9.980   7.295  0.00  0.00    +0.166 C 
ATOM      5  H   UNL     1      -0.354  11.875   6.815  0.00  0.00    +0.163 HD
ATOM      6  H   UNL     1       0.963   9.627   9.166  0.00  0.00    +0.159 HD
ATOM      7  H   UNL     1       0.573  11.276   8.849  0.00  0.00    +0.159 HD
ATOM      8  H   UNL     1      -0.030   8.375   6.022  0.00  0.00    +0.159 HD
ATOM      9  H   UNL     1       0.622   7.988   7.567  0.00  0.00    +0.159 HD
ENDROOT
BRANCH   1  10
ATOM     10  C   UNL     1      -0.712  10.670   5.095  0.00  0.00    +0.151 C 
BRANCH  10  11
ATOM     11  C   UNL     1       0.403  11.053   4.160  0.00  0.00    -0.028 A 
ATOM     12  C   UNL     1       0.551  12.382   3.736  0.00  0.00    +0.005 A 
ATOM     13  C   UNL     1       1.317  10.094   3.701  0.00  0.00    +0.005 A 
ATOM     14  C   UNL     1       1.603  12.744   2.892  0.00  0.00    +0.000 A 
ATOM     15  C   UNL     1       2.367  10.459   2.857  0.00  0.00    +0.000 A 
ATOM     16  C   UNL     1       2.511  11.784   2.455  0.00  0.00    +0.000 A 
ENDBRANCH  10  11
ENDBRANCH   1  10
TORSDOF 2
ENDMDL
MODEL 4
REMARK VINA RESULT:    -5.221      2.385      3.364
REMARK INTER + INTRA:          -6.013
REMARK INTER:                  -5.888
REMARK INTRA:                  -0.126
REMARK UNBOUND:                -0.182
REMARK  Name = 1550473
REMARK  2 active torsions:
REMARK  status: ('A' for Active; 'I' for Inactive)
REMARK    1  A    between atoms: N_1  and  C_4
REMARK    2  A    between atoms: C_4  and  C_5
REMARK                            x       y       z     vdW  Elec       q    Type
REMARK                         _______ _______ _______ _____ _____    ______ ____
ROOT
ATOM      1  N   UNL     1       3.063  10.889   3.697  0.00  0.00    -0.354 N 
ATOM      2  N   UNL     1       2.740   9.882   1.636  0.00  0.00    -0.372 N 
ATOM      3  N   UNL     1       1.222   9.491   3.311  0.00  0.00    -0.372 N 
ATOM      4  C   UNL     1       2.341  10.092   2.896  0.00  0.00    +0.166 C 
ATOM      5  H   UNL     1       3.918  11.291   3.332  0.00  0.00    +0.163 HD
ATOM      6  H   UNL     1       2.215   9.289   1.008  0.00  0.00    +0.159 HD
ATOM      7  H   UNL     1       3.571  10.322   1.260  0.00  0.00    +0.159 HD
ATOM      8  H   UNL     1       0.870   9.604   4.252  0.00  0.00    +0.159 HD
ATOM      9  H   UNL     1       0.688   8.884   2.701  0.00  0.00    +0.159 HD
ENDROOT
BRANCH   1  10
ATOM     10  C   UNL     1       2.686  11.226   5.069  0.00  0.00    +0.151 C 
BRANCH  10  11
ATOM     11  C   UNL     1       2.650  12.722   5.214  0.00  0.00    -0.028 A 
ATOM     12  C   UNL     1       1.461  13.374   5.569  0.00  0.00    +0.005 A 
ATOM     13  C   UNL     1       3.804  13.493   5.004  0.00  0.00    +0.005 A 
ATOM     14  C   UNL     1       1.434  14.761   5.734  0.00  0.00    +0.000 A 
ATOM     15  C   UNL     1       3.773  14.877   5.169  0.00  0.00    +0.000 A 
ATOM     16  C   UNL     1       2.589  15.511   5.537  0.00  0.00    +0.000 A 
ENDBRANCH  10  11
ENDBRANCH   1  10
TORSDOF 2
ENDMDL
MODEL 5
REMARK VINA RESULT:    -5.156     28.341     29.558
REMARK INTER + INTRA:          -5.941
REMARK INTER:                  -5.826
REMARK INTRA:                  -0.114
REMARK UNBOUND:                -0.182
REMARK  Name = 1550473
REMARK  2 active torsions:
REMARK  status: ('A' for Active; 'I' for Inactive)
REMARK    1  A    between atoms: N_1  and  C_4
REMARK    2  A    between atoms: C_4  and  C_5
REMARK                            x       y       z     vdW  Elec       q    Type
REMARK                         _______ _______ _______ _____ _____    ______ ____
ROOT
ATOM      1  N   UNL     1       6.805 -14.412  -6.722  0.00  0.00    -0.354 N 
ATOM      2  N   UNL     1       4.912 -13.086  -6.568  0.00  0.00    -0.372 N 
ATOM      3  N   UNL     1       4.953 -14.786  -8.109  0.00  0.00    -0.372 N 
ATOM      4  C   UNL     1       5.568 -14.105  -7.136  0.00  0.00    +0.166 C 
ATOM      5  H   UNL     1       7.227 -13.837  -6.002  0.00  0.00    +0.163 HD
ATOM      6  H   UNL     1       3.976 -12.833  -6.858  0.00  0.00    +0.159 HD
ATOM      7  H   UNL     1       5.319 -12.542  -5.817  0.00  0.00    +0.159 HD
ATOM      8  H   UNL     1       5.396 -15.562  -8.582  0.00  0.00    +0.159 HD
ATOM      9  H   UNL     1       4.021 -14.541  -8.420  0.00  0.00    +0.159 HD
ENDROOT
BRANCH   1  10
ATOM     10  C   UNL     1       7.584 -15.536  -7.238  0.00  0.00    +0.151 C 
BRANCH  10  11
ATOM     11  C   UNL     1       8.968 -15.484  -6.651  0.00  0.00    -0.028 A 
ATOM     12  C   UNL     1       9.174 -14.984  -5.357  0.00  0.00    +0.005 A 
ATOM     13  C   UNL     1      10.076 -15.940  -7.381  0.00  0.00    +0.005 A 
ATOM     14  C   UNL     1      10.455 -14.964  -4.800  0.00  0.00    +0.000 A 
ATOM     15  C   UNL     1      11.353 -15.917  -6.822  0.00  0.00    +0.000 A 
ATOM     16  C   UNL     1      11.542 -15.432  -5.530  0.00  0.00    +0.000 A 
ENDBRANCH  10  11
ENDBRANCH   1  10
TORSDOF 2
ENDMDL
MODEL 6
REMARK VINA RESULT:    -5.082     18.877     19.752
REMARK INTER + INTRA:          -5.858
REMARK INTER:                  -5.735
REMARK INTRA:                  -0.123
REMARK UNBOUND:                -0.182
REMARK  Name = 1550473
REMARK  2 active torsions:
REMARK  status: ('A' for Active; 'I' for Inactive)
REMARK    1  A    between atoms: N_1  and  C_4
REMARK    2  A    between atoms: C_4  and  C_5
REMARK                            x       y       z     vdW  Elec       q    Type
REMARK                         _______ _______ _______ _____ _____    ______ ____
ROOT
ATOM      1  N   UNL     1      16.122  -2.526   8.215  0.00  0.00    -0.354 N 
ATOM      2  N   UNL     1      16.268  -3.713   6.232  0.00  0.00    -0.372 N 
ATOM      3  N   UNL     1      15.037  -4.587   7.960  0.00  0.00    -0.372 N 
ATOM      4  C   UNL     1      15.807  -3.603   7.484  0.00  0.00    +0.166 C 
ATOM      5  H   UNL     1      16.735  -1.829   7.806  0.00  0.00    +0.163 HD
ATOM      6  H   UNL     1      16.044  -4.513   5.655  0.00  0.00    +0.159 HD
ATOM      7  H   UNL     1      16.842  -2.994   5.810  0.00  0.00    +0.159 HD
ATOM      8  H   UNL     1      14.662  -4.567   8.899  0.00  0.00    +0.159 HD
ATOM      9  H   UNL     1      14.811  -5.401   7.402  0.00  0.00    +0.159 HD
ENDROOT
BRANCH   1  10
ATOM     10  C   UNL     1      15.628  -2.283   9.569  0.00  0.00    +0.151 C 
BRANCH  10  11
ATOM     11  C   UNL     1      15.312  -0.821   9.722  0.00  0.00    -0.028 A 
ATOM     12  C   UNL     1      14.250  -0.404  10.538  0.00  0.00    +0.005 A 
ATOM     13  C   UNL     1      16.074   0.152   9.059  0.00  0.00    +0.005 A 
ATOM     14  C   UNL     1      13.975   0.956  10.704  0.00  0.00    +0.000 A 
ATOM     15  C   UNL     1      15.796   1.509   9.227  0.00  0.00    +0.000 A 
ATOM     16  C   UNL     1      14.748   1.910  10.052  0.00  0.00    +0.000 A 
ENDBRANCH  10  11
ENDBRANCH   1  10
TORSDOF 2
ENDMDL
MODEL 7
REMARK VINA RESULT:    -5.058     19.691     20.455
REMARK INTER + INTRA:          -5.832
REMARK INTER:                  -5.754
REMARK INTRA:                  -0.078
REMARK UNBOUND:                -0.182
REMARK  Name = 1550473
REMARK  2 active torsions:
REMARK  status: ('A' for Active; 'I' for Inactive)
REMARK    1  A    between atoms: N_1  and  C_4
REMARK    2  A    between atoms: C_4  and  C_5
REMARK                            x       y       z     vdW  Elec       q    Type
REMARK                         _______ _______ _______ _____ _____    ______ ____
ROOT
ATOM      1  N   UNL     1       8.086   7.310 -15.181  0.00  0.00    -0.354 N 
ATOM      2  N   UNL     1       8.229   5.014 -15.443  0.00  0.00    -0.372 N 
ATOM      3  N   UNL     1       7.995   5.876 -13.330  0.00  0.00    -0.372 N 
ATOM      4  C   UNL     1       8.102   6.082 -14.647  0.00  0.00    +0.166 C 
ATOM      5  H   UNL     1       8.202   7.401 -16.184  0.00  0.00    +0.163 HD
ATOM      6  H   UNL     1       8.241   4.074 -15.069  0.00  0.00    +0.159 HD
ATOM      7  H   UNL     1       8.298   5.104 -16.449  0.00  0.00    +0.159 HD
ATOM      8  H   UNL     1       7.903   6.641 -12.674  0.00  0.00    +0.159 HD
ATOM      9  H   UNL     1       8.017   4.944 -12.935  0.00  0.00    +0.159 HD
ENDROOT
BRANCH   1  10
ATOM     10  C   UNL     1       7.899   8.536 -14.407  0.00  0.00    +0.151 C 
BRANCH  10  11
ATOM     11  C   UNL     1       6.561   9.133 -14.748  0.00  0.00    -0.028 A 
ATOM     12  C   UNL     1       5.546   8.337 -15.299  0.00  0.00    +0.005 A 
ATOM     13  C   UNL     1       6.300  10.492 -14.516  0.00  0.00    +0.005 A 
ATOM     14  C   UNL     1       4.294   8.884 -15.588  0.00  0.00    +0.000 A 
ATOM     15  C   UNL     1       5.049  11.035 -14.807  0.00  0.00    +0.000 A 
ATOM     16  C   UNL     1       4.045  10.230 -15.340  0.00  0.00    +0.000 A 
ENDBRANCH  10  11
ENDBRANCH   1  10
TORSDOF 2
ENDMDL
MODEL 8
REMARK VINA RESULT:    -5.001      3.201      5.008
REMARK INTER + INTRA:          -5.768
REMARK INTER:                  -5.643
REMARK INTRA:                  -0.125
REMARK UNBOUND:                -0.182
REMARK  Name = 1550473
REMARK  2 active torsions:
REMARK  status: ('A' for Active; 'I' for Inactive)
REMARK    1  A    between atoms: N_1  and  C_4
REMARK    2  A    between atoms: C_4  and  C_5
REMARK                            x       y       z     vdW  Elec       q    Type
REMARK                         _______ _______ _______ _____ _____    ______ ____
ROOT
ATOM      1  N   UNL     1       2.793  13.036   2.623  0.00  0.00    -0.354 N 
ATOM      2  N   UNL     1       3.543  14.951   1.557  0.00  0.00    -0.372 N 
ATOM      3  N   UNL     1       4.282  12.908   0.817  0.00  0.00    -0.372 N 
ATOM      4  C   UNL     1       3.536  13.617   1.671  0.00  0.00    +0.166 C 
ATOM      5  H   UNL     1       2.274  13.631   3.258  0.00  0.00    +0.163 HD
ATOM      6  H   UNL     1       4.091  15.417   0.846  0.00  0.00    +0.159 HD
ATOM      7  H   UNL     1       2.986  15.541   2.163  0.00  0.00    +0.159 HD
ATOM      8  H   UNL     1       4.325  11.899   0.855  0.00  0.00    +0.159 HD
ATOM      9  H   UNL     1       4.846  13.358   0.107  0.00  0.00    +0.159 HD
ENDROOT
BRANCH   1  10
ATOM     10  C   UNL     1       2.674  11.590   2.798  0.00  0.00    +0.151 C 
BRANCH  10  11
ATOM     11  C   UNL     1       1.420  11.290   3.571  0.00  0.00    -0.028 A 
ATOM     12  C   UNL     1       0.342  12.187   3.555  0.00  0.00    +0.005 A 
ATOM     13  C   UNL     1       1.301  10.108   4.318  0.00  0.00    +0.005 A 
ATOM     14  C   UNL     1      -0.834  11.895   4.250  0.00  0.00    +0.000 A 
ATOM     15  C   UNL     1       0.125   9.820   5.011  0.00  0.00    +0.000 A 
ATOM     16  C   UNL     1      -0.943  10.713   4.974  0.00  0.00    +0.000 A 
ENDBRANCH  10  11
ENDBRANCH   1  10
TORSDOF 2
ENDMDL
MODEL 9
REMARK VINA RESULT:    -4.965     26.998     28.188
REMARK INTER + INTRA:          -5.728
REMARK INTER:                  -5.547
REMARK INTRA:                  -0.181
REMARK UNBOUND:                -0.182
REMARK  Name = 1550473
REMARK  2 active torsions:
REMARK  status: ('A' for Active; 'I' for Inactive)
REMARK    1  A    between atoms: N_1  and  C_4
REMARK    2  A    between atoms: C_4  and  C_5
REMARK                            x       y       z     vdW  Elec       q    Type
REMARK                         _______ _______ _______ _____ _____    ______ ____
ROOT
ATOM      1  N   UNL     1      13.196  -4.547 -17.916  0.00  0.00    -0.354 N 
ATOM      2  N   UNL     1      13.605  -6.799 -17.562  0.00  0.00    -0.372 N 
ATOM      3  N   UNL     1      11.464  -6.009 -17.320  0.00  0.00    -0.372 N 
ATOM      4  C   UNL     1      12.749  -5.770 -17.601  0.00  0.00    +0.166 C 
ATOM      5  H   UNL     1      14.187  -4.426 -18.089  0.00  0.00    +0.163 HD
ATOM      6  H   UNL     1      13.296  -7.734 -17.331  0.00  0.00    +0.159 HD
ATOM      7  H   UNL     1      14.587  -6.684 -17.781  0.00  0.00    +0.159 HD
ATOM      8  H   UNL     1      10.769  -5.275 -17.325  0.00  0.00    +0.159 HD
ATOM      9  H   UNL     1      11.138  -6.936 -17.075  0.00  0.00    +0.159 HD
ENDROOT
BRANCH   1  10
ATOM     10  C   UNL     1      12.338  -3.370 -18.038  0.00  0.00    +0.151 C 
BRANCH  10  11
ATOM     11  C   UNL     1      12.470  -2.534 -16.794  0.00  0.00    -0.028 A 
ATOM     12  C   UNL     1      11.509  -2.616 -15.776  0.00  0.00    +0.005 A 
ATOM     13  C   UNL     1      13.558  -1.664 -16.625  0.00  0.00    +0.005 A 
ATOM     14  C   UNL     1      11.647  -1.862 -14.608  0.00  0.00    +0.000 A 
ATOM     15  C   UNL     1      13.692  -0.913 -15.458  0.00  0.00    +0.000 A 
ATOM     16  C   UNL     1      12.738  -1.014 -14.448  0.00  0.00    +0.000 A 
ENDBRANCH  10  11
ENDBRANCH   1  10
TORSDOF 2
ENDMDL
