MODEL 1
REMARK VINA RESULT:    -6.090      0.000      0.000
REMARK INTER + INTRA:          -6.957
REMARK INTER:                  -6.802
REMARK INTRA:                  -0.155
REMARK UNBOUND:                -0.155
REMARK  Name = 1550473
REMARK  2 active torsions:
REMARK  status: ('A' for Active; 'I' for Inactive)
REMARK    1  A    between atoms: N_1  and  C_4
REMARK    2  A    between atoms: C_4  and  C_5
REMARK                            x       y       z     vdW  Elec       q    Type
REMARK                         _______ _______ _______ _____ _____    ______ ____
ROOT
ATOM      1  N   UNL     1       6.779   2.027   7.998  0.00  0.00    -0.354 N 
ATOM      2  N   UNL     1       6.285   0.938   6.015  0.00  0.00    -0.372 N 
ATOM      3  N   UNL     1       4.616   2.081   7.097  0.00  0.00    -0.372 N 
ATOM      4  C   UNL     1       5.894   1.690   7.050  0.00  0.00    +0.166 C 
ATOM      5  H   UNL     1       7.726   1.674   7.920  0.00  0.00    +0.163 HD
ATOM      6  H   UNL     1       5.641   0.670   5.283  0.00  0.00    +0.159 HD
ATOM      7  H   UNL     1       7.243   0.624   5.916  0.00  0.00    +0.159 HD
ATOM      8  H   UNL     1       4.256   2.645   7.855  0.00  0.00    +0.159 HD
ATOM      9  H   UNL     1       3.953   1.813   6.380  0.00  0.00    +0.159 HD
ENDROOT
BRANCH   1  10
ATOM     10  C   UNL     1       6.468   2.888   9.138  0.00  0.00    +0.151 C 
BRANCH  10  11
ATOM     11  C   UNL     1       6.506   2.067  10.397  0.00  0.00    -0.028 A 
ATOM     12  C   UNL     1       5.643   2.359  11.464  0.00  0.00    +0.005 A 
ATOM     13  C   UNL     1       7.399   0.992  10.528  0.00  0.00    +0.005 A 
ATOM     14  C   UNL     1       5.658   1.578  12.622  0.00  0.00    +0.000 A 
ATOM     15  C   UNL     1       7.411   0.215  11.687  0.00  0.00    +0.000 A 
ATOM     16  C   UNL     1       6.539   0.507  12.732  0.00  0.00    +0.000 A 
ENDBRANCH  10  11
ENDBRANCH   1  10
TORSDOF 2
ENDMDL
MODEL 2
REMARK VINA RESULT:    -5.026     22.640     24.398
REMARK INTER + INTRA:          -5.769
REMARK INTER:                  -5.672
REMARK INTRA:                  -0.097
REMARK UNBOUND:                -0.155
REMARK  Name = 1550473
REMARK  2 active torsions:
REMARK  status: ('A' for Active; 'I' for Inactive)
REMARK    1  A    between atoms: N_1  and  C_4
REMARK    2  A    between atoms: C_4  and  C_5
REMARK                            x       y       z     vdW  Elec       q    Type
REMARK                         _______ _______ _______ _____ _____    ______ ____
ROOT
ATOM      1  N   UNL     1       2.306 -18.066  -6.436  0.00  0.00    -0.354 N 
ATOM      2  N   UNL     1       1.222 -19.976  -7.173  0.00  0.00    -0.372 N 
ATOM      3  N   UNL     1       1.493 -18.223  -8.628  0.00  0.00    -0.372 N 
ATOM      4  C   UNL     1       1.680 -18.741  -7.410  0.00  0.00    +0.166 C 
ATOM      5  H   UNL     1       2.389 -18.503  -5.525  0.00  0.00    +0.163 HD
ATOM      6  H   UNL     1       0.749 -20.510  -7.889  0.00  0.00    +0.159 HD
ATOM      7  H   UNL     1       1.347 -20.428  -6.275  0.00  0.00    +0.159 HD
ATOM      8  H   UNL     1       1.810 -17.293  -8.870  0.00  0.00    +0.159 HD
ATOM      9  H   UNL     1       1.011 -18.738  -9.355  0.00  0.00    +0.159 HD
ENDROOT
BRANCH   1  10
ATOM     10  C   UNL     1       2.890 -16.737  -6.607  0.00  0.00    +0.151 C 
BRANCH  10  11
ATOM     11  C   UNL     1       3.576 -16.334  -5.331  0.00  0.00    -0.028 A 
ATOM     12  C   UNL     1       4.962 -16.125  -5.303  0.00  0.00    +0.005 A 
ATOM     13  C   UNL     1       2.843 -16.154  -4.147  0.00  0.00    +0.005 A 
ATOM     14  C   UNL     1       5.595 -15.722  -4.125  0.00  0.00    +0.000 A 
ATOM     15  C   UNL     1       3.480 -15.752  -2.973  0.00  0.00    +0.000 A 
ATOM     16  C   UNL     1       4.855 -15.533  -2.963  0.00  0.00    +0.000 A 
ENDBRANCH  10  11
ENDBRANCH   1  10
TORSDOF 2
ENDMDL
MODEL 3
REMARK VINA RESULT:    -5.020      1.253      2.142
REMARK INTER + INTRA:          -5.762
REMARK INTER:                  -5.619
REMARK INTRA:                  -0.143
REMARK UNBOUND:                -0.155
REMARK  Name = 1550473
REMARK  2 active torsions:
REMARK  status: ('A' for Active; 'I' for Inactive)
REMARK    1  A    between atoms: N_1  and  C_4
REMARK    2  A    between atoms: C_4  and  C_5
REMARK                            x       y       z     vdW  Elec       q    Type
REMARK                         _______ _______ _______ _____ _____    ______ ____
ROOT
ATOM      1  N   UNL     1       7.259   2.553   7.744  0.00  0.00    -0.354 N 
ATOM      2  N   UNL     1       7.319   2.669   5.432  0.00  0.00    -0.372 N 
ATOM      3  N   UNL     1       5.286   2.487   6.480  0.00  0.00    -0.372 N 
ATOM      4  C   UNL     1       6.618   2.568   6.568  0.00  0.00    +0.166 C 
ATOM      5  H   UNL     1       8.272   2.588   7.741  0.00  0.00    +0.163 HD
ATOM      6  H   UNL     1       6.863   2.687   4.529  0.00  0.00    +0.159 HD
ATOM      7  H   UNL     1       8.328   2.750   5.434  0.00  0.00    +0.159 HD
ATOM      8  H   UNL     1       4.700   2.403   7.300  0.00  0.00    +0.159 HD
ATOM      9  H   UNL     1       4.812   2.491   5.586  0.00  0.00    +0.159 HD
ENDROOT
BRANCH   1  10
ATOM     10  C   UNL     1       6.586   2.500   9.041  0.00  0.00    +0.151 C 
BRANCH  10  11
ATOM     11  C   UNL     1       7.224   1.429   9.882  0.00  0.00    -0.028 A 
ATOM     12  C   UNL     1       8.237   0.617   9.352  0.00  0.00    +0.005 A 
ATOM     13  C   UNL     1       6.823   1.226  11.212  0.00  0.00    +0.005 A 
ATOM     14  C   UNL     1       8.851  -0.358  10.143  0.00  0.00    +0.000 A 
ATOM     15  C   UNL     1       7.438   0.251  11.997  0.00  0.00    +0.000 A 
ATOM     16  C   UNL     1       8.453  -0.539  11.463  0.00  0.00    +0.000 A 
ENDBRANCH  10  11
ENDBRANCH   1  10
TORSDOF 2
ENDMDL
MODEL 4
REMARK VINA RESULT:    -4.983      2.653      3.800
REMARK INTER + INTRA:          -5.720
REMARK INTER:                  -5.601
REMARK INTRA:                  -0.119
REMARK UNBOUND:                -0.155
REMARK  Name = 1550473
REMARK  2 active torsions:
REMARK  status: ('A' for Active; 'I' for Inactive)
REMARK    1  A    between atoms: N_1  and  C_4
REMARK    2  A    between atoms: C_4  and  C_5
REMARK                            x       y       z     vdW  Elec       q    Type
REMARK                         _______ _______ _______ _____ _____    ______ ____
ROOT
ATOM      1  N   UNL     1       7.142   1.942  11.201  0.00  0.00    -0.354 N 
ATOM      2  N   UNL     1       5.033   2.895  11.294  0.00  0.00    -0.372 N 
ATOM      3  N   UNL     1       5.824   2.147   9.274  0.00  0.00    -0.372 N 
ATOM      4  C   UNL     1       6.014   2.321  10.586  0.00  0.00    +0.166 C 
ATOM      5  H   UNL     1       7.237   2.129  12.192  0.00  0.00    +0.163 HD
ATOM      6  H   UNL     1       4.169   3.188  10.858  0.00  0.00    +0.159 HD
ATOM      7  H   UNL     1       5.112   3.039  12.293  0.00  0.00    +0.159 HD
ATOM      8  H   UNL     1       6.528   1.726   8.682  0.00  0.00    +0.159 HD
ATOM      9  H   UNL     1       4.971   2.445   8.817  0.00  0.00    +0.159 HD
ENDROOT
BRANCH   1  10
ATOM     10  C   UNL     1       8.249   1.260  10.531  0.00  0.00    +0.151 C 
BRANCH  10  11
ATOM     11  C   UNL     1       8.995   0.429  11.538  0.00  0.00    -0.028 A 
ATOM     12  C   UNL     1       8.303  -0.425  12.409  0.00  0.00    +0.005 A 
ATOM     13  C   UNL     1      10.395   0.487  11.623  0.00  0.00    +0.005 A 
ATOM     14  C   UNL     1       8.998  -1.220  13.324  0.00  0.00    +0.000 A 
ATOM     15  C   UNL     1      11.085  -0.307  12.538  0.00  0.00    +0.000 A 
ATOM     16  C   UNL     1      10.387  -1.162  13.387  0.00  0.00    +0.000 A 
ENDBRANCH  10  11
ENDBRANCH   1  10
TORSDOF 2
ENDMDL
MODEL 5
REMARK VINA RESULT:    -4.947      1.988      2.469
REMARK INTER + INTRA:          -5.680
REMARK INTER:                  -5.528
REMARK INTRA:                  -0.152
REMARK UNBOUND:                -0.155
REMARK  Name = 1550473
REMARK  2 active torsions:
REMARK  status: ('A' for Active; 'I' for Inactive)
REMARK    1  A    between atoms: N_1  and  C_4
REMARK    2  A    between atoms: C_4  and  C_5
REMARK                            x       y       z     vdW  Elec       q    Type
REMARK                         _______ _______ _______ _____ _____    ______ ____
ROOT
ATOM      1  N   UNL     1       6.361   1.811   8.163  0.00  0.00    -0.354 N 
ATOM      2  N   UNL     1       6.294   0.859   6.053  0.00  0.00    -0.372 N 
ATOM      3  N   UNL     1       6.607   3.125   6.239  0.00  0.00    -0.372 N 
ATOM      4  C   UNL     1       6.421   1.940   6.831  0.00  0.00    +0.166 C 
ATOM      5  H   UNL     1       6.187   0.890   8.550  0.00  0.00    +0.163 HD
ATOM      6  H   UNL     1       6.339   0.925   5.045  0.00  0.00    +0.159 HD
ATOM      7  H   UNL     1       6.167  -0.067   6.443  0.00  0.00    +0.159 HD
ATOM      8  H   UNL     1       6.704   3.980   6.770  0.00  0.00    +0.159 HD
ATOM      9  H   UNL     1       6.643   3.213   5.231  0.00  0.00    +0.159 HD
ENDROOT
BRANCH   1  10
ATOM     10  C   UNL     1       6.541   2.917   9.102  0.00  0.00    +0.151 C 
BRANCH  10  11
ATOM     11  C   UNL     1       7.802   2.693   9.889  0.00  0.00    -0.028 A 
ATOM     12  C   UNL     1       8.519   3.781  10.409  0.00  0.00    +0.005 A 
ATOM     13  C   UNL     1       8.284   1.396  10.122  0.00  0.00    +0.005 A 
ATOM     14  C   UNL     1       9.675   3.572  11.166  0.00  0.00    +0.000 A 
ATOM     15  C   UNL     1       9.439   1.192  10.877  0.00  0.00    +0.000 A 
ATOM     16  C   UNL     1      10.132   2.280  11.401  0.00  0.00    +0.000 A 
ENDBRANCH  10  11
ENDBRANCH   1  10
TORSDOF 2
ENDMDL
MODEL 6
REMARK VINA RESULT:    -4.811      5.500      7.169
REMARK INTER + INTRA:          -5.528
REMARK INTER:                  -5.419
REMARK INTRA:                  -0.109
REMARK UNBOUND:                -0.155
REMARK  Name = 1550473
REMARK  2 active torsions:
REMARK  status: ('A' for Active; 'I' for Inactive)
REMARK    1  A    between atoms: N_1  and  C_4
REMARK    2  A    between atoms: C_4  and  C_5
REMARK                            x       y       z     vdW  Elec       q    Type
REMARK                         _______ _______ _______ _____ _____    ______ ____
ROOT
ATOM      1  N   UNL     1       8.929   4.813   5.856  0.00  0.00    -0.354 N 
ATOM      2  N   UNL     1       7.637   3.110   4.964  0.00  0.00    -0.372 N 
ATOM      3  N   UNL     1       9.327   2.574   6.421  0.00  0.00    -0.372 N 
ATOM      4  C   UNL     1       8.642   3.508   5.754  0.00  0.00    +0.166 C 
ATOM      5  H   UNL     1       8.392   5.469   5.301  0.00  0.00    +0.163 HD
ATOM      6  H   UNL     1       7.394   2.133   4.870  0.00  0.00    +0.159 HD
ATOM      7  H   UNL     1       7.072   3.772   4.447  0.00  0.00    +0.159 HD
ATOM      8  H   UNL     1      10.100   2.808   7.029  0.00  0.00    +0.159 HD
ATOM      9  H   UNL     1       9.107   1.590   6.331  0.00  0.00    +0.159 HD
ENDROOT
BRANCH   1  10
ATOM     10  C   UNL     1       9.968   5.355   6.729  0.00  0.00    +0.151 C 
BRANCH  10  11
ATOM     11  C   UNL     1       9.734   6.829   6.915  0.00  0.00    -0.028 A 
ATOM     12  C   UNL     1       8.499   7.300   7.384  0.00  0.00    +0.005 A 
ATOM     13  C   UNL     1      10.745   7.760   6.629  0.00  0.00    +0.005 A 
ATOM     14  C   UNL     1       8.290   8.667   7.585  0.00  0.00    +0.000 A 
ATOM     15  C   UNL     1      10.533   9.123   6.830  0.00  0.00    +0.000 A 
ATOM     16  C   UNL     1       9.306   9.576   7.310  0.00  0.00    +0.000 A 
ENDBRANCH  10  11
ENDBRANCH   1  10
TORSDOF 2
ENDMDL
MODEL 7
REMARK VINA RESULT:    -4.582      9.038     10.261
REMARK INTER + INTRA:          -5.272
REMARK INTER:                  -5.113
REMARK INTRA:                  -0.160
REMARK UNBOUND:                -0.155
REMARK  Name = 1550473
REMARK  2 active torsions:
REMARK  status: ('A' for Active; 'I' for Inactive)
REMARK    1  A    between atoms: N_1  and  C_4
REMARK    2  A    between atoms: C_4  and  C_5
REMARK                            x       y       z     vdW  Elec       q    Type
REMARK                         _______ _______ _______ _____ _____    ______ ____
ROOT
ATOM      1  N   UNL     1      11.411   9.124   3.789  0.00  0.00    -0.354 N 
ATOM      2  N   UNL     1       9.454   9.766   2.731  0.00  0.00    -0.372 N 
ATOM      3  N   UNL     1      11.208   9.014   1.457  0.00  0.00    -0.372 N 
ATOM      4  C   UNL     1      10.705   9.297   2.664  0.00  0.00    +0.166 C 
ATOM      5  H   UNL     1      10.984   9.385   4.670  0.00  0.00    +0.163 HD
ATOM      6  H   UNL     1       8.895   9.903   1.899  0.00  0.00    +0.159 HD
ATOM      7  H   UNL     1       9.013   9.983   3.617  0.00  0.00    +0.159 HD
ATOM      8  H   UNL     1      12.148   8.663   1.338  0.00  0.00    +0.159 HD
ATOM      9  H   UNL     1      10.669   9.156   0.612  0.00  0.00    +0.159 HD
ENDROOT
BRANCH   1  10
ATOM     10  C   UNL     1      12.763   8.568   3.829  0.00  0.00    +0.151 C 
BRANCH  10  11
ATOM     11  C   UNL     1      12.699   7.157   4.344  0.00  0.00    -0.028 A 
ATOM     12  C   UNL     1      13.626   6.198   3.910  0.00  0.00    +0.005 A 
ATOM     13  C   UNL     1      11.716   6.773   5.269  0.00  0.00    +0.005 A 
ATOM     14  C   UNL     1      13.586   4.894   4.410  0.00  0.00    +0.000 A 
ATOM     15  C   UNL     1      11.678   5.470   5.765  0.00  0.00    +0.000 A 
ATOM     16  C   UNL     1      12.615   4.532   5.338  0.00  0.00    +0.000 A 
ENDBRANCH  10  11
ENDBRANCH   1  10
TORSDOF 2
ENDMDL
MODEL 8
REMARK VINA RESULT:    -4.558     36.419     37.718
REMARK INTER + INTRA:          -5.246
REMARK INTER:                  -5.076
REMARK INTRA:                  -0.170
REMARK UNBOUND:                -0.155
REMARK  Name = 1550473
REMARK  2 active torsions:
REMARK  status: ('A' for Active; 'I' for Inactive)
REMARK    1  A    between atoms: N_1  and  C_4
REMARK    2  A    between atoms: C_4  and  C_5
REMARK                            x       y       z     vdW  Elec       q    Type
REMARK                         _______ _______ _______ _____ _____    ______ ____
ROOT
ATOM      1  N   UNL     1      -5.127 -12.353 -23.483  0.00  0.00    -0.354 N 
ATOM      2  N   UNL     1      -5.435 -10.746 -25.123  0.00  0.00    -0.372 N 
ATOM      3  N   UNL     1      -6.236 -12.866 -25.483  0.00  0.00    -0.372 N 
ATOM      4  C   UNL     1      -5.599 -12.001 -24.687  0.00  0.00    +0.166 C 
ATOM      5  H   UNL     1      -4.626 -11.659 -22.941  0.00  0.00    +0.163 HD
ATOM      6  H   UNL     1      -5.783 -10.451 -26.025  0.00  0.00    +0.159 HD
ATOM      7  H   UNL     1      -4.974 -10.042 -24.559  0.00  0.00    +0.159 HD
ATOM      8  H   UNL     1      -6.387 -13.829 -25.215  0.00  0.00    +0.159 HD
ATOM      9  H   UNL     1      -6.581 -12.592 -26.394  0.00  0.00    +0.159 HD
ENDROOT
BRANCH   1  10
ATOM     10  C   UNL     1      -5.300 -13.679 -22.893  0.00  0.00    +0.151 C 
BRANCH  10  11
ATOM     11  C   UNL     1      -6.444 -13.638 -21.918  0.00  0.00    -0.028 A 
ATOM     12  C   UNL     1      -6.613 -12.538 -21.064  0.00  0.00    +0.005 A 
ATOM     13  C   UNL     1      -7.367 -14.692 -21.848  0.00  0.00    +0.005 A 
ATOM     14  C   UNL     1      -7.693 -12.485 -20.180  0.00  0.00    +0.000 A 
ATOM     15  C   UNL     1      -8.444 -14.636 -20.963  0.00  0.00    +0.000 A 
ATOM     16  C   UNL     1      -8.607 -13.532 -20.130  0.00  0.00    +0.000 A 
ENDBRANCH  10  11
ENDBRANCH   1  10
TORSDOF 2
ENDMDL
MODEL 9
REMARK VINA RESULT:    -4.427      2.021      3.130
REMARK INTER + INTRA:          -5.099
REMARK INTER:                  -4.920
REMARK INTRA:                  -0.179
REMARK UNBOUND:                -0.155
REMARK  Name = 1550473
REMARK  2 active torsions:
REMARK  status: ('A' for Active; 'I' for Inactive)
REMARK    1  A    between atoms: N_1  and  C_4
REMARK    2  A    between atoms: C_4  and  C_5
REMARK                            x       y       z     vdW  Elec       q    Type
REMARK                         _______ _______ _______ _____ _____    ______ ____
ROOT
ATOM      1  N   UNL     1       7.298   1.459   8.625  0.00  0.00    -0.354 N 
ATOM      2  N   UNL     1       5.079   1.934   8.159  0.00  0.00    -0.372 N 
ATOM      3  N   UNL     1       6.048   2.873  10.015  0.00  0.00    -0.372 N 
ATOM      4  C   UNL     1       6.157   2.087   8.939  0.00  0.00    +0.166 C 
ATOM      5  H   UNL     1       7.306   0.853   7.813  0.00  0.00    +0.163 HD
ATOM      6  H   UNL     1       4.206   2.398   8.368  0.00  0.00    +0.159 HD
ATOM      7  H   UNL     1       5.104   1.364   7.322  0.00  0.00    +0.159 HD
ATOM      8  H   UNL     1       6.823   3.025  10.647  0.00  0.00    +0.159 HD
ATOM      9  H   UNL     1       5.179   3.337  10.247  0.00  0.00    +0.159 HD
ENDROOT
BRANCH   1  10
ATOM     10  C   UNL     1       8.543   1.601   9.378  0.00  0.00    +0.151 C 
BRANCH  10  11
ATOM     11  C   UNL     1       8.712   0.408  10.278  0.00  0.00    -0.028 A 
ATOM     12  C   UNL     1       8.809  -0.883   9.737  0.00  0.00    +0.005 A 
ATOM     13  C   UNL     1       8.782   0.562  11.671  0.00  0.00    +0.005 A 
ATOM     14  C   UNL     1       8.996  -1.989  10.571  0.00  0.00    +0.000 A 
ATOM     15  C   UNL     1       8.968  -0.545  12.499  0.00  0.00    +0.000 A 
ATOM     16  C   UNL     1       9.078  -1.819  11.949  0.00  0.00    +0.000 A 
ENDBRANCH  10  11
ENDBRANCH   1  10
TORSDOF 2
ENDMDL
