MODEL 1
REMARK VINA RESULT:    -5.482      0.000      0.000
REMARK INTER + INTRA:          -6.240
REMARK INTER:                  -6.123
REMARK INTRA:                  -0.117
REMARK UNBOUND:                -0.117
REMARK  Name = 1550473
REMARK  2 active torsions:
REMARK  status: ('A' for Active; 'I' for Inactive)
REMARK    1  A    between atoms: N_1  and  C_4
REMARK    2  A    between atoms: C_4  and  C_5
REMARK                            x       y       z     vdW  Elec       q    Type
REMARK                         _______ _______ _______ _____ _____    ______ ____
ROOT
ATOM      1  N   UNL     1      -4.655   6.733  -8.389  0.00  0.00    -0.354 N 
ATOM      2  N   UNL     1      -5.403   6.280 -10.534  0.00  0.00    -0.372 N 
ATOM      3  N   UNL     1      -4.469   8.329 -10.095  0.00  0.00    -0.372 N 
ATOM      4  C   UNL     1      -4.837   7.120  -9.659  0.00  0.00    +0.166 C 
ATOM      5  H   UNL     1      -4.983   5.814  -8.115  0.00  0.00    +0.163 HD
ATOM      6  H   UNL     1      -5.550   6.543 -11.499  0.00  0.00    +0.159 HD
ATOM      7  H   UNL     1      -5.689   5.345 -10.267  0.00  0.00    +0.159 HD
ATOM      8  H   UNL     1      -4.041   9.011  -9.483  0.00  0.00    +0.159 HD
ATOM      9  H   UNL     1      -4.618   8.615 -11.055  0.00  0.00    +0.159 HD
ENDROOT
BRANCH   1  10
ATOM     10  C   UNL     1      -3.998   7.551  -7.371  0.00  0.00    +0.151 C 
BRANCH  10  11
ATOM     11  C   UNL     1      -4.025   6.817  -6.059  0.00  0.00    -0.028 A 
ATOM     12  C   UNL     1      -4.052   5.415  -6.028  0.00  0.00    +0.005 A 
ATOM     13  C   UNL     1      -4.017   7.518  -4.843  0.00  0.00    +0.005 A 
ATOM     14  C   UNL     1      -4.046   4.732  -4.809  0.00  0.00    +0.000 A 
ATOM     15  C   UNL     1      -4.012   6.832  -3.628  0.00  0.00    +0.000 A 
ATOM     16  C   UNL     1      -4.024   5.440  -3.612  0.00  0.00    +0.000 A 
ENDBRANCH  10  11
ENDBRANCH   1  10
TORSDOF 2
ENDMDL
MODEL 2
REMARK VINA RESULT:    -4.847      2.949      3.882
REMARK INTER + INTRA:          -5.531
REMARK INTER:                  -5.396
REMARK INTRA:                  -0.134
REMARK UNBOUND:                -0.117
REMARK  Name = 1550473
REMARK  2 active torsions:
REMARK  status: ('A' for Active; 'I' for Inactive)
REMARK    1  A    between atoms: N_1  and  C_4
REMARK    2  A    between atoms: C_4  and  C_5
REMARK                            x       y       z     vdW  Elec       q    Type
REMARK                         _______ _______ _______ _____ _____    ______ ____
ROOT
ATOM      1  N   UNL     1      -5.121   9.617  -5.341  0.00  0.00    -0.354 N 
ATOM      2  N   UNL     1      -5.218  11.464  -6.735  0.00  0.00    -0.372 N 
ATOM      3  N   UNL     1      -4.083  11.632  -4.748  0.00  0.00    -0.372 N 
ATOM      4  C   UNL     1      -4.805  10.893  -5.597  0.00  0.00    +0.166 C 
ATOM      5  H   UNL     1      -5.698   9.120  -6.011  0.00  0.00    +0.163 HD
ATOM      6  H   UNL     1      -4.992  12.424  -6.957  0.00  0.00    +0.159 HD
ATOM      7  H   UNL     1      -5.755  10.951  -7.424  0.00  0.00    +0.159 HD
ATOM      8  H   UNL     1      -3.746  11.262  -3.869  0.00  0.00    +0.159 HD
ATOM      9  H   UNL     1      -3.856  12.598  -4.947  0.00  0.00    +0.159 HD
ENDROOT
BRANCH   1  10
ATOM     10  C   UNL     1      -4.676   8.886  -4.156  0.00  0.00    +0.151 C 
BRANCH  10  11
ATOM     11  C   UNL     1      -4.415   7.453  -4.532  0.00  0.00    -0.028 A 
ATOM     12  C   UNL     1      -4.284   6.470  -3.540  0.00  0.00    +0.005 A 
ATOM     13  C   UNL     1      -4.304   7.072  -5.878  0.00  0.00    +0.005 A 
ATOM     14  C   UNL     1      -4.072   5.134  -3.890  0.00  0.00    +0.000 A 
ATOM     15  C   UNL     1      -4.091   5.737  -6.222  0.00  0.00    +0.000 A 
ATOM     16  C   UNL     1      -3.977   4.768  -5.228  0.00  0.00    +0.000 A 
ENDBRANCH  10  11
ENDBRANCH   1  10
TORSDOF 2
ENDMDL
MODEL 3
REMARK VINA RESULT:    -4.761     10.774     11.578
REMARK INTER + INTRA:          -5.435
REMARK INTER:                  -5.330
REMARK INTRA:                  -0.105
REMARK UNBOUND:                -0.117
REMARK  Name = 1550473
REMARK  2 active torsions:
REMARK  status: ('A' for Active; 'I' for Inactive)
REMARK    1  A    between atoms: N_1  and  C_4
REMARK    2  A    between atoms: C_4  and  C_5
REMARK                            x       y       z     vdW  Elec       q    Type
REMARK                         _______ _______ _______ _____ _____    ______ ____
ROOT
ATOM      1  N   UNL     1       3.226  -2.698  -8.420  0.00  0.00    -0.354 N 
ATOM      2  N   UNL     1       2.742  -4.962  -8.377  0.00  0.00    -0.372 N 
ATOM      3  N   UNL     1       4.663  -4.258  -9.415  0.00  0.00    -0.372 N 
ATOM      4  C   UNL     1       3.549  -3.958  -8.739  0.00  0.00    +0.166 C 
ATOM      5  H   UNL     1       2.353  -2.533  -7.933  0.00  0.00    +0.163 HD
ATOM      6  H   UNL     1       2.961  -5.923  -8.601  0.00  0.00    +0.159 HD
ATOM      7  H   UNL     1       1.892  -4.799  -7.850  0.00  0.00    +0.159 HD
ATOM      8  H   UNL     1       5.312  -3.546  -9.723  0.00  0.00    +0.159 HD
ATOM      9  H   UNL     1       4.894  -5.214  -9.659  0.00  0.00    +0.159 HD
ENDROOT
BRANCH   1  10
ATOM     10  C   UNL     1       4.064  -1.538  -8.720  0.00  0.00    +0.151 C 
BRANCH  10  11
ATOM     11  C   UNL     1       3.632  -0.384  -7.858  0.00  0.00    -0.028 A 
ATOM     12  C   UNL     1       2.282  -0.009  -7.794  0.00  0.00    +0.005 A 
ATOM     13  C   UNL     1       4.567   0.336  -7.099  0.00  0.00    +0.005 A 
ATOM     14  C   UNL     1       1.876   1.044  -6.971  0.00  0.00    +0.000 A 
ATOM     15  C   UNL     1       4.158   1.387  -6.278  0.00  0.00    +0.000 A 
ATOM     16  C   UNL     1       2.812   1.739  -6.213  0.00  0.00    +0.000 A 
ENDBRANCH  10  11
ENDBRANCH   1  10
TORSDOF 2
ENDMDL
MODEL 4
REMARK VINA RESULT:    -4.590     29.474     31.299
REMARK INTER + INTRA:          -5.243
REMARK INTER:                  -5.139
REMARK INTRA:                  -0.104
REMARK UNBOUND:                -0.117
REMARK  Name = 1550473
REMARK  2 active torsions:
REMARK  status: ('A' for Active; 'I' for Inactive)
REMARK    1  A    between atoms: N_1  and  C_4
REMARK    2  A    between atoms: C_4  and  C_5
REMARK                            x       y       z     vdW  Elec       q    Type
REMARK                         _______ _______ _______ _____ _____    ______ ____
ROOT
ATOM      1  N   UNL     1      11.523  -3.231  16.888  0.00  0.00    -0.354 N 
ATOM      2  N   UNL     1      10.643  -1.126  16.492  0.00  0.00    -0.372 N 
ATOM      3  N   UNL     1       9.239  -2.803  17.188  0.00  0.00    -0.372 N 
ATOM      4  C   UNL     1      10.472  -2.402  16.859  0.00  0.00    +0.166 C 
ATOM      5  H   UNL     1      12.427  -2.873  16.599  0.00  0.00    +0.163 HD
ATOM      6  H   UNL     1       9.868  -0.476  16.464  0.00  0.00    +0.159 HD
ATOM      7  H   UNL     1      11.554  -0.759  16.247  0.00  0.00    +0.159 HD
ATOM      8  H   UNL     1       9.042  -3.754  17.468  0.00  0.00    +0.159 HD
ATOM      9  H   UNL     1       8.449  -2.170  17.154  0.00  0.00    +0.159 HD
ENDROOT
BRANCH   1  10
ATOM     10  C   UNL     1      11.454  -4.624  17.325  0.00  0.00    +0.151 C 
BRANCH  10  11
ATOM     11  C   UNL     1      12.772  -5.292  17.047  0.00  0.00    -0.028 A 
ATOM     12  C   UNL     1      13.474  -5.939  18.075  0.00  0.00    +0.005 A 
ATOM     13  C   UNL     1      13.322  -5.288  15.755  0.00  0.00    +0.005 A 
ATOM     14  C   UNL     1      14.684  -6.585  17.810  0.00  0.00    +0.000 A 
ATOM     15  C   UNL     1      14.531  -5.934  15.496  0.00  0.00    +0.000 A 
ATOM     16  C   UNL     1      15.210  -6.584  16.523  0.00  0.00    +0.000 A 
ENDBRANCH  10  11
ENDBRANCH   1  10
TORSDOF 2
ENDMDL
MODEL 5
REMARK VINA RESULT:    -4.456      4.579      6.097
REMARK INTER + INTRA:          -5.094
REMARK INTER:                  -4.970
REMARK INTRA:                  -0.124
REMARK UNBOUND:                -0.117
REMARK  Name = 1550473
REMARK  2 active torsions:
REMARK  status: ('A' for Active; 'I' for Inactive)
REMARK    1  A    between atoms: N_1  and  C_4
REMARK    2  A    between atoms: C_4  and  C_5
REMARK                            x       y       z     vdW  Elec       q    Type
REMARK                         _______ _______ _______ _____ _____    ______ ____
ROOT
ATOM      1  N   UNL     1      -5.969   7.053  -1.586  0.00  0.00    -0.354 N 
ATOM      2  N   UNL     1      -6.499   7.046   0.669  0.00  0.00    -0.372 N 
ATOM      3  N   UNL     1      -6.737   8.994  -0.521  0.00  0.00    -0.372 N 
ATOM      4  C   UNL     1      -6.399   7.701  -0.495  0.00  0.00    +0.166 C 
ATOM      5  H   UNL     1      -5.699   6.081  -1.494  0.00  0.00    +0.163 HD
ATOM      6  H   UNL     1      -6.823   7.508   1.508  0.00  0.00    +0.159 HD
ATOM      7  H   UNL     1      -6.272   6.063   0.748  0.00  0.00    +0.159 HD
ATOM      8  H   UNL     1      -6.678   9.546  -1.366  0.00  0.00    +0.159 HD
ATOM      9  H   UNL     1      -7.053   9.476   0.312  0.00  0.00    +0.159 HD
ENDROOT
BRANCH   1  10
ATOM     10  C   UNL     1      -5.875   7.660  -2.913  0.00  0.00    +0.151 C 
BRANCH  10  11
ATOM     11  C   UNL     1      -5.106   6.740  -3.820  0.00  0.00    -0.028 A 
ATOM     12  C   UNL     1      -4.456   5.610  -3.303  0.00  0.00    +0.005 A 
ATOM     13  C   UNL     1      -5.026   6.991  -5.198  0.00  0.00    +0.005 A 
ATOM     14  C   UNL     1      -3.766   4.739  -4.150  0.00  0.00    +0.000 A 
ATOM     15  C   UNL     1      -4.336   6.120  -6.040  0.00  0.00    +0.000 A 
ATOM     16  C   UNL     1      -3.708   4.992  -5.516  0.00  0.00    +0.000 A 
ENDBRANCH  10  11
ENDBRANCH   1  10
TORSDOF 2
ENDMDL
MODEL 6
REMARK VINA RESULT:    -4.404      3.857      5.596
REMARK INTER + INTRA:          -5.035
REMARK INTER:                  -4.917
REMARK INTRA:                  -0.119
REMARK UNBOUND:                -0.117
REMARK  Name = 1550473
REMARK  2 active torsions:
REMARK  status: ('A' for Active; 'I' for Inactive)
REMARK    1  A    between atoms: N_1  and  C_4
REMARK    2  A    between atoms: C_4  and  C_5
REMARK                            x       y       z     vdW  Elec       q    Type
REMARK                         _______ _______ _______ _____ _____    ______ ____
ROOT
ATOM      1  N   UNL     1      -4.105   9.364  -9.387  0.00  0.00    -0.354 N 
ATOM      2  N   UNL     1      -3.324  11.532  -9.621  0.00  0.00    -0.372 N 
ATOM      3  N   UNL     1      -4.930  11.096  -8.042  0.00  0.00    -0.372 N 
ATOM      4  C   UNL     1      -4.127  10.650  -9.013  0.00  0.00    +0.166 C 
ATOM      5  H   UNL     1      -3.495   9.095 -10.151  0.00  0.00    +0.163 HD
ATOM      6  H   UNL     1      -3.316  12.508  -9.358  0.00  0.00    +0.159 HD
ATOM      7  H   UNL     1      -2.682  11.252 -10.353  0.00  0.00    +0.159 HD
ATOM      8  H   UNL     1      -5.565  10.483  -7.548  0.00  0.00    +0.159 HD
ATOM      9  H   UNL     1      -4.945  12.072  -7.772  0.00  0.00    +0.159 HD
ENDROOT
BRANCH   1  10
ATOM     10  C   UNL     1      -4.900   8.314  -8.753  0.00  0.00    +0.151 C 
BRANCH  10  11
ATOM     11  C   UNL     1      -5.486   7.430  -9.819  0.00  0.00    -0.028 A 
ATOM     12  C   UNL     1      -6.688   7.778 -10.452  0.00  0.00    +0.005 A 
ATOM     13  C   UNL     1      -4.840   6.245 -10.205  0.00  0.00    +0.005 A 
ATOM     14  C   UNL     1      -7.216   6.972 -11.463  0.00  0.00    +0.000 A 
ATOM     15  C   UNL     1      -5.371   5.443 -11.214  0.00  0.00    +0.000 A 
ATOM     16  C   UNL     1      -6.558   5.808 -11.845  0.00  0.00    +0.000 A 
ENDBRANCH  10  11
ENDBRANCH   1  10
TORSDOF 2
ENDMDL
MODEL 7
REMARK VINA RESULT:    -4.228     20.532     21.863
REMARK INTER + INTRA:          -4.839
REMARK INTER:                  -4.669
REMARK INTRA:                  -0.170
REMARK UNBOUND:                -0.117
REMARK  Name = 1550473
REMARK  2 active torsions:
REMARK  status: ('A' for Active; 'I' for Inactive)
REMARK    1  A    between atoms: N_1  and  C_4
REMARK    2  A    between atoms: C_4  and  C_5
REMARK                            x       y       z     vdW  Elec       q    Type
REMARK                         _______ _______ _______ _____ _____    ______ ____
ROOT
ATOM      1  N   UNL     1      11.380   2.237   5.839  0.00  0.00    -0.354 N 
ATOM      2  N   UNL     1       9.452   2.617   4.613  0.00  0.00    -0.372 N 
ATOM      3  N   UNL     1      11.169   4.133   4.477  0.00  0.00    -0.372 N 
ATOM      4  C   UNL     1      10.681   2.996   4.984  0.00  0.00    +0.166 C 
ATOM      5  H   UNL     1      10.942   1.402   6.211  0.00  0.00    +0.163 HD
ATOM      6  H   UNL     1       8.902   3.167   3.967  0.00  0.00    +0.159 HD
ATOM      7  H   UNL     1       9.035   1.758   4.950  0.00  0.00    +0.159 HD
ATOM      8  H   UNL     1      12.088   4.477   4.722  0.00  0.00    +0.159 HD
ATOM      9  H   UNL     1      10.630   4.703   3.838  0.00  0.00    +0.159 HD
ENDROOT
BRANCH   1  10
ATOM     10  C   UNL     1      12.747   2.532   6.265  0.00  0.00    +0.151 C 
BRANCH  10  11
ATOM     11  C   UNL     1      12.719   3.067   7.670  0.00  0.00    -0.028 A 
ATOM     12  C   UNL     1      12.125   2.326   8.702  0.00  0.00    +0.005 A 
ATOM     13  C   UNL     1      13.291   4.311   7.977  0.00  0.00    +0.005 A 
ATOM     14  C   UNL     1      12.126   2.808  10.013  0.00  0.00    +0.000 A 
ATOM     15  C   UNL     1      13.289   4.789   9.288  0.00  0.00    +0.000 A 
ATOM     16  C   UNL     1      12.708   4.037  10.305  0.00  0.00    +0.000 A 
ENDBRANCH  10  11
ENDBRANCH   1  10
TORSDOF 2
ENDMDL
MODEL 8
REMARK VINA RESULT:    -4.225     11.263     12.169
REMARK INTER + INTRA:          -4.836
REMARK INTER:                  -4.728
REMARK INTRA:                  -0.107
REMARK UNBOUND:                -0.117
REMARK  Name = 1550473
REMARK  2 active torsions:
REMARK  status: ('A' for Active; 'I' for Inactive)
REMARK    1  A    between atoms: N_1  and  C_4
REMARK    2  A    between atoms: C_4  and  C_5
REMARK                            x       y       z     vdW  Elec       q    Type
REMARK                         _______ _______ _______ _____ _____    ______ ____
ROOT
ATOM      1  N   UNL     1       5.643  -1.858  -6.935  0.00  0.00    -0.354 N 
ATOM      2  N   UNL     1       6.570  -3.589  -5.706  0.00  0.00    -0.372 N 
ATOM      3  N   UNL     1       7.871  -1.767  -6.212  0.00  0.00    -0.372 N 
ATOM      4  C   UNL     1       6.691  -2.392  -6.293  0.00  0.00    +0.166 C 
ATOM      5  H   UNL     1       4.785  -2.395  -6.986  0.00  0.00    +0.163 HD
ATOM      6  H   UNL     1       7.342  -4.015  -5.212  0.00  0.00    +0.159 HD
ATOM      7  H   UNL     1       5.698  -4.103  -5.720  0.00  0.00    +0.159 HD
ATOM      8  H   UNL     1       8.029  -0.864  -6.639  0.00  0.00    +0.159 HD
ATOM      9  H   UNL     1       8.659  -2.183  -5.732  0.00  0.00    +0.159 HD
ENDROOT
BRANCH   1  10
ATOM     10  C   UNL     1       5.654  -0.537  -7.561  0.00  0.00    +0.151 C 
BRANCH  10  11
ATOM     11  C   UNL     1       4.343   0.147  -7.287  0.00  0.00    -0.028 A 
ATOM     12  C   UNL     1       3.184  -0.233  -7.978  0.00  0.00    +0.005 A 
ATOM     13  C   UNL     1       4.253   1.173  -6.333  0.00  0.00    +0.005 A 
ATOM     14  C   UNL     1       1.960   0.382  -7.703  0.00  0.00    +0.000 A 
ATOM     15  C   UNL     1       3.029   1.784  -6.061  0.00  0.00    +0.000 A 
ATOM     16  C   UNL     1       1.883   1.387  -6.745  0.00  0.00    +0.000 A 
ENDBRANCH  10  11
ENDBRANCH   1  10
TORSDOF 2
ENDMDL
MODEL 9
REMARK VINA RESULT:    -4.159      1.712      2.324
REMARK INTER + INTRA:          -4.762
REMARK INTER:                  -4.600
REMARK INTRA:                  -0.163
REMARK UNBOUND:                -0.117
REMARK  Name = 1550473
REMARK  2 active torsions:
REMARK  status: ('A' for Active; 'I' for Inactive)
REMARK    1  A    between atoms: N_1  and  C_4
REMARK    2  A    between atoms: C_4  and  C_5
REMARK                            x       y       z     vdW  Elec       q    Type
REMARK                         _______ _______ _______ _____ _____    ______ ____
ROOT
ATOM      1  N   UNL     1      -4.721   9.634  -8.267  0.00  0.00    -0.354 N 
ATOM      2  N   UNL     1      -3.301  10.644  -9.793  0.00  0.00    -0.372 N 
ATOM      3  N   UNL     1      -4.469   8.777 -10.434  0.00  0.00    -0.372 N 
ATOM      4  C   UNL     1      -4.174   9.676  -9.490  0.00  0.00    +0.166 C 
ATOM      5  H   UNL     1      -4.432  10.327  -7.587  0.00  0.00    +0.163 HD
ATOM      6  H   UNL     1      -2.874  10.704 -10.707  0.00  0.00    +0.159 HD
ATOM      7  H   UNL     1      -3.049  11.363  -9.125  0.00  0.00    +0.159 HD
ATOM      8  H   UNL     1      -5.116   8.017 -10.267  0.00  0.00    +0.159 HD
ATOM      9  H   UNL     1      -4.044   8.813 -11.352  0.00  0.00    +0.159 HD
ENDROOT
BRANCH   1  10
ATOM     10  C   UNL     1      -5.722   8.652  -7.853  0.00  0.00    +0.151 C 
BRANCH  10  11
ATOM     11  C   UNL     1      -5.163   7.824  -6.730  0.00  0.00    -0.028 A 
ATOM     12  C   UNL     1      -4.248   6.793  -6.993  0.00  0.00    +0.005 A 
ATOM     13  C   UNL     1      -5.539   8.067  -5.400  0.00  0.00    +0.005 A 
ATOM     14  C   UNL     1      -3.706   6.043  -5.947  0.00  0.00    +0.000 A 
ATOM     15  C   UNL     1      -4.995   7.315  -4.359  0.00  0.00    +0.000 A 
ATOM     16  C   UNL     1      -4.077   6.305  -4.633  0.00  0.00    +0.000 A 
ENDBRANCH  10  11
ENDBRANCH   1  10
TORSDOF 2
ENDMDL
