MODEL 1
REMARK VINA RESULT:    -6.879      0.000      0.000
REMARK INTER + INTRA:          -7.804
REMARK INTER:                  -7.684
REMARK INTRA:                  -0.120
REMARK UNBOUND:                -0.120
REMARK  Name = 1550473
REMARK  2 active torsions:
REMARK  status: ('A' for Active; 'I' for Inactive)
REMARK    1  A    between atoms: N_1  and  C_4
REMARK    2  A    between atoms: C_4  and  C_5
REMARK                            x       y       z     vdW  Elec       q    Type
REMARK                         _______ _______ _______ _____ _____    ______ ____
ROOT
ATOM      1  N   UNL     1       8.755  14.350  -8.859  0.00  0.00    -0.354 N 
ATOM      2  N   UNL     1      10.667  14.407 -10.164  0.00  0.00    -0.372 N 
ATOM      3  N   UNL     1       8.848  13.228 -10.914  0.00  0.00    -0.372 N 
ATOM      4  C   UNL     1       9.409  13.993  -9.972  0.00  0.00    +0.166 C 
ATOM      5  H   UNL     1       9.247  14.907  -8.169  0.00  0.00    +0.163 HD
ATOM      6  H   UNL     1      11.185  14.156 -10.996  0.00  0.00    +0.159 HD
ATOM      7  H   UNL     1      11.141  15.001  -9.494  0.00  0.00    +0.159 HD
ATOM      8  H   UNL     1       7.903  12.877 -10.826  0.00  0.00    +0.159 HD
ATOM      9  H   UNL     1       9.354  12.956 -11.748  0.00  0.00    +0.159 HD
ENDROOT
BRANCH   1  10
ATOM     10  C   UNL     1       7.364  13.997  -8.579  0.00  0.00    +0.151 C 
BRANCH  10  11
ATOM     11  C   UNL     1       6.983  14.536  -7.228  0.00  0.00    -0.028 A 
ATOM     12  C   UNL     1       5.634  14.693  -6.879  0.00  0.00    +0.005 A 
ATOM     13  C   UNL     1       7.966  14.887  -6.290  0.00  0.00    +0.005 A 
ATOM     14  C   UNL     1       5.278  15.166  -5.613  0.00  0.00    +0.000 A 
ATOM     15  C   UNL     1       7.608  15.360  -5.028  0.00  0.00    +0.000 A 
ATOM     16  C   UNL     1       6.264  15.497  -4.689  0.00  0.00    +0.000 A 
ENDBRANCH  10  11
ENDBRANCH   1  10
TORSDOF 2
ENDMDL
MODEL 2
REMARK VINA RESULT:    -6.841      0.648      1.580
REMARK INTER + INTRA:          -7.761
REMARK INTER:                  -7.634
REMARK INTRA:                  -0.127
REMARK UNBOUND:                -0.120
REMARK  Name = 1550473
REMARK  2 active torsions:
REMARK  status: ('A' for Active; 'I' for Inactive)
REMARK    1  A    between atoms: N_1  and  C_4
REMARK    2  A    between atoms: C_4  and  C_5
REMARK                            x       y       z     vdW  Elec       q    Type
REMARK                         _______ _______ _______ _____ _____    ______ ____
ROOT
ATOM      1  N   UNL     1       8.442  14.087  -8.666  0.00  0.00    -0.354 N 
ATOM      2  N   UNL     1      10.183  14.048 -10.193  0.00  0.00    -0.372 N 
ATOM      3  N   UNL     1       8.026  14.144 -10.972  0.00  0.00    -0.372 N 
ATOM      4  C   UNL     1       8.870  14.093  -9.935  0.00  0.00    +0.166 C 
ATOM      5  H   UNL     1       9.131  14.017  -7.926  0.00  0.00    +0.163 HD
ATOM      6  H   UNL     1      10.536  14.055 -11.141  0.00  0.00    +0.159 HD
ATOM      7  H   UNL     1      10.871  14.025  -9.451  0.00  0.00    +0.159 HD
ATOM      8  H   UNL     1       7.024  14.173 -10.845  0.00  0.00    +0.159 HD
ATOM      9  H   UNL     1       8.360  14.140 -11.927  0.00  0.00    +0.159 HD
ENDROOT
BRANCH   1  10
ATOM     10  C   UNL     1       7.036  14.187  -8.277  0.00  0.00    +0.151 C 
BRANCH  10  11
ATOM     11  C   UNL     1       6.954  14.678  -6.858  0.00  0.00    -0.028 A 
ATOM     12  C   UNL     1       8.121  14.931  -6.122  0.00  0.00    +0.005 A 
ATOM     13  C   UNL     1       5.711  14.898  -6.245  0.00  0.00    +0.005 A 
ATOM     14  C   UNL     1       8.045  15.415  -4.814  0.00  0.00    +0.000 A 
ATOM     15  C   UNL     1       5.639  15.381  -4.938  0.00  0.00    +0.000 A 
ATOM     16  C   UNL     1       6.806  15.642  -4.224  0.00  0.00    +0.000 A 
ENDBRANCH  10  11
ENDBRANCH   1  10
TORSDOF 2
ENDMDL
MODEL 3
REMARK VINA RESULT:    -6.733      1.298      1.458
REMARK INTER + INTRA:          -7.641
REMARK INTER:                  -7.503
REMARK INTRA:                  -0.137
REMARK UNBOUND:                -0.120
REMARK  Name = 1550473
REMARK  2 active torsions:
REMARK  status: ('A' for Active; 'I' for Inactive)
REMARK    1  A    between atoms: N_1  and  C_4
REMARK    2  A    between atoms: C_4  and  C_5
REMARK                            x       y       z     vdW  Elec       q    Type
REMARK                         _______ _______ _______ _____ _____    ______ ____
ROOT
ATOM      1  N   UNL     1       7.213  13.353  -9.230  0.00  0.00    -0.354 N 
ATOM      2  N   UNL     1       8.721  12.769 -10.888  0.00  0.00    -0.372 N 
ATOM      3  N   UNL     1       7.028  14.233 -11.393  0.00  0.00    -0.372 N 
ATOM      4  C   UNL     1       7.642  13.457 -10.494  0.00  0.00    +0.166 C 
ATOM      5  H   UNL     1       7.704  12.724  -8.605  0.00  0.00    +0.163 HD
ATOM      6  H   UNL     1       9.070  12.831 -11.835  0.00  0.00    +0.159 HD
ATOM      7  H   UNL     1       9.237  12.177 -10.249  0.00  0.00    +0.159 HD
ATOM      8  H   UNL     1       6.205  14.774 -11.161  0.00  0.00    +0.159 HD
ATOM      9  H   UNL     1       7.355  14.299 -12.349  0.00  0.00    +0.159 HD
ENDROOT
BRANCH   1  10
ATOM     10  C   UNL     1       6.081  14.101  -8.686  0.00  0.00    +0.151 C 
BRANCH  10  11
ATOM     11  C   UNL     1       6.434  14.595  -7.310  0.00  0.00    -0.028 A 
ATOM     12  C   UNL     1       5.428  14.868  -6.372  0.00  0.00    +0.005 A 
ATOM     13  C   UNL     1       7.773  14.788  -6.938  0.00  0.00    +0.005 A 
ATOM     14  C   UNL     1       5.757  15.299  -5.084  0.00  0.00    +0.000 A 
ATOM     15  C   UNL     1       8.097  15.219  -5.651  0.00  0.00    +0.000 A 
ATOM     16  C   UNL     1       7.089  15.472  -4.724  0.00  0.00    +0.000 A 
ENDBRANCH  10  11
ENDBRANCH   1  10
TORSDOF 2
ENDMDL
MODEL 4
REMARK VINA RESULT:    -6.077      2.851      4.821
REMARK INTER + INTRA:          -6.908
REMARK INTER:                  -6.783
REMARK INTRA:                  -0.124
REMARK UNBOUND:                -0.120
REMARK  Name = 1550473
REMARK  2 active torsions:
REMARK  status: ('A' for Active; 'I' for Inactive)
REMARK    1  A    between atoms: N_1  and  C_4
REMARK    2  A    between atoms: C_4  and  C_5
REMARK                            x       y       z     vdW  Elec       q    Type
REMARK                         _______ _______ _______ _____ _____    ______ ____
ROOT
ATOM      1  N   UNL     1       7.210  15.027  -5.809  0.00  0.00    -0.354 N 
ATOM      2  N   UNL     1       8.587  15.225  -3.957  0.00  0.00    -0.372 N 
ATOM      3  N   UNL     1       6.316  15.118  -3.645  0.00  0.00    -0.372 N 
ATOM      4  C   UNL     1       7.359  15.122  -4.482  0.00  0.00    +0.166 C 
ATOM      5  H   UNL     1       8.039  15.066  -6.391  0.00  0.00    +0.163 HD
ATOM      6  H   UNL     1       8.731  15.295  -2.959  0.00  0.00    +0.159 HD
ATOM      7  H   UNL     1       9.416  15.219  -4.538  0.00  0.00    +0.159 HD
ATOM      8  H   UNL     1       5.363  15.049  -3.978  0.00  0.00    +0.159 HD
ATOM      9  H   UNL     1       6.439  15.199  -2.644  0.00  0.00    +0.159 HD
ENDROOT
BRANCH   1  10
ATOM     10  C   UNL     1       5.921  14.856  -6.477  0.00  0.00    +0.151 C 
BRANCH  10  11
ATOM     11  C   UNL     1       6.157  14.431  -7.900  0.00  0.00    -0.028 A 
ATOM     12  C   UNL     1       5.075  14.172  -8.755  0.00  0.00    +0.005 A 
ATOM     13  C   UNL     1       7.460  14.289  -8.401  0.00  0.00    +0.005 A 
ATOM     14  C   UNL     1       5.294  13.806 -10.085  0.00  0.00    +0.000 A 
ATOM     15  C   UNL     1       7.674  13.923  -9.730  0.00  0.00    +0.000 A 
ATOM     16  C   UNL     1       6.591  13.683 -10.572  0.00  0.00    +0.000 A 
ENDBRANCH  10  11
ENDBRANCH   1  10
TORSDOF 2
ENDMDL
MODEL 5
REMARK VINA RESULT:    -5.959      1.716      2.620
REMARK INTER + INTRA:          -6.775
REMARK INTER:                  -6.653
REMARK INTRA:                  -0.122
REMARK UNBOUND:                -0.120
REMARK  Name = 1550473
REMARK  2 active torsions:
REMARK  status: ('A' for Active; 'I' for Inactive)
REMARK    1  A    between atoms: N_1  and  C_4
REMARK    2  A    between atoms: C_4  and  C_5
REMARK                            x       y       z     vdW  Elec       q    Type
REMARK                         _______ _______ _______ _____ _____    ______ ____
ROOT
ATOM      1  N   UNL     1       6.575  13.878 -10.196  0.00  0.00    -0.354 N 
ATOM      2  N   UNL     1       5.692  13.430 -12.290  0.00  0.00    -0.372 N 
ATOM      3  N   UNL     1       7.964  13.306 -11.995  0.00  0.00    -0.372 N 
ATOM      4  C   UNL     1       6.752  13.541 -11.480  0.00  0.00    +0.166 C 
ATOM      5  H   UNL     1       5.634  14.072  -9.875  0.00  0.00    +0.163 HD
ATOM      6  H   UNL     1       5.794  13.174 -13.262  0.00  0.00    +0.159 HD
ATOM      7  H   UNL     1       4.748  13.580 -11.955  0.00  0.00    +0.159 HD
ATOM      8  H   UNL     1       8.805  13.379 -11.438  0.00  0.00    +0.159 HD
ATOM      9  H   UNL     1       8.088  13.060 -12.969  0.00  0.00    +0.159 HD
ENDROOT
BRANCH   1  10
ATOM     10  C   UNL     1       7.658  13.973  -9.219  0.00  0.00    +0.151 C 
BRANCH  10  11
ATOM     11  C   UNL     1       7.086  14.385  -7.890  0.00  0.00    -0.028 A 
ATOM     12  C   UNL     1       7.933  14.697  -6.816  0.00  0.00    +0.005 A 
ATOM     13  C   UNL     1       5.698  14.470  -7.700  0.00  0.00    +0.005 A 
ATOM     14  C   UNL     1       7.402  15.109  -5.591  0.00  0.00    +0.000 A 
ATOM     15  C   UNL     1       5.173  14.881  -6.475  0.00  0.00    +0.000 A 
ATOM     16  C   UNL     1       6.025  15.202  -5.422  0.00  0.00    +0.000 A 
ENDBRANCH  10  11
ENDBRANCH   1  10
TORSDOF 2
ENDMDL
MODEL 6
REMARK VINA RESULT:    -5.863      2.761      3.597
REMARK INTER + INTRA:          -6.669
REMARK INTER:                  -6.535
REMARK INTRA:                  -0.134
REMARK UNBOUND:                -0.120
REMARK  Name = 1550473
REMARK  2 active torsions:
REMARK  status: ('A' for Active; 'I' for Inactive)
REMARK    1  A    between atoms: N_1  and  C_4
REMARK    2  A    between atoms: C_4  and  C_5
REMARK                            x       y       z     vdW  Elec       q    Type
REMARK                         _______ _______ _______ _____ _____    ______ ____
ROOT
ATOM      1  N   UNL     1       4.882  13.947  -8.961  0.00  0.00    -0.354 N 
ATOM      2  N   UNL     1       4.717  12.618 -10.850  0.00  0.00    -0.372 N 
ATOM      3  N   UNL     1       3.158  12.376  -9.185  0.00  0.00    -0.372 N 
ATOM      4  C   UNL     1       4.251  12.988  -9.651  0.00  0.00    +0.166 C 
ATOM      5  H   UNL     1       5.723  14.351  -9.357  0.00  0.00    +0.163 HD
ATOM      6  H   UNL     1       4.260  11.899 -11.396  0.00  0.00    +0.159 HD
ATOM      7  H   UNL     1       5.531  13.055 -11.264  0.00  0.00    +0.159 HD
ATOM      8  H   UNL     1       2.759  12.605  -8.284  0.00  0.00    +0.159 HD
ATOM      9  H   UNL     1       2.693  11.646  -9.710  0.00  0.00    +0.159 HD
ENDROOT
BRANCH   1  10
ATOM     10  C   UNL     1       4.425  14.461  -7.671  0.00  0.00    +0.151 C 
BRANCH  10  11
ATOM     11  C   UNL     1       5.622  14.766  -6.812  0.00  0.00    -0.028 A 
ATOM     12  C   UNL     1       5.457  15.177  -5.482  0.00  0.00    +0.005 A 
ATOM     13  C   UNL     1       6.923  14.640  -7.322  0.00  0.00    +0.005 A 
ATOM     14  C   UNL     1       6.569  15.431  -4.675  0.00  0.00    +0.000 A 
ATOM     15  C   UNL     1       8.031  14.896  -6.514  0.00  0.00    +0.000 A 
ATOM     16  C   UNL     1       7.853  15.289  -5.189  0.00  0.00    +0.000 A 
ENDBRANCH  10  11
ENDBRANCH   1  10
TORSDOF 2
ENDMDL
MODEL 7
REMARK VINA RESULT:    -5.288      2.744      5.120
REMARK INTER + INTRA:          -6.026
REMARK INTER:                  -5.903
REMARK INTRA:                  -0.124
REMARK UNBOUND:                -0.120
REMARK  Name = 1550473
REMARK  2 active torsions:
REMARK  status: ('A' for Active; 'I' for Inactive)
REMARK    1  A    between atoms: N_1  and  C_4
REMARK    2  A    between atoms: C_4  and  C_5
REMARK                            x       y       z     vdW  Elec       q    Type
REMARK                         _______ _______ _______ _____ _____    ______ ____
ROOT
ATOM      1  N   UNL     1       6.246  14.743  -7.025  0.00  0.00    -0.354 N 
ATOM      2  N   UNL     1       5.844  15.312  -4.816  0.00  0.00    -0.372 N 
ATOM      3  N   UNL     1       4.108  14.520  -6.091  0.00  0.00    -0.372 N 
ATOM      4  C   UNL     1       5.399  14.854  -5.993  0.00  0.00    +0.166 C 
ATOM      5  H   UNL     1       7.206  15.041  -6.895  0.00  0.00    +0.163 HD
ATOM      6  H   UNL     1       5.229  15.404  -4.019  0.00  0.00    +0.159 HD
ATOM      7  H   UNL     1       6.814  15.566  -4.676  0.00  0.00    +0.159 HD
ATOM      8  H   UNL     1       3.709  14.174  -6.953  0.00  0.00    +0.159 HD
ATOM      9  H   UNL     1       3.474  14.616  -5.308  0.00  0.00    +0.159 HD
ENDROOT
BRANCH   1  10
ATOM     10  C   UNL     1       5.875  14.205  -8.333  0.00  0.00    +0.151 C 
BRANCH  10  11
ATOM     11  C   UNL     1       7.121  13.985  -9.145  0.00  0.00    -0.028 A 
ATOM     12  C   UNL     1       7.045  13.418 -10.426  0.00  0.00    +0.005 A 
ATOM     13  C   UNL     1       8.380  14.347  -8.642  0.00  0.00    +0.005 A 
ATOM     14  C   UNL     1       8.200  13.241 -11.193  0.00  0.00    +0.000 A 
ATOM     15  C   UNL     1       9.530  14.168  -9.410  0.00  0.00    +0.000 A 
ATOM     16  C   UNL     1       9.439  13.617 -10.686  0.00  0.00    +0.000 A 
ENDBRANCH  10  11
ENDBRANCH   1  10
TORSDOF 2
ENDMDL
MODEL 8
REMARK VINA RESULT:    -5.024     22.972     23.908
REMARK INTER + INTRA:          -5.731
REMARK INTER:                  -5.611
REMARK INTRA:                  -0.120
REMARK UNBOUND:                -0.120
REMARK  Name = 1550473
REMARK  2 active torsions:
REMARK  status: ('A' for Active; 'I' for Inactive)
REMARK    1  A    between atoms: N_1  and  C_4
REMARK    2  A    between atoms: C_4  and  C_5
REMARK                            x       y       z     vdW  Elec       q    Type
REMARK                         _______ _______ _______ _____ _____    ______ ____
ROOT
ATOM      1  N   UNL     1      -7.176  13.230  10.240  0.00  0.00    -0.354 N 
ATOM      2  N   UNL     1      -5.949  12.527  12.074  0.00  0.00    -0.372 N 
ATOM      3  N   UNL     1      -5.549  14.613  11.205  0.00  0.00    -0.372 N 
ATOM      4  C   UNL     1      -6.231  13.464  11.160  0.00  0.00    +0.166 C 
ATOM      5  H   UNL     1      -7.636  12.327  10.241  0.00  0.00    +0.163 HD
ATOM      6  H   UNL     1      -5.244  12.677  12.783  0.00  0.00    +0.159 HD
ATOM      7  H   UNL     1      -6.442  11.643  12.101  0.00  0.00    +0.159 HD
ATOM      8  H   UNL     1      -5.711  15.358  10.541  0.00  0.00    +0.159 HD
ATOM      9  H   UNL     1      -4.831  14.777  11.900  0.00  0.00    +0.159 HD
ENDROOT
BRANCH   1  10
ATOM     10  C   UNL     1      -7.597  14.204   9.234  0.00  0.00    +0.151 C 
BRANCH  10  11
ATOM     11  C   UNL     1      -8.966  13.834   8.735  0.00  0.00    -0.028 A 
ATOM     12  C   UNL     1      -9.937  13.339   9.618  0.00  0.00    +0.005 A 
ATOM     13  C   UNL     1      -9.302  13.982   7.380  0.00  0.00    +0.005 A 
ATOM     14  C   UNL     1     -11.218  13.024   9.161  0.00  0.00    +0.000 A 
ATOM     15  C   UNL     1     -10.582  13.665   6.927  0.00  0.00    +0.000 A 
ATOM     16  C   UNL     1     -11.541  13.188   7.818  0.00  0.00    +0.000 A 
ENDBRANCH  10  11
ENDBRANCH   1  10
TORSDOF 2
ENDMDL
MODEL 9
REMARK VINA RESULT:    -4.972     26.499     27.134
REMARK INTER + INTRA:          -5.674
REMARK INTER:                  -5.574
REMARK INTRA:                  -0.100
REMARK UNBOUND:                -0.120
REMARK  Name = 1550473
REMARK  2 active torsions:
REMARK  status: ('A' for Active; 'I' for Inactive)
REMARK    1  A    between atoms: N_1  and  C_4
REMARK    2  A    between atoms: C_4  and  C_5
REMARK                            x       y       z     vdW  Elec       q    Type
REMARK                         _______ _______ _______ _____ _____    ______ ____
ROOT
ATOM      1  N   UNL     1       9.212 -13.064  -7.444  0.00  0.00    -0.354 N 
ATOM      2  N   UNL     1      10.646 -13.144  -9.261  0.00  0.00    -0.372 N 
ATOM      3  N   UNL     1       9.639 -15.082  -8.557  0.00  0.00    -0.372 N 
ATOM      4  C   UNL     1       9.822 -13.765  -8.408  0.00  0.00    +0.166 C 
ATOM      5  H   UNL     1       9.416 -12.074  -7.366  0.00  0.00    +0.163 HD
ATOM      6  H   UNL     1      11.118 -13.646 -10.001  0.00  0.00    +0.159 HD
ATOM      7  H   UNL     1      10.813 -12.146  -9.209  0.00  0.00    +0.159 HD
ATOM      8  H   UNL     1       9.034 -15.611  -7.942  0.00  0.00    +0.159 HD
ATOM      9  H   UNL     1      10.112 -15.604  -9.284  0.00  0.00    +0.159 HD
ENDROOT
BRANCH   1  10
ATOM     10  C   UNL     1       8.255 -13.635  -6.498  0.00  0.00    +0.151 C 
BRANCH  10  11
ATOM     11  C   UNL     1       7.459 -12.523  -5.873  0.00  0.00    -0.028 A 
ATOM     12  C   UNL     1       7.672 -12.160  -4.535  0.00  0.00    +0.005 A 
ATOM     13  C   UNL     1       6.493 -11.825  -6.614  0.00  0.00    +0.005 A 
ATOM     14  C   UNL     1       6.954 -11.107  -3.963  0.00  0.00    +0.000 A 
ATOM     15  C   UNL     1       5.778 -10.775  -6.039  0.00  0.00    +0.000 A 
ATOM     16  C   UNL     1       6.010 -10.415  -4.714  0.00  0.00    +0.000 A 
ENDBRANCH  10  11
ENDBRANCH   1  10
TORSDOF 2
ENDMDL
