MODEL 1
REMARK VINA RESULT:    -5.067      0.000      0.000
REMARK INTER + INTRA:          -5.828
REMARK INTER:                  -5.660
REMARK INTRA:                  -0.168
REMARK UNBOUND:                -0.168
REMARK  Name = 1550473
REMARK  2 active torsions:
REMARK  status: ('A' for Active; 'I' for Inactive)
REMARK    1  A    between atoms: N_1  and  C_4
REMARK    2  A    between atoms: C_4  and  C_5
REMARK                            x       y       z     vdW  Elec       q    Type
REMARK                         _______ _______ _______ _____ _____    ______ ____
ROOT
ATOM      1  N   UNL     1      -5.482  -6.548 -34.259  0.00  0.00    -0.354 N 
ATOM      2  N   UNL     1      -7.303  -5.835 -35.499  0.00  0.00    -0.372 N 
ATOM      3  N   UNL     1      -6.455  -7.933 -35.879  0.00  0.00    -0.372 N 
ATOM      4  C   UNL     1      -6.401  -6.779 -35.205  0.00  0.00    +0.166 C 
ATOM      5  H   UNL     1      -5.475  -5.641 -33.805  0.00  0.00    +0.163 HD
ATOM      6  H   UNL     1      -8.011  -5.982 -36.206  0.00  0.00    +0.159 HD
ATOM      7  H   UNL     1      -7.323  -4.947 -35.012  0.00  0.00    +0.159 HD
ATOM      8  H   UNL     1      -5.799  -8.683 -35.709  0.00  0.00    +0.159 HD
ATOM      9  H   UNL     1      -7.149  -8.094 -36.599  0.00  0.00    +0.159 HD
ENDROOT
BRANCH   1  10
ATOM     10  C   UNL     1      -4.489  -7.529 -33.826  0.00  0.00    +0.151 C 
BRANCH  10  11
ATOM     11  C   UNL     1      -4.810  -7.969 -32.424  0.00  0.00    -0.028 A 
ATOM     12  C   UNL     1      -5.800  -8.934 -32.190  0.00  0.00    +0.005 A 
ATOM     13  C   UNL     1      -4.125  -7.427 -31.326  0.00  0.00    +0.005 A 
ATOM     14  C   UNL     1      -6.078  -9.365 -30.890  0.00  0.00    +0.000 A 
ATOM     15  C   UNL     1      -4.406  -7.858 -30.030  0.00  0.00    +0.000 A 
ATOM     16  C   UNL     1      -5.381  -8.829 -29.813  0.00  0.00    +0.000 A 
ENDBRANCH  10  11
ENDBRANCH   1  10
TORSDOF 2
ENDMDL
MODEL 2
REMARK VINA RESULT:    -4.845     31.681     32.699
REMARK INTER + INTRA:          -5.580
REMARK INTER:                  -5.422
REMARK INTRA:                  -0.158
REMARK UNBOUND:                -0.168
REMARK  Name = 1550473
REMARK  2 active torsions:
REMARK  status: ('A' for Active; 'I' for Inactive)
REMARK    1  A    between atoms: N_1  and  C_4
REMARK    2  A    between atoms: C_4  and  C_5
REMARK                            x       y       z     vdW  Elec       q    Type
REMARK                         _______ _______ _______ _____ _____    ______ ____
ROOT
ATOM      1  N   UNL     1     -28.491   4.131 -13.240  0.00  0.00    -0.354 N 
ATOM      2  N   UNL     1     -27.033   5.654 -14.197  0.00  0.00    -0.372 N 
ATOM      3  N   UNL     1     -29.271   6.155 -14.128  0.00  0.00    -0.372 N 
ATOM      4  C   UNL     1     -28.277   5.305 -13.849  0.00  0.00    +0.166 C 
ATOM      5  H   UNL     1     -27.699   3.518 -13.084  0.00  0.00    +0.163 HD
ATOM      6  H   UNL     1     -26.840   6.535 -14.655  0.00  0.00    +0.159 HD
ATOM      7  H   UNL     1     -26.237   5.060 -13.999  0.00  0.00    +0.159 HD
ATOM      8  H   UNL     1     -30.233   5.947 -13.897  0.00  0.00    +0.159 HD
ATOM      9  H   UNL     1     -29.099   7.036 -14.596  0.00  0.00    +0.159 HD
ENDROOT
BRANCH   1  10
ATOM     10  C   UNL     1     -29.800   3.680 -12.772  0.00  0.00    +0.151 C 
BRANCH  10  11
ATOM     11  C   UNL     1     -30.271   2.549 -13.645  0.00  0.00    -0.028 A 
ATOM     12  C   UNL     1     -29.400   1.505 -13.989  0.00  0.00    +0.005 A 
ATOM     13  C   UNL     1     -31.589   2.513 -14.126  0.00  0.00    +0.005 A 
ATOM     14  C   UNL     1     -29.845   0.440 -14.776  0.00  0.00    +0.000 A 
ATOM     15  C   UNL     1     -32.029   1.448 -14.911  0.00  0.00    +0.000 A 
ATOM     16  C   UNL     1     -31.158   0.410 -15.234  0.00  0.00    +0.000 A 
ENDBRANCH  10  11
ENDBRANCH   1  10
TORSDOF 2
ENDMDL
MODEL 3
REMARK VINA RESULT:    -4.814     48.395     49.993
REMARK INTER + INTRA:          -5.544
REMARK INTER:                  -5.420
REMARK INTRA:                  -0.125
REMARK UNBOUND:                -0.168
REMARK  Name = 1550473
REMARK  2 active torsions:
REMARK  status: ('A' for Active; 'I' for Inactive)
REMARK    1  A    between atoms: N_1  and  C_4
REMARK    2  A    between atoms: C_4  and  C_5
REMARK                            x       y       z     vdW  Elec       q    Type
REMARK                         _______ _______ _______ _____ _____    ______ ____
ROOT
ATOM      1  N   UNL     1      -5.309  17.953  11.667  0.00  0.00    -0.354 N 
ATOM      2  N   UNL     1      -5.657  19.926  12.831  0.00  0.00    -0.372 N 
ATOM      3  N   UNL     1      -3.992  18.507  13.525  0.00  0.00    -0.372 N 
ATOM      4  C   UNL     1      -4.982  18.781  12.668  0.00  0.00    +0.166 C 
ATOM      5  H   UNL     1      -6.089  18.205  11.071  0.00  0.00    +0.163 HD
ATOM      6  H   UNL     1      -5.430  20.572  13.575  0.00  0.00    +0.159 HD
ATOM      7  H   UNL     1      -6.406  20.196  12.205  0.00  0.00    +0.159 HD
ATOM      8  H   UNL     1      -3.448  17.656  13.460  0.00  0.00    +0.159 HD
ATOM      9  H   UNL     1      -3.758  19.135  14.283  0.00  0.00    +0.159 HD
ENDROOT
BRANCH   1  10
ATOM     10  C   UNL     1      -4.603  16.708  11.371  0.00  0.00    +0.151 C 
BRANCH  10  11
ATOM     11  C   UNL     1      -4.889  16.307   9.950  0.00  0.00    -0.028 A 
ATOM     12  C   UNL     1      -5.287  17.265   9.006  0.00  0.00    +0.005 A 
ATOM     13  C   UNL     1      -4.759  14.971   9.540  0.00  0.00    +0.005 A 
ATOM     14  C   UNL     1      -5.524  16.898   7.679  0.00  0.00    +0.000 A 
ATOM     15  C   UNL     1      -4.997  14.609   8.215  0.00  0.00    +0.000 A 
ATOM     16  C   UNL     1      -5.377  15.572   7.284  0.00  0.00    +0.000 A 
ENDBRANCH  10  11
ENDBRANCH   1  10
TORSDOF 2
ENDMDL
MODEL 4
REMARK VINA RESULT:    -4.525     31.195     32.067
REMARK INTER + INTRA:          -5.222
REMARK INTER:                  -5.083
REMARK INTRA:                  -0.140
REMARK UNBOUND:                -0.168
REMARK  Name = 1550473
REMARK  2 active torsions:
REMARK  status: ('A' for Active; 'I' for Inactive)
REMARK    1  A    between atoms: N_1  and  C_4
REMARK    2  A    between atoms: C_4  and  C_5
REMARK                            x       y       z     vdW  Elec       q    Type
REMARK                         _______ _______ _______ _____ _____    ______ ____
ROOT
ATOM      1  N   UNL     1     -31.798   6.920 -21.247  0.00  0.00    -0.354 N 
ATOM      2  N   UNL     1     -31.625   7.867 -19.140  0.00  0.00    -0.372 N 
ATOM      3  N   UNL     1     -33.602   8.067 -20.287  0.00  0.00    -0.372 N 
ATOM      4  C   UNL     1     -32.346   7.613 -20.239  0.00  0.00    +0.166 C 
ATOM      5  H   UNL     1     -30.831   6.630 -21.162  0.00  0.00    +0.163 HD
ATOM      6  H   UNL     1     -32.012   8.384 -18.363  0.00  0.00    +0.159 HD
ATOM      7  H   UNL     1     -30.673   7.536 -19.039  0.00  0.00    +0.159 HD
ATOM      8  H   UNL     1     -34.197   7.913 -21.091  0.00  0.00    +0.159 HD
ATOM      9  H   UNL     1     -34.004   8.596 -19.524  0.00  0.00    +0.159 HD
ENDROOT
BRANCH   1  10
ATOM     10  C   UNL     1     -32.514   6.543 -22.464  0.00  0.00    +0.151 C 
BRANCH  10  11
ATOM     11  C   UNL     1     -31.698   6.952 -23.660  0.00  0.00    -0.028 A 
ATOM     12  C   UNL     1     -30.888   8.096 -23.612  0.00  0.00    +0.005 A 
ATOM     13  C   UNL     1     -31.727   6.196 -24.842  0.00  0.00    +0.005 A 
ATOM     14  C   UNL     1     -30.107   8.459 -24.712  0.00  0.00    +0.000 A 
ATOM     15  C   UNL     1     -30.947   6.562 -25.938  0.00  0.00    +0.000 A 
ATOM     16  C   UNL     1     -30.135   7.692 -25.872  0.00  0.00    +0.000 A 
ENDBRANCH  10  11
ENDBRANCH   1  10
TORSDOF 2
ENDMDL
MODEL 5
REMARK VINA RESULT:    -4.451     45.907     47.203
REMARK INTER + INTRA:          -5.139
REMARK INTER:                  -4.986
REMARK INTRA:                  -0.154
REMARK UNBOUND:                -0.168
REMARK  Name = 1550473
REMARK  2 active torsions:
REMARK  status: ('A' for Active; 'I' for Inactive)
REMARK    1  A    between atoms: N_1  and  C_4
REMARK    2  A    between atoms: C_4  and  C_5
REMARK                            x       y       z     vdW  Elec       q    Type
REMARK                         _______ _______ _______ _____ _____    ______ ____
ROOT
ATOM      1  N   UNL     1      11.143  17.040   4.448  0.00  0.00    -0.354 N 
ATOM      2  N   UNL     1      11.620  17.291   6.700  0.00  0.00    -0.372 N 
ATOM      3  N   UNL     1      11.463  15.174   5.829  0.00  0.00    -0.372 N 
ATOM      4  C   UNL     1      11.405  16.497   5.644  0.00  0.00    +0.166 C 
ATOM      5  H   UNL     1      11.084  18.049   4.379  0.00  0.00    +0.163 HD
ATOM      6  H   UNL     1      11.824  16.911   7.615  0.00  0.00    +0.159 HD
ATOM      7  H   UNL     1      11.605  18.301   6.619  0.00  0.00    +0.159 HD
ATOM      8  H   UNL     1      11.304  14.520   5.074  0.00  0.00    +0.159 HD
ATOM      9  H   UNL     1      11.653  14.774   6.740  0.00  0.00    +0.159 HD
ENDROOT
BRANCH   1  10
ATOM     10  C   UNL     1      10.948  16.265   3.224  0.00  0.00    +0.151 C 
BRANCH  10  11
ATOM     11  C   UNL     1      12.146  16.443   2.332  0.00  0.00    -0.028 A 
ATOM     12  C   UNL     1      12.948  17.589   2.439  0.00  0.00    +0.005 A 
ATOM     13  C   UNL     1      12.487  15.468   1.383  0.00  0.00    +0.005 A 
ATOM     14  C   UNL     1      14.078  17.741   1.632  0.00  0.00    +0.000 A 
ATOM     15  C   UNL     1      13.616  15.624   0.579  0.00  0.00    +0.000 A 
ATOM     16  C   UNL     1      14.412  16.760   0.705  0.00  0.00    +0.000 A 
ENDBRANCH  10  11
ENDBRANCH   1  10
TORSDOF 2
ENDMDL
MODEL 6
REMARK VINA RESULT:    -4.409     41.004     42.336
REMARK INTER + INTRA:          -5.093
REMARK INTER:                  -4.949
REMARK INTRA:                  -0.144
REMARK UNBOUND:                -0.168
REMARK  Name = 1550473
REMARK  2 active torsions:
REMARK  status: ('A' for Active; 'I' for Inactive)
REMARK    1  A    between atoms: N_1  and  C_4
REMARK    2  A    between atoms: C_4  and  C_5
REMARK                            x       y       z     vdW  Elec       q    Type
REMARK                         _______ _______ _______ _____ _____    ______ ____
ROOT
ATOM      1  N   UNL     1       7.582 -11.475   7.716  0.00  0.00    -0.354 N 
ATOM      2  N   UNL     1       7.824 -10.925   9.952  0.00  0.00    -0.372 N 
ATOM      3  N   UNL     1       8.939  -9.683   8.378  0.00  0.00    -0.372 N 
ATOM      4  C   UNL     1       8.115 -10.696   8.666  0.00  0.00    +0.166 C 
ATOM      5  H   UNL     1       6.989 -12.245   8.001  0.00  0.00    +0.163 HD
ATOM      6  H   UNL     1       8.208 -10.351  10.691  0.00  0.00    +0.159 HD
ATOM      7  H   UNL     1       7.194 -11.667  10.232  0.00  0.00    +0.159 HD
ATOM      8  H   UNL     1       9.204  -9.461   7.428  0.00  0.00    +0.159 HD
ATOM      9  H   UNL     1       9.343  -9.105   9.105  0.00  0.00    +0.159 HD
ENDROOT
BRANCH   1  10
ATOM     10  C   UNL     1       7.793 -11.277   6.283  0.00  0.00    +0.151 C 
BRANCH  10  11
ATOM     11  C   UNL     1       8.532 -12.463   5.726  0.00  0.00    -0.028 A 
ATOM     12  C   UNL     1       7.987 -13.210   4.672  0.00  0.00    +0.005 A 
ATOM     13  C   UNL     1       9.779 -12.842   6.246  0.00  0.00    +0.005 A 
ATOM     14  C   UNL     1       8.687 -14.294   4.134  0.00  0.00    +0.000 A 
ATOM     15  C   UNL     1      10.474 -13.925   5.708  0.00  0.00    +0.000 A 
ATOM     16  C   UNL     1       9.928 -14.649   4.650  0.00  0.00    +0.000 A 
ENDBRANCH  10  11
ENDBRANCH   1  10
TORSDOF 2
ENDMDL
MODEL 7
REMARK VINA RESULT:    -4.394      1.392      2.217
REMARK INTER + INTRA:          -5.076
REMARK INTER:                  -4.911
REMARK INTRA:                  -0.164
REMARK UNBOUND:                -0.168
REMARK  Name = 1550473
REMARK  2 active torsions:
REMARK  status: ('A' for Active; 'I' for Inactive)
REMARK    1  A    between atoms: N_1  and  C_4
REMARK    2  A    between atoms: C_4  and  C_5
REMARK                            x       y       z     vdW  Elec       q    Type
REMARK                         _______ _______ _______ _____ _____    ______ ____
ROOT
ATOM      1  N   UNL     1      -5.757  -6.762 -34.056  0.00  0.00    -0.354 N 
ATOM      2  N   UNL     1      -7.299  -5.839 -35.517  0.00  0.00    -0.372 N 
ATOM      3  N   UNL     1      -5.984  -7.573 -36.243  0.00  0.00    -0.372 N 
ATOM      4  C   UNL     1      -6.335  -6.732 -35.265  0.00  0.00    +0.166 C 
ATOM      5  H   UNL     1      -6.048  -6.078 -33.367  0.00  0.00    +0.163 HD
ATOM      6  H   UNL     1      -7.756  -5.795 -36.418  0.00  0.00    +0.159 HD
ATOM      7  H   UNL     1      -7.620  -5.187 -34.812  0.00  0.00    +0.159 HD
ATOM      8  H   UNL     1      -5.259  -8.267 -36.118  0.00  0.00    +0.159 HD
ATOM      9  H   UNL     1      -6.421  -7.537 -37.156  0.00  0.00    +0.159 HD
ENDROOT
BRANCH   1  10
ATOM     10  C   UNL     1      -4.736  -7.731 -33.662  0.00  0.00    +0.151 C 
BRANCH  10  11
ATOM     11  C   UNL     1      -5.407  -8.933 -33.057  0.00  0.00    -0.028 A 
ATOM     12  C   UNL     1      -6.112  -8.822 -31.849  0.00  0.00    +0.005 A 
ATOM     13  C   UNL     1      -5.346 -10.184 -33.689  0.00  0.00    +0.005 A 
ATOM     14  C   UNL     1      -6.760  -9.932 -31.302  0.00  0.00    +0.000 A 
ATOM     15  C   UNL     1      -5.994 -11.290 -33.139  0.00  0.00    +0.000 A 
ATOM     16  C   UNL     1      -6.703 -11.163 -31.947  0.00  0.00    +0.000 A 
ENDBRANCH  10  11
ENDBRANCH   1  10
TORSDOF 2
ENDMDL
MODEL 8
REMARK VINA RESULT:    -4.338     16.247     17.470
REMARK INTER + INTRA:          -5.013
REMARK INTER:                  -4.869
REMARK INTRA:                  -0.144
REMARK UNBOUND:                -0.168
REMARK  Name = 1550473
REMARK  2 active torsions:
REMARK  status: ('A' for Active; 'I' for Inactive)
REMARK    1  A    between atoms: N_1  and  C_4
REMARK    2  A    between atoms: C_4  and  C_5
REMARK                            x       y       z     vdW  Elec       q    Type
REMARK                         _______ _______ _______ _____ _____    ______ ____
ROOT
ATOM      1  N   UNL     1     -16.391  -2.944 -18.629  0.00  0.00    -0.354 N 
ATOM      2  N   UNL     1     -16.054  -1.980 -16.551  0.00  0.00    -0.372 N 
ATOM      3  N   UNL     1     -15.028  -1.054 -18.382  0.00  0.00    -0.372 N 
ATOM      4  C   UNL     1     -15.825  -1.997 -17.869  0.00  0.00    +0.166 C 
ATOM      5  H   UNL     1     -16.960  -3.649 -18.175  0.00  0.00    +0.163 HD
ATOM      6  H   UNL     1     -15.644  -1.275 -15.952  0.00  0.00    +0.159 HD
ATOM      7  H   UNL     1     -16.661  -2.658 -16.106  0.00  0.00    +0.159 HD
ATOM      8  H   UNL     1     -14.811  -1.015 -19.369  0.00  0.00    +0.159 HD
ATOM      9  H   UNL     1     -14.599  -0.347 -17.798  0.00  0.00    +0.159 HD
ENDROOT
BRANCH   1  10
ATOM     10  C   UNL     1     -16.248  -3.020 -20.082  0.00  0.00    +0.151 C 
BRANCH  10  11
ATOM     11  C   UNL     1     -15.850  -4.419 -20.464  0.00  0.00    -0.028 A 
ATOM     12  C   UNL     1     -15.605  -4.749 -21.805  0.00  0.00    +0.005 A 
ATOM     13  C   UNL     1     -15.711  -5.419 -19.489  0.00  0.00    +0.005 A 
ATOM     14  C   UNL     1     -15.206  -6.041 -22.157  0.00  0.00    +0.000 A 
ATOM     15  C   UNL     1     -15.314  -6.708 -19.844  0.00  0.00    +0.000 A 
ATOM     16  C   UNL     1     -15.059  -7.018 -21.178  0.00  0.00    +0.000 A 
ENDBRANCH  10  11
ENDBRANCH   1  10
TORSDOF 2
ENDMDL
MODEL 9
REMARK VINA RESULT:    -4.269     44.941     46.065
REMARK INTER + INTRA:          -4.936
REMARK INTER:                  -4.769
REMARK INTRA:                  -0.167
REMARK UNBOUND:                -0.168
REMARK  Name = 1550473
REMARK  2 active torsions:
REMARK  status: ('A' for Active; 'I' for Inactive)
REMARK    1  A    between atoms: N_1  and  C_4
REMARK    2  A    between atoms: C_4  and  C_5
REMARK                            x       y       z     vdW  Elec       q    Type
REMARK                         _______ _______ _______ _____ _____    ______ ____
ROOT
ATOM      1  N   UNL     1       9.695  16.776   3.758  0.00  0.00    -0.354 N 
ATOM      2  N   UNL     1       7.571  17.539   3.237  0.00  0.00    -0.372 N 
ATOM      3  N   UNL     1       8.144  15.388   2.681  0.00  0.00    -0.372 N 
ATOM      4  C   UNL     1       8.484  16.560   3.227  0.00  0.00    +0.166 C 
ATOM      5  H   UNL     1       9.901  17.696   4.130  0.00  0.00    +0.163 HD
ATOM      6  H   UNL     1       6.648  17.405   2.847  0.00  0.00    +0.159 HD
ATOM      7  H   UNL     1       7.764  18.444   3.650  0.00  0.00    +0.159 HD
ATOM      8  H   UNL     1       8.789  14.611   2.637  0.00  0.00    +0.159 HD
ATOM      9  H   UNL     1       7.229  15.238   2.275  0.00  0.00    +0.159 HD
ENDROOT
BRANCH   1  10
ATOM     10  C   UNL     1      10.742  15.759   3.846  0.00  0.00    +0.151 C 
BRANCH  10  11
ATOM     11  C   UNL     1      11.821  16.078   2.849  0.00  0.00    -0.028 A 
ATOM     12  C   UNL     1      12.149  15.163   1.838  0.00  0.00    +0.005 A 
ATOM     13  C   UNL     1      12.516  17.296   2.907  0.00  0.00    +0.005 A 
ATOM     14  C   UNL     1      13.131  15.471   0.894  0.00  0.00    +0.000 A 
ATOM     15  C   UNL     1      13.497  17.599   1.962  0.00  0.00    +0.000 A 
ATOM     16  C   UNL     1      13.802  16.688   0.955  0.00  0.00    +0.000 A 
ENDBRANCH  10  11
ENDBRANCH   1  10
TORSDOF 2
ENDMDL
