MODEL 1
REMARK VINA RESULT:    -6.088      0.000      0.000
REMARK INTER + INTRA:          -6.909
REMARK INTER:                  -6.800
REMARK INTRA:                  -0.109
REMARK UNBOUND:                -0.109
REMARK  Name = 1550473
REMARK  2 active torsions:
REMARK  status: ('A' for Active; 'I' for Inactive)
REMARK    1  A    between atoms: N_1  and  C_4
REMARK    2  A    between atoms: C_4  and  C_5
REMARK                            x       y       z     vdW  Elec       q    Type
REMARK                         _______ _______ _______ _____ _____    ______ ____
ROOT
ATOM      1  N   UNL     1      -4.966  -6.490  -8.552  0.00  0.00    -0.354 N 
ATOM      2  N   UNL     1      -4.372  -4.394  -9.338  0.00  0.00    -0.372 N 
ATOM      3  N   UNL     1      -5.187  -4.587  -7.202  0.00  0.00    -0.372 N 
ATOM      4  C   UNL     1      -4.847  -5.170  -8.356  0.00  0.00    +0.166 C 
ATOM      5  H   UNL     1      -4.720  -6.866  -9.460  0.00  0.00    +0.163 HD
ATOM      6  H   UNL     1      -4.267  -3.395  -9.218  0.00  0.00    +0.159 HD
ATOM      7  H   UNL     1      -4.082  -4.778 -10.229  0.00  0.00    +0.159 HD
ATOM      8  H   UNL     1      -5.557  -5.116  -6.424  0.00  0.00    +0.159 HD
ATOM      9  H   UNL     1      -5.100  -3.587  -7.067  0.00  0.00    +0.159 HD
ENDROOT
BRANCH   1  10
ATOM     10  C   UNL     1      -5.422  -7.430  -7.530  0.00  0.00    +0.151 C 
BRANCH  10  11
ATOM     11  C   UNL     1      -5.741  -8.747  -8.181  0.00  0.00    -0.028 A 
ATOM     12  C   UNL     1      -5.195  -9.939  -7.683  0.00  0.00    +0.005 A 
ATOM     13  C   UNL     1      -6.593  -8.811  -9.295  0.00  0.00    +0.005 A 
ATOM     14  C   UNL     1      -5.515 -11.166  -8.269  0.00  0.00    +0.000 A 
ATOM     15  C   UNL     1      -6.910 -10.038  -9.878  0.00  0.00    +0.000 A 
ATOM     16  C   UNL     1      -6.372 -11.215  -9.363  0.00  0.00    +0.000 A 
ENDBRANCH  10  11
ENDBRANCH   1  10
TORSDOF 2
ENDMDL
MODEL 2
REMARK VINA RESULT:    -6.055     13.519     14.795
REMARK INTER + INTRA:          -6.872
REMARK INTER:                  -6.742
REMARK INTRA:                  -0.129
REMARK UNBOUND:                -0.109
REMARK  Name = 1550473
REMARK  2 active torsions:
REMARK  status: ('A' for Active; 'I' for Inactive)
REMARK    1  A    between atoms: N_1  and  C_4
REMARK    2  A    between atoms: C_4  and  C_5
REMARK                            x       y       z     vdW  Elec       q    Type
REMARK                         _______ _______ _______ _____ _____    ______ ____
ROOT
ATOM      1  N   UNL     1       0.152  -9.373   3.488  0.00  0.00    -0.354 N 
ATOM      2  N   UNL     1       0.776 -11.602   3.556  0.00  0.00    -0.372 N 
ATOM      3  N   UNL     1      -1.210 -10.976   4.520  0.00  0.00    -0.372 N 
ATOM      4  C   UNL     1      -0.100 -10.636   3.856  0.00  0.00    +0.166 C 
ATOM      5  H   UNL     1       1.025  -9.175   3.013  0.00  0.00    +0.163 HD
ATOM      6  H   UNL     1       0.612 -12.564   3.818  0.00  0.00    +0.159 HD
ATOM      7  H   UNL     1       1.627 -11.408   3.041  0.00  0.00    +0.159 HD
ATOM      8  H   UNL     1      -1.908 -10.294   4.781  0.00  0.00    +0.159 HD
ATOM      9  H   UNL     1      -1.387 -11.933   4.801  0.00  0.00    +0.159 HD
ENDROOT
BRANCH   1  10
ATOM     10  C   UNL     1      -0.763  -8.256   3.718  0.00  0.00    +0.151 C 
BRANCH  10  11
ATOM     11  C   UNL     1       0.037  -7.021   4.029  0.00  0.00    -0.028 A 
ATOM     12  C   UNL     1       1.392  -6.943   3.674  0.00  0.00    +0.005 A 
ATOM     13  C   UNL     1      -0.554  -5.924   4.674  0.00  0.00    +0.005 A 
ATOM     14  C   UNL     1       2.128  -5.785   3.935  0.00  0.00    +0.000 A 
ATOM     15  C   UNL     1       0.184  -4.770   4.934  0.00  0.00    +0.000 A 
ATOM     16  C   UNL     1       1.525  -4.700   4.563  0.00  0.00    +0.000 A 
ENDBRANCH  10  11
ENDBRANCH   1  10
TORSDOF 2
ENDMDL
MODEL 3
REMARK VINA RESULT:    -5.939     13.171     14.747
REMARK INTER + INTRA:          -6.742
REMARK INTER:                  -6.603
REMARK INTRA:                  -0.139
REMARK UNBOUND:                -0.109
REMARK  Name = 1550473
REMARK  2 active torsions:
REMARK  status: ('A' for Active; 'I' for Inactive)
REMARK    1  A    between atoms: N_1  and  C_4
REMARK    2  A    between atoms: C_4  and  C_5
REMARK                            x       y       z     vdW  Elec       q    Type
REMARK                         _______ _______ _______ _____ _____    ______ ____
ROOT
ATOM      1  N   UNL     1      -0.279  -7.337   3.049  0.00  0.00    -0.354 N 
ATOM      2  N   UNL     1      -2.465  -7.544   2.311  0.00  0.00    -0.372 N 
ATOM      3  N   UNL     1      -2.022  -7.785   4.550  0.00  0.00    -0.372 N 
ATOM      4  C   UNL     1      -1.574  -7.555   3.311  0.00  0.00    +0.166 C 
ATOM      5  H   UNL     1       0.001  -7.198   2.084  0.00  0.00    +0.163 HD
ATOM      6  H   UNL     1      -3.449  -7.702   2.479  0.00  0.00    +0.159 HD
ATOM      7  H   UNL     1      -2.189  -7.360   1.354  0.00  0.00    +0.159 HD
ATOM      8  H   UNL     1      -1.401  -7.812   5.347  0.00  0.00    +0.159 HD
ATOM      9  H   UNL     1      -3.002  -7.956   4.736  0.00  0.00    +0.159 HD
ENDROOT
BRANCH   1  10
ATOM     10  C   UNL     1       0.763  -7.274   4.072  0.00  0.00    +0.151 C 
BRANCH  10  11
ATOM     11  C   UNL     1       1.304  -5.873   4.137  0.00  0.00    -0.028 A 
ATOM     12  C   UNL     1       0.465  -4.800   4.474  0.00  0.00    +0.005 A 
ATOM     13  C   UNL     1       2.656  -5.611   3.868  0.00  0.00    +0.005 A 
ATOM     14  C   UNL     1       0.974  -3.502   4.564  0.00  0.00    +0.000 A 
ATOM     15  C   UNL     1       3.160  -4.313   3.958  0.00  0.00    +0.000 A 
ATOM     16  C   UNL     1       2.319  -3.260   4.308  0.00  0.00    +0.000 A 
ENDBRANCH  10  11
ENDBRANCH   1  10
TORSDOF 2
ENDMDL
MODEL 4
REMARK VINA RESULT:    -5.720      0.920      2.023
REMARK INTER + INTRA:          -6.498
REMARK INTER:                  -6.392
REMARK INTRA:                  -0.106
REMARK UNBOUND:                -0.109
REMARK  Name = 1550473
REMARK  2 active torsions:
REMARK  status: ('A' for Active; 'I' for Inactive)
REMARK    1  A    between atoms: N_1  and  C_4
REMARK    2  A    between atoms: C_4  and  C_5
REMARK                            x       y       z     vdW  Elec       q    Type
REMARK                         _______ _______ _______ _____ _____    ______ ____
ROOT
ATOM      1  N   UNL     1      -6.153  -6.153  -8.819  0.00  0.00    -0.354 N 
ATOM      2  N   UNL     1      -4.641  -4.471  -8.321  0.00  0.00    -0.372 N 
ATOM      3  N   UNL     1      -4.529  -5.491 -10.373  0.00  0.00    -0.372 N 
ATOM      4  C   UNL     1      -5.117  -5.384  -9.177  0.00  0.00    +0.166 C 
ATOM      5  H   UNL     1      -6.535  -6.043  -7.887  0.00  0.00    +0.163 HD
ATOM      6  H   UNL     1      -3.862  -3.874  -8.564  0.00  0.00    +0.159 HD
ATOM      7  H   UNL     1      -5.054  -4.332  -7.407  0.00  0.00    +0.159 HD
ATOM      8  H   UNL     1      -4.837  -6.164 -11.062  0.00  0.00    +0.159 HD
ATOM      9  H   UNL     1      -3.741  -4.911 -10.631  0.00  0.00    +0.159 HD
ENDROOT
BRANCH   1  10
ATOM     10  C   UNL     1      -6.781  -7.139  -9.697  0.00  0.00    +0.151 C 
BRANCH  10  11
ATOM     11  C   UNL     1      -6.448  -8.520  -9.202  0.00  0.00    -0.028 A 
ATOM     12  C   UNL     1      -6.943  -9.652  -9.865  0.00  0.00    +0.005 A 
ATOM     13  C   UNL     1      -5.632  -8.702  -8.075  0.00  0.00    +0.005 A 
ATOM     14  C   UNL     1      -6.609 -10.935  -9.424  0.00  0.00    +0.000 A 
ATOM     15  C   UNL     1      -5.301  -9.984  -7.637  0.00  0.00    +0.000 A 
ATOM     16  C   UNL     1      -5.788 -11.100  -8.313  0.00  0.00    +0.000 A 
ENDBRANCH  10  11
ENDBRANCH   1  10
TORSDOF 2
ENDMDL
MODEL 5
REMARK VINA RESULT:    -5.614      7.803      8.827
REMARK INTER + INTRA:          -6.380
REMARK INTER:                  -6.225
REMARK INTRA:                  -0.154
REMARK UNBOUND:                -0.109
REMARK  Name = 1550473
REMARK  2 active torsions:
REMARK  status: ('A' for Active; 'I' for Inactive)
REMARK    1  A    between atoms: N_1  and  C_4
REMARK    2  A    between atoms: C_4  and  C_5
REMARK                            x       y       z     vdW  Elec       q    Type
REMARK                         _______ _______ _______ _____ _____    ______ ____
ROOT
ATOM      1  N   UNL     1      -5.517   0.512 -11.832  0.00  0.00    -0.354 N 
ATOM      2  N   UNL     1      -3.565   0.006 -10.692  0.00  0.00    -0.372 N 
ATOM      3  N   UNL     1      -3.621  -0.264 -12.970  0.00  0.00    -0.372 N 
ATOM      4  C   UNL     1      -4.246   0.087 -11.841  0.00  0.00    +0.166 C 
ATOM      5  H   UNL     1      -5.943   0.734 -10.939  0.00  0.00    +0.163 HD
ATOM      6  H   UNL     1      -2.604  -0.308 -10.668  0.00  0.00    +0.159 HD
ATOM      7  H   UNL     1      -3.979   0.272  -9.807  0.00  0.00    +0.159 HD
ATOM      8  H   UNL     1      -4.081  -0.231 -13.870  0.00  0.00    +0.159 HD
ATOM      9  H   UNL     1      -2.663  -0.591 -12.965  0.00  0.00    +0.159 HD
ENDROOT
BRANCH   1  10
ATOM     10  C   UNL     1      -6.329   0.687 -13.034  0.00  0.00    +0.151 C 
BRANCH  10  11
ATOM     11  C   UNL     1      -7.175  -0.539 -13.239  0.00  0.00    -0.028 A 
ATOM     12  C   UNL     1      -7.441  -1.012 -14.533  0.00  0.00    +0.005 A 
ATOM     13  C   UNL     1      -7.707  -1.237 -12.144  0.00  0.00    +0.005 A 
ATOM     14  C   UNL     1      -8.201  -2.169 -14.723  0.00  0.00    +0.000 A 
ATOM     15  C   UNL     1      -8.466  -2.391 -12.339  0.00  0.00    +0.000 A 
ATOM     16  C   UNL     1      -8.711  -2.858 -13.628  0.00  0.00    +0.000 A 
ENDBRANCH  10  11
ENDBRANCH   1  10
TORSDOF 2
ENDMDL
MODEL 6
REMARK VINA RESULT:    -5.468     13.421     15.133
REMARK INTER + INTRA:          -6.216
REMARK INTER:                  -6.068
REMARK INTRA:                  -0.149
REMARK UNBOUND:                -0.109
REMARK  Name = 1550473
REMARK  2 active torsions:
REMARK  status: ('A' for Active; 'I' for Inactive)
REMARK    1  A    between atoms: N_1  and  C_4
REMARK    2  A    between atoms: C_4  and  C_5
REMARK                            x       y       z     vdW  Elec       q    Type
REMARK                         _______ _______ _______ _____ _____    ______ ____
ROOT
ATOM      1  N   UNL     1       0.230  -5.718   3.771  0.00  0.00    -0.354 N 
ATOM      2  N   UNL     1      -1.371  -6.869   2.557  0.00  0.00    -0.372 N 
ATOM      3  N   UNL     1       0.647  -7.881   2.969  0.00  0.00    -0.372 N 
ATOM      4  C   UNL     1      -0.152  -6.817   3.107  0.00  0.00    +0.166 C 
ATOM      5  H   UNL     1      -0.410  -4.934   3.813  0.00  0.00    +0.163 HD
ATOM      6  H   UNL     1      -1.689  -7.687   2.053  0.00  0.00    +0.159 HD
ATOM      7  H   UNL     1      -2.027  -6.102   2.641  0.00  0.00    +0.159 HD
ATOM      8  H   UNL     1       1.581  -7.902   3.355  0.00  0.00    +0.159 HD
ATOM      9  H   UNL     1       0.351  -8.703   2.458  0.00  0.00    +0.159 HD
ENDROOT
BRANCH   1  10
ATOM     10  C   UNL     1       1.517  -5.581   4.452  0.00  0.00    +0.151 C 
BRANCH  10  11
ATOM     11  C   UNL     1       2.213  -4.349   3.942  0.00  0.00    -0.028 A 
ATOM     12  C   UNL     1       2.426  -3.250   4.787  0.00  0.00    +0.005 A 
ATOM     13  C   UNL     1       2.668  -4.277   2.616  0.00  0.00    +0.005 A 
ATOM     14  C   UNL     1       3.099  -2.118   4.323  0.00  0.00    +0.000 A 
ATOM     15  C   UNL     1       3.339  -3.144   2.156  0.00  0.00    +0.000 A 
ATOM     16  C   UNL     1       3.557  -2.066   3.011  0.00  0.00    +0.000 A 
ENDBRANCH  10  11
ENDBRANCH   1  10
TORSDOF 2
ENDMDL
MODEL 7
REMARK VINA RESULT:    -5.464     24.144     25.625
REMARK INTER + INTRA:          -6.212
REMARK INTER:                  -6.071
REMARK INTRA:                  -0.141
REMARK UNBOUND:                -0.109
REMARK  Name = 1550473
REMARK  2 active torsions:
REMARK  status: ('A' for Active; 'I' for Inactive)
REMARK    1  A    between atoms: N_1  and  C_4
REMARK    2  A    between atoms: C_4  and  C_5
REMARK                            x       y       z     vdW  Elec       q    Type
REMARK                         _______ _______ _______ _____ _____    ______ ____
ROOT
ATOM      1  N   UNL     1      18.890  -3.445 -17.860  0.00  0.00    -0.354 N 
ATOM      2  N   UNL     1      19.549  -4.374 -19.877  0.00  0.00    -0.372 N 
ATOM      3  N   UNL     1      20.076  -2.184 -19.440  0.00  0.00    -0.372 N 
ATOM      4  C   UNL     1      19.502  -3.325 -19.046  0.00  0.00    +0.166 C 
ATOM      5  H   UNL     1      18.448  -4.328 -17.633  0.00  0.00    +0.163 HD
ATOM      6  H   UNL     1      20.006  -4.315 -20.777  0.00  0.00    +0.159 HD
ATOM      7  H   UNL     1      19.146  -5.269 -19.628  0.00  0.00    +0.159 HD
ATOM      8  H   UNL     1      20.070  -1.354 -18.862  0.00  0.00    +0.159 HD
ATOM      9  H   UNL     1      20.528  -2.102 -20.342  0.00  0.00    +0.159 HD
ENDROOT
BRANCH   1  10
ATOM     10  C   UNL     1      18.830  -2.380 -16.861  0.00  0.00    +0.151 C 
BRANCH  10  11
ATOM     11  C   UNL     1      17.393  -2.130 -16.495  0.00  0.00    -0.028 A 
ATOM     12  C   UNL     1      16.445  -3.159 -16.590  0.00  0.00    +0.005 A 
ATOM     13  C   UNL     1      16.973  -0.867 -16.049  0.00  0.00    +0.005 A 
ATOM     14  C   UNL     1      15.116  -2.936 -16.222  0.00  0.00    +0.000 A 
ATOM     15  C   UNL     1      15.645  -0.648 -15.683  0.00  0.00    +0.000 A 
ATOM     16  C   UNL     1      14.717  -1.683 -15.768  0.00  0.00    +0.000 A 
ENDBRANCH  10  11
ENDBRANCH   1  10
TORSDOF 2
ENDMDL
MODEL 8
REMARK VINA RESULT:    -5.453     12.956     14.360
REMARK INTER + INTRA:          -6.199
REMARK INTER:                  -6.037
REMARK INTRA:                  -0.163
REMARK UNBOUND:                -0.109
REMARK  Name = 1550473
REMARK  2 active torsions:
REMARK  status: ('A' for Active; 'I' for Inactive)
REMARK    1  A    between atoms: N_1  and  C_4
REMARK    2  A    between atoms: C_4  and  C_5
REMARK                            x       y       z     vdW  Elec       q    Type
REMARK                         _______ _______ _______ _____ _____    ______ ____
ROOT
ATOM      1  N   UNL     1      -2.027  -9.803   3.328  0.00  0.00    -0.354 N 
ATOM      2  N   UNL     1      -2.050 -12.015   4.014  0.00  0.00    -0.372 N 
ATOM      3  N   UNL     1      -3.212 -10.462   5.240  0.00  0.00    -0.372 N 
ATOM      4  C   UNL     1      -2.431 -10.744   4.192  0.00  0.00    +0.166 C 
ATOM      5  H   UNL     1      -1.411 -10.077   2.571  0.00  0.00    +0.163 HD
ATOM      6  H   UNL     1      -2.341 -12.747   4.648  0.00  0.00    +0.159 HD
ATOM      7  H   UNL     1      -1.471 -12.294   3.231  0.00  0.00    +0.159 HD
ATOM      8  H   UNL     1      -3.529  -9.521   5.433  0.00  0.00    +0.159 HD
ATOM      9  H   UNL     1      -3.505 -11.179   5.891  0.00  0.00    +0.159 HD
ENDROOT
BRANCH   1  10
ATOM     10  C   UNL     1      -2.430  -8.400   3.401  0.00  0.00    +0.151 C 
BRANCH  10  11
ATOM     11  C   UNL     1      -1.279  -7.585   3.923  0.00  0.00    -0.028 A 
ATOM     12  C   UNL     1      -1.510  -6.473   4.745  0.00  0.00    +0.005 A 
ATOM     13  C   UNL     1       0.045  -7.923   3.603  0.00  0.00    +0.005 A 
ATOM     14  C   UNL     1      -0.440  -5.733   5.255  0.00  0.00    +0.000 A 
ATOM     15  C   UNL     1       1.111  -7.182   4.114  0.00  0.00    +0.000 A 
ATOM     16  C   UNL     1       0.868  -6.089   4.942  0.00  0.00    +0.000 A 
ENDBRANCH  10  11
ENDBRANCH   1  10
TORSDOF 2
ENDMDL
MODEL 9
REMARK VINA RESULT:    -5.422     31.754     32.675
REMARK INTER + INTRA:          -6.164
REMARK INTER:                  -6.036
REMARK INTRA:                  -0.129
REMARK UNBOUND:                -0.109
REMARK  Name = 1550473
REMARK  2 active torsions:
REMARK  status: ('A' for Active; 'I' for Inactive)
REMARK    1  A    between atoms: N_1  and  C_4
REMARK    2  A    between atoms: C_4  and  C_5
REMARK                            x       y       z     vdW  Elec       q    Type
REMARK                         _______ _______ _______ _____ _____    ______ ____
ROOT
ATOM      1  N   UNL     1      11.535   1.492  19.018  0.00  0.00    -0.354 N 
ATOM      2  N   UNL     1      10.864   3.093  20.551  0.00  0.00    -0.372 N 
ATOM      3  N   UNL     1       9.555   1.234  20.245  0.00  0.00    -0.372 N 
ATOM      4  C   UNL     1      10.654   1.927  19.928  0.00  0.00    +0.166 C 
ATOM      5  H   UNL     1      12.332   2.079  18.801  0.00  0.00    +0.163 HD
ATOM      6  H   UNL     1      10.218   3.446  21.244  0.00  0.00    +0.159 HD
ATOM      7  H   UNL     1      11.685   3.656  20.365  0.00  0.00    +0.159 HD
ATOM      8  H   UNL     1       9.335   0.349  19.807  0.00  0.00    +0.159 HD
ATOM      9  H   UNL     1       8.891   1.576  20.929  0.00  0.00    +0.159 HD
ENDROOT
BRANCH   1  10
ATOM     10  C   UNL     1      11.426   0.210  18.323  0.00  0.00    +0.151 C 
BRANCH  10  11
ATOM     11  C   UNL     1      12.024   0.345  16.949  0.00  0.00    -0.028 A 
ATOM     12  C   UNL     1      11.890   1.540  16.228  0.00  0.00    +0.005 A 
ATOM     13  C   UNL     1      12.732  -0.718  16.366  0.00  0.00    +0.005 A 
ATOM     14  C   UNL     1      12.470   1.676  14.965  0.00  0.00    +0.000 A 
ATOM     15  C   UNL     1      13.309  -0.579  15.104  0.00  0.00    +0.000 A 
ATOM     16  C   UNL     1      13.181   0.619  14.405  0.00  0.00    +0.000 A 
ENDBRANCH  10  11
ENDBRANCH   1  10
TORSDOF 2
ENDMDL
