MODEL 1
REMARK VINA RESULT:    -5.077      0.000      0.000
REMARK INTER + INTRA:          -5.801
REMARK INTER:                  -5.671
REMARK INTRA:                  -0.130
REMARK UNBOUND:                -0.130
REMARK  Name = 1550473
REMARK  2 active torsions:
REMARK  status: ('A' for Active; 'I' for Inactive)
REMARK    1  A    between atoms: N_1  and  C_4
REMARK    2  A    between atoms: C_4  and  C_5
REMARK                            x       y       z     vdW  Elec       q    Type
REMARK                         _______ _______ _______ _____ _____    ______ ____
ROOT
ATOM      1  N   UNL     1       9.401  -9.890  11.999  0.00  0.00    -0.354 N 
ATOM      2  N   UNL     1      10.651  -9.143  13.801  0.00  0.00    -0.372 N 
ATOM      3  N   UNL     1       9.268 -10.952  14.084  0.00  0.00    -0.372 N 
ATOM      4  C   UNL     1       9.764 -10.002  13.284  0.00  0.00    +0.166 C 
ATOM      5  H   UNL     1       9.791  -9.129  11.454  0.00  0.00    +0.163 HD
ATOM      6  H   UNL     1      10.946  -9.206  14.766  0.00  0.00    +0.159 HD
ATOM      7  H   UNL     1      11.073  -8.412  13.241  0.00  0.00    +0.159 HD
ATOM      8  H   UNL     1       8.590 -11.628  13.757  0.00  0.00    +0.159 HD
ATOM      9  H   UNL     1       9.543 -11.024  15.056  0.00  0.00    +0.159 HD
ENDROOT
BRANCH   1  10
ATOM     10  C   UNL     1       8.483 -10.806  11.326  0.00  0.00    +0.151 C 
BRANCH  10  11
ATOM     11  C   UNL     1       8.805 -10.832   9.857  0.00  0.00    -0.028 A 
ATOM     12  C   UNL     1      10.006 -10.286   9.381  0.00  0.00    +0.005 A 
ATOM     13  C   UNL     1       7.915 -11.407   8.936  0.00  0.00    +0.005 A 
ATOM     14  C   UNL     1      10.319 -10.336   8.021  0.00  0.00    +0.000 A 
ATOM     15  C   UNL     1       8.231 -11.455   7.578  0.00  0.00    +0.000 A 
ATOM     16  C   UNL     1       9.434 -10.922   7.121  0.00  0.00    +0.000 A 
ENDBRANCH  10  11
ENDBRANCH   1  10
TORSDOF 2
ENDMDL
MODEL 2
REMARK VINA RESULT:    -5.006     12.422     13.673
REMARK INTER + INTRA:          -5.722
REMARK INTER:                  -5.593
REMARK INTRA:                  -0.129
REMARK UNBOUND:                -0.130
REMARK  Name = 1550473
REMARK  2 active torsions:
REMARK  status: ('A' for Active; 'I' for Inactive)
REMARK    1  A    between atoms: N_1  and  C_4
REMARK    2  A    between atoms: C_4  and  C_5
REMARK                            x       y       z     vdW  Elec       q    Type
REMARK                         _______ _______ _______ _____ _____    ______ ____
ROOT
ATOM      1  N   UNL     1      19.425   0.057  13.708  0.00  0.00    -0.354 N 
ATOM      2  N   UNL     1      20.624   1.201  15.327  0.00  0.00    -0.372 N 
ATOM      3  N   UNL     1      18.333   1.330  15.345  0.00  0.00    -0.372 N 
ATOM      4  C   UNL     1      19.450   0.856  14.783  0.00  0.00    +0.166 C 
ATOM      5  H   UNL     1      20.308  -0.244  13.312  0.00  0.00    +0.163 HD
ATOM      6  H   UNL     1      20.674   1.799  16.140  0.00  0.00    +0.159 HD
ATOM      7  H   UNL     1      21.503   0.861  14.956  0.00  0.00    +0.159 HD
ATOM      8  H   UNL     1      17.416   1.112  14.980  0.00  0.00    +0.159 HD
ATOM      9  H   UNL     1      18.363   1.940  16.153  0.00  0.00    +0.159 HD
ENDROOT
BRANCH   1  10
ATOM     10  C   UNL     1      18.198  -0.420  13.073  0.00  0.00    +0.151 C 
BRANCH  10  11
ATOM     11  C   UNL     1      18.420  -1.818  12.565  0.00  0.00    -0.028 A 
ATOM     12  C   UNL     1      19.172  -2.737  13.312  0.00  0.00    +0.005 A 
ATOM     13  C   UNL     1      17.876  -2.232  11.339  0.00  0.00    +0.005 A 
ATOM     14  C   UNL     1      19.353  -4.044  12.855  0.00  0.00    +0.000 A 
ATOM     15  C   UNL     1      18.060  -3.538  10.886  0.00  0.00    +0.000 A 
ATOM     16  C   UNL     1      18.797  -4.445  11.645  0.00  0.00    +0.000 A 
ENDBRANCH  10  11
ENDBRANCH   1  10
TORSDOF 2
ENDMDL
MODEL 3
REMARK VINA RESULT:    -4.907      1.323      2.244
REMARK INTER + INTRA:          -5.611
REMARK INTER:                  -5.488
REMARK INTRA:                  -0.123
REMARK UNBOUND:                -0.130
REMARK  Name = 1550473
REMARK  2 active torsions:
REMARK  status: ('A' for Active; 'I' for Inactive)
REMARK    1  A    between atoms: N_1  and  C_4
REMARK    2  A    between atoms: C_4  and  C_5
REMARK                            x       y       z     vdW  Elec       q    Type
REMARK                         _______ _______ _______ _____ _____    ______ ____
ROOT
ATOM      1  N   UNL     1       9.581 -10.420  10.637  0.00  0.00    -0.354 N 
ATOM      2  N   UNL     1       9.727 -10.065  12.921  0.00  0.00    -0.372 N 
ATOM      3  N   UNL     1      11.505  -9.482  11.593  0.00  0.00    -0.372 N 
ATOM      4  C   UNL     1      10.273  -9.991  11.702  0.00  0.00    +0.166 C 
ATOM      5  H   UNL     1       8.664 -10.823  10.790  0.00  0.00    +0.163 HD
ATOM      6  H   UNL     1      10.223  -9.746  13.743  0.00  0.00    +0.159 HD
ATOM      7  H   UNL     1       8.791 -10.426  13.065  0.00  0.00    +0.159 HD
ATOM      8  H   UNL     1      11.975  -9.404  10.702  0.00  0.00    +0.159 HD
ATOM      9  H   UNL     1      12.022  -9.168  12.405  0.00  0.00    +0.159 HD
ENDROOT
BRANCH   1  10
ATOM     10  C   UNL     1      10.064 -10.333   9.260  0.00  0.00    +0.151 C 
BRANCH  10  11
ATOM     11  C   UNL     1       9.042 -10.947   8.342  0.00  0.00    -0.028 A 
ATOM     12  C   UNL     1       9.271 -11.004   6.960  0.00  0.00    +0.005 A 
ATOM     13  C   UNL     1       7.847 -11.479   8.850  0.00  0.00    +0.005 A 
ATOM     14  C   UNL     1       8.336 -11.602   6.110  0.00  0.00    +0.000 A 
ATOM     15  C   UNL     1       6.916 -12.074   7.999  0.00  0.00    +0.000 A 
ATOM     16  C   UNL     1       7.162 -12.137   6.630  0.00  0.00    +0.000 A 
ENDBRANCH  10  11
ENDBRANCH   1  10
TORSDOF 2
ENDMDL
MODEL 4
REMARK VINA RESULT:    -4.623     29.178     29.841
REMARK INTER + INTRA:          -5.294
REMARK INTER:                  -5.184
REMARK INTRA:                  -0.111
REMARK UNBOUND:                -0.130
REMARK  Name = 1550473
REMARK  2 active torsions:
REMARK  status: ('A' for Active; 'I' for Inactive)
REMARK    1  A    between atoms: N_1  and  C_4
REMARK    2  A    between atoms: C_4  and  C_5
REMARK                            x       y       z     vdW  Elec       q    Type
REMARK                         _______ _______ _______ _____ _____    ______ ____
ROOT
ATOM      1  N   UNL     1      -5.059  14.819  16.642  0.00  0.00    -0.354 N 
ATOM      2  N   UNL     1      -3.386  16.286  17.285  0.00  0.00    -0.372 N 
ATOM      3  N   UNL     1      -3.628  14.311  18.427  0.00  0.00    -0.372 N 
ATOM      4  C   UNL     1      -4.035  15.127  17.449  0.00  0.00    +0.166 C 
ATOM      5  H   UNL     1      -5.338  15.494  15.939  0.00  0.00    +0.163 HD
ATOM      6  H   UNL     1      -2.607  16.544  17.876  0.00  0.00    +0.159 HD
ATOM      7  H   UNL     1      -3.637  16.938  16.552  0.00  0.00    +0.159 HD
ATOM      8  H   UNL     1      -4.080  13.424  18.607  0.00  0.00    +0.159 HD
ATOM      9  H   UNL     1      -2.859  14.556  19.037  0.00  0.00    +0.159 HD
ENDROOT
BRANCH   1  10
ATOM     10  C   UNL     1      -5.798  13.559  16.702  0.00  0.00    +0.151 C 
BRANCH  10  11
ATOM     11  C   UNL     1      -6.902  13.588  15.682  0.00  0.00    -0.028 A 
ATOM     12  C   UNL     1      -8.171  13.076  15.992  0.00  0.00    +0.005 A 
ATOM     13  C   UNL     1      -6.688  14.131  14.406  0.00  0.00    +0.005 A 
ATOM     14  C   UNL     1      -9.206  13.130  15.054  0.00  0.00    +0.000 A 
ATOM     15  C   UNL     1      -7.724  14.182  13.473  0.00  0.00    +0.000 A 
ATOM     16  C   UNL     1      -8.983  13.684  13.798  0.00  0.00    +0.000 A 
ENDBRANCH  10  11
ENDBRANCH   1  10
TORSDOF 2
ENDMDL
MODEL 5
REMARK VINA RESULT:    -4.617      1.818      3.217
REMARK INTER + INTRA:          -5.286
REMARK INTER:                  -5.163
REMARK INTRA:                  -0.124
REMARK UNBOUND:                -0.130
REMARK  Name = 1550473
REMARK  2 active torsions:
REMARK  status: ('A' for Active; 'I' for Inactive)
REMARK    1  A    between atoms: N_1  and  C_4
REMARK    2  A    between atoms: C_4  and  C_5
REMARK                            x       y       z     vdW  Elec       q    Type
REMARK                         _______ _______ _______ _____ _____    ______ ____
ROOT
ATOM      1  N   UNL     1       7.869 -11.155   9.900  0.00  0.00    -0.354 N 
ATOM      2  N   UNL     1       6.895 -11.087  12.000  0.00  0.00    -0.372 N 
ATOM      3  N   UNL     1       8.967 -10.146  11.708  0.00  0.00    -0.372 N 
ATOM      4  C   UNL     1       7.919 -10.795  11.189  0.00  0.00    +0.166 C 
ATOM      5  H   UNL     1       7.059 -11.672   9.576  0.00  0.00    +0.163 HD
ATOM      6  H   UNL     1       6.903 -10.825  12.977  0.00  0.00    +0.159 HD
ATOM      7  H   UNL     1       6.067 -11.563  11.663  0.00  0.00    +0.159 HD
ATOM      8  H   UNL     1       9.775  -9.901  11.150  0.00  0.00    +0.159 HD
ATOM      9  H   UNL     1       8.999  -9.885  12.685  0.00  0.00    +0.159 HD
ENDROOT
BRANCH   1  10
ATOM     10  C   UNL     1       8.908 -10.838   8.922  0.00  0.00    +0.151 C 
BRANCH  10  11
ATOM     11  C   UNL     1       8.466 -11.313   7.565  0.00  0.00    -0.028 A 
ATOM     12  C   UNL     1       7.262 -12.017   7.414  0.00  0.00    +0.005 A 
ATOM     13  C   UNL     1       9.244 -11.057   6.425  0.00  0.00    +0.005 A 
ATOM     14  C   UNL     1       6.837 -12.433   6.150  0.00  0.00    +0.000 A 
ATOM     15  C   UNL     1       8.816 -11.474   5.165  0.00  0.00    +0.000 A 
ATOM     16  C   UNL     1       7.611 -12.160   5.027  0.00  0.00    +0.000 A 
ENDBRANCH  10  11
ENDBRANCH   1  10
TORSDOF 2
ENDMDL
MODEL 6
REMARK VINA RESULT:    -4.608     28.103     28.713
REMARK INTER + INTRA:          -5.276
REMARK INTER:                  -5.131
REMARK INTRA:                  -0.145
REMARK UNBOUND:                -0.130
REMARK  Name = 1550473
REMARK  2 active torsions:
REMARK  status: ('A' for Active; 'I' for Inactive)
REMARK    1  A    between atoms: N_1  and  C_4
REMARK    2  A    between atoms: C_4  and  C_5
REMARK                            x       y       z     vdW  Elec       q    Type
REMARK                         _______ _______ _______ _____ _____    ______ ____
ROOT
ATOM      1  N   UNL     1     -14.819   5.385   7.603  0.00  0.00    -0.354 N 
ATOM      2  N   UNL     1     -13.238   6.337   9.002  0.00  0.00    -0.372 N 
ATOM      3  N   UNL     1     -12.565   5.507   6.971  0.00  0.00    -0.372 N 
ATOM      4  C   UNL     1     -13.549   5.736   7.847  0.00  0.00    +0.166 C 
ATOM      5  H   UNL     1     -15.513   5.559   8.320  0.00  0.00    +0.163 HD
ATOM      6  H   UNL     1     -12.289   6.616   9.213  0.00  0.00    +0.159 HD
ATOM      7  H   UNL     1     -13.942   6.551   9.698  0.00  0.00    +0.159 HD
ATOM      8  H   UNL     1     -12.733   5.052   6.084  0.00  0.00    +0.159 HD
ATOM      9  H   UNL     1     -11.608   5.769   7.170  0.00  0.00    +0.159 HD
ENDROOT
BRANCH   1  10
ATOM     10  C   UNL     1     -15.272   4.774   6.354  0.00  0.00    +0.151 C 
BRANCH  10  11
ATOM     11  C   UNL     1     -15.822   3.406   6.649  0.00  0.00    -0.028 A 
ATOM     12  C   UNL     1     -16.023   2.989   7.972  0.00  0.00    +0.005 A 
ATOM     13  C   UNL     1     -16.149   2.524   5.607  0.00  0.00    +0.005 A 
ATOM     14  C   UNL     1     -16.562   1.729   8.245  0.00  0.00    +0.000 A 
ATOM     15  C   UNL     1     -16.686   1.266   5.884  0.00  0.00    +0.000 A 
ATOM     16  C   UNL     1     -16.895   0.871   7.203  0.00  0.00    +0.000 A 
ENDBRANCH  10  11
ENDBRANCH   1  10
TORSDOF 2
ENDMDL
MODEL 7
REMARK VINA RESULT:    -4.407     27.992     28.565
REMARK INTER + INTRA:          -5.052
REMARK INTER:                  -4.911
REMARK INTRA:                  -0.142
REMARK UNBOUND:                -0.130
REMARK  Name = 1550473
REMARK  2 active torsions:
REMARK  status: ('A' for Active; 'I' for Inactive)
REMARK    1  A    between atoms: N_1  and  C_4
REMARK    2  A    between atoms: C_4  and  C_5
REMARK                            x       y       z     vdW  Elec       q    Type
REMARK                         _______ _______ _______ _____ _____    ______ ____
ROOT
ATOM      1  N   UNL     1     -14.935   5.031   8.842  0.00  0.00    -0.354 N 
ATOM      2  N   UNL     1     -13.216   6.583   8.857  0.00  0.00    -0.372 N 
ATOM      3  N   UNL     1     -13.178   4.873  10.386  0.00  0.00    -0.372 N 
ATOM      4  C   UNL     1     -13.787   5.484   9.364  0.00  0.00    +0.166 C 
ATOM      5  H   UNL     1     -15.361   5.557   8.088  0.00  0.00    +0.163 HD
ATOM      6  H   UNL     1     -12.348   6.947   9.227  0.00  0.00    +0.159 HD
ATOM      7  H   UNL     1     -13.620   7.081   8.073  0.00  0.00    +0.159 HD
ATOM      8  H   UNL     1     -13.561   4.042  10.818  0.00  0.00    +0.159 HD
ATOM      9  H   UNL     1     -12.315   5.228  10.778  0.00  0.00    +0.159 HD
ENDROOT
BRANCH   1  10
ATOM     10  C   UNL     1     -15.610   3.813   9.286  0.00  0.00    +0.151 C 
BRANCH  10  11
ATOM     11  C   UNL     1     -15.985   2.993   8.083  0.00  0.00    -0.028 A 
ATOM     12  C   UNL     1     -15.774   3.490   6.789  0.00  0.00    +0.005 A 
ATOM     13  C   UNL     1     -16.547   1.716   8.230  0.00  0.00    +0.005 A 
ATOM     14  C   UNL     1     -16.094   2.717   5.670  0.00  0.00    +0.000 A 
ATOM     15  C   UNL     1     -16.867   0.947   7.111  0.00  0.00    +0.000 A 
ATOM     16  C   UNL     1     -16.638   1.447   5.832  0.00  0.00    +0.000 A 
ENDBRANCH  10  11
ENDBRANCH   1  10
TORSDOF 2
ENDMDL
MODEL 8
REMARK VINA RESULT:    -4.353     11.310     12.363
REMARK INTER + INTRA:          -4.992
REMARK INTER:                  -4.856
REMARK INTRA:                  -0.137
REMARK UNBOUND:                -0.130
REMARK  Name = 1550473
REMARK  2 active torsions:
REMARK  status: ('A' for Active; 'I' for Inactive)
REMARK    1  A    between atoms: N_1  and  C_4
REMARK    2  A    between atoms: C_4  and  C_5
REMARK                            x       y       z     vdW  Elec       q    Type
REMARK                         _______ _______ _______ _____ _____    ______ ____
ROOT
ATOM      1  N   UNL     1      18.947  -1.358  12.449  0.00  0.00    -0.354 N 
ATOM      2  N   UNL     1      19.793   0.003  14.121  0.00  0.00    -0.372 N 
ATOM      3  N   UNL     1      17.524  -0.306  13.986  0.00  0.00    -0.372 N 
ATOM      4  C   UNL     1      18.746  -0.562  13.508  0.00  0.00    +0.166 C 
ATOM      5  H   UNL     1      19.895  -1.488  12.118  0.00  0.00    +0.163 HD
ATOM      6  H   UNL     1      19.673   0.606  14.924  0.00  0.00    +0.159 HD
ATOM      7  H   UNL     1      20.744  -0.165  13.815  0.00  0.00    +0.159 HD
ATOM      8  H   UNL     1      16.692  -0.698  13.565  0.00  0.00    +0.159 HD
ATOM      9  H   UNL     1      17.382   0.303  14.782  0.00  0.00    +0.159 HD
ENDROOT
BRANCH   1  10
ATOM     10  C   UNL     1      17.879  -2.065  11.744  0.00  0.00    +0.151 C 
BRANCH  10  11
ATOM     11  C   UNL     1      18.328  -3.471  11.456  0.00  0.00    -0.028 A 
ATOM     12  C   UNL     1      19.181  -4.143  12.344  0.00  0.00    +0.005 A 
ATOM     13  C   UNL     1      17.900  -4.140  10.299  0.00  0.00    +0.005 A 
ATOM     14  C   UNL     1      19.574  -5.459  12.092  0.00  0.00    +0.000 A 
ATOM     15  C   UNL     1      18.295  -5.454  10.050  0.00  0.00    +0.000 A 
ATOM     16  C   UNL     1      19.131  -6.114  10.948  0.00  0.00    +0.000 A 
ENDBRANCH  10  11
ENDBRANCH   1  10
TORSDOF 2
ENDMDL
MODEL 9
REMARK VINA RESULT:    -4.300      5.024      6.902
REMARK INTER + INTRA:          -4.933
REMARK INTER:                  -4.827
REMARK INTRA:                  -0.106
REMARK UNBOUND:                -0.130
REMARK  Name = 1550473
REMARK  2 active torsions:
REMARK  status: ('A' for Active; 'I' for Inactive)
REMARK    1  A    between atoms: N_1  and  C_4
REMARK    2  A    between atoms: C_4  and  C_5
REMARK                            x       y       z     vdW  Elec       q    Type
REMARK                         _______ _______ _______ _____ _____    ______ ____
ROOT
ATOM      1  N   UNL     1      10.067 -11.917   4.580  0.00  0.00    -0.354 N 
ATOM      2  N   UNL     1      11.604 -12.841   3.114  0.00  0.00    -0.372 N 
ATOM      3  N   UNL     1       9.442 -12.534   2.407  0.00  0.00    -0.372 N 
ATOM      4  C   UNL     1      10.358 -12.425   3.375  0.00  0.00    +0.166 C 
ATOM      5  H   UNL     1      10.798 -11.890   5.281  0.00  0.00    +0.163 HD
ATOM      6  H   UNL     1      11.855 -13.225   2.213  0.00  0.00    +0.159 HD
ATOM      7  H   UNL     1      12.344 -12.770   3.801  0.00  0.00    +0.159 HD
ATOM      8  H   UNL     1       8.483 -12.244   2.542  0.00  0.00    +0.159 HD
ATOM      9  H   UNL     1       9.671 -12.927   1.502  0.00  0.00    +0.159 HD
ENDROOT
BRANCH   1  10
ATOM     10  C   UNL     1       8.755 -11.387   4.948  0.00  0.00    +0.151 C 
BRANCH  10  11
ATOM     11  C   UNL     1       8.670 -11.282   6.445  0.00  0.00    -0.028 A 
ATOM     12  C   UNL     1       7.553 -11.781   7.131  0.00  0.00    +0.005 A 
ATOM     13  C   UNL     1       9.705 -10.691   7.185  0.00  0.00    +0.005 A 
ATOM     14  C   UNL     1       7.487 -11.712   8.525  0.00  0.00    +0.000 A 
ATOM     15  C   UNL     1       9.635 -10.622   8.576  0.00  0.00    +0.000 A 
ATOM     16  C   UNL     1       8.527 -11.135   9.246  0.00  0.00    +0.000 A 
ENDBRANCH  10  11
ENDBRANCH   1  10
TORSDOF 2
ENDMDL
