MODEL 1
REMARK VINA RESULT:    -6.646      0.000      0.000
REMARK INTER + INTRA:          -7.536
REMARK INTER:                  -7.423
REMARK INTRA:                  -0.113
REMARK UNBOUND:                -0.113
REMARK  Name = 1550473
REMARK  2 active torsions:
REMARK  status: ('A' for Active; 'I' for Inactive)
REMARK    1  A    between atoms: N_1  and  C_4
REMARK    2  A    between atoms: C_4  and  C_5
REMARK                            x       y       z     vdW  Elec       q    Type
REMARK                         _______ _______ _______ _____ _____    ______ ____
ROOT
ATOM      1  N   UNL     1       3.993   6.111  -5.226  0.00  0.00    -0.354 N 
ATOM      2  N   UNL     1       3.619   7.750  -3.633  0.00  0.00    -0.372 N 
ATOM      3  N   UNL     1       3.740   5.559  -2.963  0.00  0.00    -0.372 N 
ATOM      4  C   UNL     1       3.786   6.460  -3.949  0.00  0.00    +0.166 C 
ATOM      5  H   UNL     1       3.987   6.838  -5.931  0.00  0.00    +0.163 HD
ATOM      6  H   UNL     1       3.464   8.044  -2.678  0.00  0.00    +0.159 HD
ATOM      7  H   UNL     1       3.659   8.480  -4.334  0.00  0.00    +0.159 HD
ATOM      8  H   UNL     1       3.853   4.569  -3.136  0.00  0.00    +0.159 HD
ATOM      9  H   UNL     1       3.574   5.832  -2.002  0.00  0.00    +0.159 HD
ENDROOT
BRANCH   1  10
ATOM     10  C   UNL     1       4.241   4.739  -5.669  0.00  0.00    +0.151 C 
BRANCH  10  11
ATOM     11  C   UNL     1       4.758   4.765  -7.080  0.00  0.00    -0.028 A 
ATOM     12  C   UNL     1       4.238   3.890  -8.045  0.00  0.00    +0.005 A 
ATOM     13  C   UNL     1       5.765   5.666  -7.461  0.00  0.00    +0.005 A 
ATOM     14  C   UNL     1       4.697   3.934  -9.364  0.00  0.00    +0.000 A 
ATOM     15  C   UNL     1       6.221   5.706  -8.778  0.00  0.00    +0.000 A 
ATOM     16  C   UNL     1       5.685   4.841  -9.730  0.00  0.00    +0.000 A 
ENDBRANCH  10  11
ENDBRANCH   1  10
TORSDOF 2
ENDMDL
MODEL 2
REMARK VINA RESULT:    -6.204      2.065      2.418
REMARK INTER + INTRA:          -7.042
REMARK INTER:                  -6.928
REMARK INTRA:                  -0.114
REMARK UNBOUND:                -0.113
REMARK  Name = 1550473
REMARK  2 active torsions:
REMARK  status: ('A' for Active; 'I' for Inactive)
REMARK    1  A    between atoms: N_1  and  C_4
REMARK    2  A    between atoms: C_4  and  C_5
REMARK                            x       y       z     vdW  Elec       q    Type
REMARK                         _______ _______ _______ _____ _____    ______ ____
ROOT
ATOM      1  N   UNL     1       2.742   4.773  -7.000  0.00  0.00    -0.354 N 
ATOM      2  N   UNL     1       1.538   3.229  -5.764  0.00  0.00    -0.372 N 
ATOM      3  N   UNL     1       3.527   4.009  -4.928  0.00  0.00    -0.372 N 
ATOM      4  C   UNL     1       2.613   4.014  -5.904  0.00  0.00    +0.166 C 
ATOM      5  H   UNL     1       2.029   4.709  -7.717  0.00  0.00    +0.163 HD
ATOM      6  H   UNL     1       1.411   2.647  -4.946  0.00  0.00    +0.159 HD
ATOM      7  H   UNL     1       0.804   3.201  -6.461  0.00  0.00    +0.159 HD
ATOM      8  H   UNL     1       4.364   4.574  -4.976  0.00  0.00    +0.159 HD
ATOM      9  H   UNL     1       3.424   3.425  -4.107  0.00  0.00    +0.159 HD
ENDROOT
BRANCH   1  10
ATOM     10  C   UNL     1       3.848   5.703  -7.224  0.00  0.00    +0.151 C 
BRANCH  10  11
ATOM     11  C   UNL     1       4.735   5.158  -8.309  0.00  0.00    -0.028 A 
ATOM     12  C   UNL     1       4.392   3.977  -8.983  0.00  0.00    +0.005 A 
ATOM     13  C   UNL     1       5.917   5.821  -8.672  0.00  0.00    +0.005 A 
ATOM     14  C   UNL     1       5.200   3.487 -10.012  0.00  0.00    +0.000 A 
ATOM     15  C   UNL     1       6.722   5.328  -9.699  0.00  0.00    +0.000 A 
ATOM     16  C   UNL     1       6.362   4.162 -10.371  0.00  0.00    +0.000 A 
ENDBRANCH  10  11
ENDBRANCH   1  10
TORSDOF 2
ENDMDL
MODEL 3
REMARK VINA RESULT:    -5.824     21.574     22.879
REMARK INTER + INTRA:          -6.618
REMARK INTER:                  -6.481
REMARK INTRA:                  -0.137
REMARK UNBOUND:                -0.113
REMARK  Name = 1550473
REMARK  2 active torsions:
REMARK  status: ('A' for Active; 'I' for Inactive)
REMARK    1  A    between atoms: N_1  and  C_4
REMARK    2  A    between atoms: C_4  and  C_5
REMARK                            x       y       z     vdW  Elec       q    Type
REMARK                         _______ _______ _______ _____ _____    ______ ____
ROOT
ATOM      1  N   UNL     1      -6.216 -11.809   4.901  0.00  0.00    -0.354 N 
ATOM      2  N   UNL     1      -5.726 -13.448   6.463  0.00  0.00    -0.372 N 
ATOM      3  N   UNL     1      -4.114 -11.904   5.931  0.00  0.00    -0.372 N 
ATOM      4  C   UNL     1      -5.353 -12.375   5.755  0.00  0.00    +0.166 C 
ATOM      5  H   UNL     1      -7.131 -12.232   4.790  0.00  0.00    +0.163 HD
ATOM      6  H   UNL     1      -5.098 -13.894   7.117  0.00  0.00    +0.159 HD
ATOM      7  H   UNL     1      -6.656 -13.841   6.384  0.00  0.00    +0.159 HD
ATOM      8  H   UNL     1      -3.768 -11.101   5.423  0.00  0.00    +0.159 HD
ATOM      9  H   UNL     1      -3.466 -12.344   6.573  0.00  0.00    +0.159 HD
ENDROOT
BRANCH   1  10
ATOM     10  C   UNL     1      -5.927 -10.606   4.122  0.00  0.00    +0.151 C 
BRANCH  10  11
ATOM     11  C   UNL     1      -7.115  -9.687   4.179  0.00  0.00    -0.028 A 
ATOM     12  C   UNL     1      -8.360 -10.158   4.623  0.00  0.00    +0.005 A 
ATOM     13  C   UNL     1      -7.003  -8.342   3.795  0.00  0.00    +0.005 A 
ATOM     14  C   UNL     1      -9.457  -9.297   4.704  0.00  0.00    +0.000 A 
ATOM     15  C   UNL     1      -8.101  -7.485   3.877  0.00  0.00    +0.000 A 
ATOM     16  C   UNL     1      -9.327  -7.963   4.334  0.00  0.00    +0.000 A 
ENDBRANCH  10  11
ENDBRANCH   1  10
TORSDOF 2
ENDMDL
MODEL 4
REMARK VINA RESULT:    -5.633     13.581     14.851
REMARK INTER + INTRA:          -6.404
REMARK INTER:                  -6.273
REMARK INTRA:                  -0.131
REMARK UNBOUND:                -0.113
REMARK  Name = 1550473
REMARK  2 active torsions:
REMARK  status: ('A' for Active; 'I' for Inactive)
REMARK    1  A    between atoms: N_1  and  C_4
REMARK    2  A    between atoms: C_4  and  C_5
REMARK                            x       y       z     vdW  Elec       q    Type
REMARK                         _______ _______ _______ _____ _____    ______ ____
ROOT
ATOM      1  N   UNL     1       1.706  -3.414 -18.480  0.00  0.00    -0.354 N 
ATOM      2  N   UNL     1      -0.011  -4.320 -17.217  0.00  0.00    -0.372 N 
ATOM      3  N   UNL     1       1.414  -5.734 -18.328  0.00  0.00    -0.372 N 
ATOM      4  C   UNL     1       1.049  -4.486 -18.018  0.00  0.00    +0.166 C 
ATOM      5  H   UNL     1       1.360  -2.494 -18.232  0.00  0.00    +0.163 HD
ATOM      6  H   UNL     1      -0.525  -5.110 -16.850  0.00  0.00    +0.159 HD
ATOM      7  H   UNL     1      -0.327  -3.400 -16.934  0.00  0.00    +0.159 HD
ATOM      8  H   UNL     1       2.202  -5.927 -18.932  0.00  0.00    +0.159 HD
ATOM      9  H   UNL     1       0.906  -6.537 -17.980  0.00  0.00    +0.159 HD
ENDROOT
BRANCH   1  10
ATOM     10  C   UNL     1       2.904  -3.486 -19.314  0.00  0.00    +0.151 C 
BRANCH  10  11
ATOM     11  C   UNL     1       3.906  -2.478 -18.823  0.00  0.00    -0.028 A 
ATOM     12  C   UNL     1       5.276  -2.663 -19.058  0.00  0.00    +0.005 A 
ATOM     13  C   UNL     1       3.491  -1.332 -18.127  0.00  0.00    +0.005 A 
ATOM     14  C   UNL     1       6.205  -1.712 -18.628  0.00  0.00    +0.000 A 
ATOM     15  C   UNL     1       4.421  -0.385 -17.699  0.00  0.00    +0.000 A 
ATOM     16  C   UNL     1       5.778  -0.574 -17.952  0.00  0.00    +0.000 A 
ENDBRANCH  10  11
ENDBRANCH   1  10
TORSDOF 2
ENDMDL
MODEL 5
REMARK VINA RESULT:    -5.573      3.077      5.129
REMARK INTER + INTRA:          -6.337
REMARK INTER:                  -6.155
REMARK INTRA:                  -0.182
REMARK UNBOUND:                -0.113
REMARK  Name = 1550473
REMARK  2 active torsions:
REMARK  status: ('A' for Active; 'I' for Inactive)
REMARK    1  A    between atoms: N_1  and  C_4
REMARK    2  A    between atoms: C_4  and  C_5
REMARK                            x       y       z     vdW  Elec       q    Type
REMARK                         _______ _______ _______ _____ _____    ______ ____
ROOT
ATOM      1  N   UNL     1       3.819   4.452  -8.746  0.00  0.00    -0.354 N 
ATOM      2  N   UNL     1       2.623   4.808 -10.697  0.00  0.00    -0.372 N 
ATOM      3  N   UNL     1       4.074   6.432  -9.974  0.00  0.00    -0.372 N 
ATOM      4  C   UNL     1       3.514   5.231  -9.792  0.00  0.00    +0.166 C 
ATOM      5  H   UNL     1       3.338   3.566  -8.649  0.00  0.00    +0.163 HD
ATOM      6  H   UNL     1       2.376   5.372 -11.499  0.00  0.00    +0.159 HD
ATOM      7  H   UNL     1       2.178   3.901 -10.623  0.00  0.00    +0.159 HD
ATOM      8  H   UNL     1       4.749   6.812  -9.324  0.00  0.00    +0.159 HD
ATOM      9  H   UNL     1       3.830   7.016 -10.764  0.00  0.00    +0.159 HD
ENDROOT
BRANCH   1  10
ATOM     10  C   UNL     1       4.816   4.797  -7.733  0.00  0.00    +0.151 C 
BRANCH  10  11
ATOM     11  C   UNL     1       4.113   5.297  -6.502  0.00  0.00    -0.028 A 
ATOM     12  C   UNL     1       4.114   6.663  -6.187  0.00  0.00    +0.005 A 
ATOM     13  C   UNL     1       3.438   4.409  -5.649  0.00  0.00    +0.005 A 
ATOM     14  C   UNL     1       3.435   7.132  -5.059  0.00  0.00    +0.000 A 
ATOM     15  C   UNL     1       2.763   4.881  -4.523  0.00  0.00    +0.000 A 
ATOM     16  C   UNL     1       2.759   6.243  -4.230  0.00  0.00    +0.000 A 
ENDBRANCH  10  11
ENDBRANCH   1  10
TORSDOF 2
ENDMDL
MODEL 6
REMARK VINA RESULT:    -5.408      2.996      5.078
REMARK INTER + INTRA:          -6.153
REMARK INTER:                  -6.048
REMARK INTRA:                  -0.105
REMARK UNBOUND:                -0.113
REMARK  Name = 1550473
REMARK  2 active torsions:
REMARK  status: ('A' for Active; 'I' for Inactive)
REMARK    1  A    between atoms: N_1  and  C_4
REMARK    2  A    between atoms: C_4  and  C_5
REMARK                            x       y       z     vdW  Elec       q    Type
REMARK                         _______ _______ _______ _____ _____    ______ ____
ROOT
ATOM      1  N   UNL     1       5.393   5.395  -8.730  0.00  0.00    -0.354 N 
ATOM      2  N   UNL     1       5.149   5.190 -11.024  0.00  0.00    -0.372 N 
ATOM      3  N   UNL     1       6.750   6.614 -10.202  0.00  0.00    -0.372 N 
ATOM      4  C   UNL     1       5.768   5.737  -9.970  0.00  0.00    +0.166 C 
ATOM      5  H   UNL     1       4.622   4.747  -8.621  0.00  0.00    +0.163 HD
ATOM      6  H   UNL     1       5.412   5.426 -11.972  0.00  0.00    +0.159 HD
ATOM      7  H   UNL     1       4.409   4.508 -10.913  0.00  0.00    +0.159 HD
ATOM      8  H   UNL     1       7.252   7.067  -9.450  0.00  0.00    +0.159 HD
ATOM      9  H   UNL     1       7.019   6.872 -11.143  0.00  0.00    +0.159 HD
ENDROOT
BRANCH   1  10
ATOM     10  C   UNL     1       6.038   5.892  -7.516  0.00  0.00    +0.151 C 
BRANCH  10  11
ATOM     11  C   UNL     1       5.079   5.767  -6.364  0.00  0.00    -0.028 A 
ATOM     12  C   UNL     1       4.420   4.554  -6.114  0.00  0.00    +0.005 A 
ATOM     13  C   UNL     1       4.829   6.856  -5.516  0.00  0.00    +0.005 A 
ATOM     14  C   UNL     1       3.552   4.429  -5.027  0.00  0.00    +0.000 A 
ATOM     15  C   UNL     1       3.961   6.727  -4.431  0.00  0.00    +0.000 A 
ATOM     16  C   UNL     1       3.325   5.513  -4.186  0.00  0.00    +0.000 A 
ENDBRANCH  10  11
ENDBRANCH   1  10
TORSDOF 2
ENDMDL
MODEL 7
REMARK VINA RESULT:    -5.133     22.968     23.550
REMARK INTER + INTRA:          -5.846
REMARK INTER:                  -5.701
REMARK INTRA:                  -0.144
REMARK UNBOUND:                -0.113
REMARK  Name = 1550473
REMARK  2 active torsions:
REMARK  status: ('A' for Active; 'I' for Inactive)
REMARK    1  A    between atoms: N_1  and  C_4
REMARK    2  A    between atoms: C_4  and  C_5
REMARK                            x       y       z     vdW  Elec       q    Type
REMARK                         _______ _______ _______ _____ _____    ______ ____
ROOT
ATOM      1  N   UNL     1      -7.396 -10.790   5.969  0.00  0.00    -0.354 N 
ATOM      2  N   UNL     1      -5.268 -11.339   5.239  0.00  0.00    -0.372 N 
ATOM      3  N   UNL     1      -5.502 -10.194   7.214  0.00  0.00    -0.372 N 
ATOM      4  C   UNL     1      -6.069 -10.769   6.148  0.00  0.00    +0.166 C 
ATOM      5  H   UNL     1      -7.762 -11.215   5.125  0.00  0.00    +0.163 HD
ATOM      6  H   UNL     1      -4.263 -11.342   5.348  0.00  0.00    +0.159 HD
ATOM      7  H   UNL     1      -5.639 -11.804   4.419  0.00  0.00    +0.159 HD
ATOM      8  H   UNL     1      -6.050  -9.742   7.933  0.00  0.00    +0.159 HD
ATOM      9  H   UNL     1      -4.497 -10.177   7.335  0.00  0.00    +0.159 HD
ENDROOT
BRANCH   1  10
ATOM     10  C   UNL     1      -8.358 -10.246   6.926  0.00  0.00    +0.151 C 
BRANCH  10  11
ATOM     11  C   UNL     1      -9.112  -9.118   6.277  0.00  0.00    -0.028 A 
ATOM     12  C   UNL     1      -9.261  -7.889   6.935  0.00  0.00    +0.005 A 
ATOM     13  C   UNL     1      -9.675  -9.271   5.000  0.00  0.00    +0.005 A 
ATOM     14  C   UNL     1      -9.935  -6.831   6.320  0.00  0.00    +0.000 A 
ATOM     15  C   UNL     1     -10.348  -8.213   4.390  0.00  0.00    +0.000 A 
ATOM     16  C   UNL     1     -10.476  -6.993   5.049  0.00  0.00    +0.000 A 
ENDBRANCH  10  11
ENDBRANCH   1  10
TORSDOF 2
ENDMDL
MODEL 8
REMARK VINA RESULT:    -5.091     13.631     14.932
REMARK INTER + INTRA:          -5.799
REMARK INTER:                  -5.645
REMARK INTRA:                  -0.154
REMARK UNBOUND:                -0.113
REMARK  Name = 1550473
REMARK  2 active torsions:
REMARK  status: ('A' for Active; 'I' for Inactive)
REMARK    1  A    between atoms: N_1  and  C_4
REMARK    2  A    between atoms: C_4  and  C_5
REMARK                            x       y       z     vdW  Elec       q    Type
REMARK                         _______ _______ _______ _____ _____    ______ ____
ROOT
ATOM      1  N   UNL     1       1.564  -2.944 -19.691  0.00  0.00    -0.354 N 
ATOM      2  N   UNL     1      -0.419  -2.056 -20.494  0.00  0.00    -0.372 N 
ATOM      3  N   UNL     1      -0.299  -2.689 -18.292  0.00  0.00    -0.372 N 
ATOM      4  C   UNL     1       0.294  -2.569 -19.484  0.00  0.00    +0.166 C 
ATOM      5  H   UNL     1       1.946  -2.855 -20.625  0.00  0.00    +0.163 HD
ATOM      6  H   UNL     1      -1.378  -1.761 -20.368  0.00  0.00    +0.159 HD
ATOM      7  H   UNL     1      -0.020  -1.926 -21.416  0.00  0.00    +0.159 HD
ATOM      8  H   UNL     1       0.182  -3.075 -17.491  0.00  0.00    +0.159 HD
ATOM      9  H   UNL     1      -1.262  -2.411 -18.149  0.00  0.00    +0.159 HD
ENDROOT
BRANCH   1  10
ATOM     10  C   UNL     1       2.443  -3.464 -18.645  0.00  0.00    +0.151 C 
BRANCH  10  11
ATOM     11  C   UNL     1       3.616  -2.538 -18.484  0.00  0.00    -0.028 A 
ATOM     12  C   UNL     1       3.436  -1.241 -17.980  0.00  0.00    +0.005 A 
ATOM     13  C   UNL     1       4.912  -2.953 -18.827  0.00  0.00    +0.005 A 
ATOM     14  C   UNL     1       4.530  -0.391 -17.802  0.00  0.00    +0.000 A 
ATOM     15  C   UNL     1       6.002  -2.100 -18.649  0.00  0.00    +0.000 A 
ATOM     16  C   UNL     1       5.810  -0.821 -18.133  0.00  0.00    +0.000 A 
ENDBRANCH  10  11
ENDBRANCH   1  10
TORSDOF 2
ENDMDL
MODEL 9
REMARK VINA RESULT:    -4.898      4.105      5.528
REMARK INTER + INTRA:          -5.583
REMARK INTER:                  -5.423
REMARK INTRA:                  -0.160
REMARK UNBOUND:                -0.113
REMARK  Name = 1550473
REMARK  2 active torsions:
REMARK  status: ('A' for Active; 'I' for Inactive)
REMARK    1  A    between atoms: N_1  and  C_4
REMARK    2  A    between atoms: C_4  and  C_5
REMARK                            x       y       z     vdW  Elec       q    Type
REMARK                         _______ _______ _______ _____ _____    ______ ____
ROOT
ATOM      1  N   UNL     1       5.152   4.108 -10.338  0.00  0.00    -0.354 N 
ATOM      2  N   UNL     1       4.472   2.191  -9.231  0.00  0.00    -0.372 N 
ATOM      3  N   UNL     1       3.942   4.235  -8.335  0.00  0.00    -0.372 N 
ATOM      4  C   UNL     1       4.525   3.526  -9.307  0.00  0.00    +0.166 C 
ATOM      5  H   UNL     1       5.601   3.515 -11.026  0.00  0.00    +0.163 HD
ATOM      6  H   UNL     1       4.003   1.723  -8.467  0.00  0.00    +0.159 HD
ATOM      7  H   UNL     1       4.881   1.600  -9.945  0.00  0.00    +0.159 HD
ATOM      8  H   UNL     1       3.952   5.247  -8.330  0.00  0.00    +0.159 HD
ATOM      9  H   UNL     1       3.478   3.786  -7.556  0.00  0.00    +0.159 HD
ENDROOT
BRANCH   1  10
ATOM     10  C   UNL     1       5.221   5.554 -10.542  0.00  0.00    +0.151 C 
BRANCH  10  11
ATOM     11  C   UNL     1       4.143   5.966 -11.505  0.00  0.00    -0.028 A 
ATOM     12  C   UNL     1       3.786   5.131 -12.574  0.00  0.00    +0.005 A 
ATOM     13  C   UNL     1       3.470   7.188 -11.351  0.00  0.00    +0.005 A 
ATOM     14  C   UNL     1       2.764   5.500 -13.452  0.00  0.00    +0.000 A 
ATOM     15  C   UNL     1       2.450   7.553 -12.230  0.00  0.00    +0.000 A 
ATOM     16  C   UNL     1       2.096   6.708 -13.279  0.00  0.00    +0.000 A 
ENDBRANCH  10  11
ENDBRANCH   1  10
TORSDOF 2
ENDMDL
