MODEL 1
REMARK VINA RESULT:    -7.373      0.000      0.000
REMARK INTER + INTRA:          -8.380
REMARK INTER:                  -8.235
REMARK INTRA:                  -0.145
REMARK UNBOUND:                -0.145
REMARK  Name = 1550473
REMARK  2 active torsions:
REMARK  status: ('A' for Active; 'I' for Inactive)
REMARK    1  A    between atoms: N_1  and  C_4
REMARK    2  A    between atoms: C_4  and  C_5
REMARK                            x       y       z     vdW  Elec       q    Type
REMARK                         _______ _______ _______ _____ _____    ______ ____
ROOT
ATOM      1  N   UNL     1      -8.182  -9.270 -12.398  0.00  0.00    -0.354 N 
ATOM      2  N   UNL     1      -7.638 -11.061 -11.034  0.00  0.00    -0.372 N 
ATOM      3  N   UNL     1      -7.619 -11.355 -13.310  0.00  0.00    -0.372 N 
ATOM      4  C   UNL     1      -7.817 -10.551 -12.259  0.00  0.00    +0.166 C 
ATOM      5  H   UNL     1      -8.346  -8.722 -11.561  0.00  0.00    +0.163 HD
ATOM      6  H   UNL     1      -7.359 -12.023 -10.898  0.00  0.00    +0.159 HD
ATOM      7  H   UNL     1      -7.757 -10.498 -10.200  0.00  0.00    +0.159 HD
ATOM      8  H   UNL     1      -7.743 -11.033 -14.260  0.00  0.00    +0.159 HD
ATOM      9  H   UNL     1      -7.351 -12.324 -13.193  0.00  0.00    +0.159 HD
ENDROOT
BRANCH   1  10
ATOM     10  C   UNL     1      -8.351  -8.604 -13.689  0.00  0.00    +0.151 C 
BRANCH  10  11
ATOM     11  C   UNL     1      -7.364  -7.474 -13.791  0.00  0.00    -0.028 A 
ATOM     12  C   UNL     1      -7.090  -6.666 -12.677  0.00  0.00    +0.005 A 
ATOM     13  C   UNL     1      -6.696  -7.209 -14.996  0.00  0.00    +0.005 A 
ATOM     14  C   UNL     1      -6.151  -5.635 -12.763  0.00  0.00    +0.000 A 
ATOM     15  C   UNL     1      -5.760  -6.179 -15.078  0.00  0.00    +0.000 A 
ATOM     16  C   UNL     1      -5.486  -5.393 -13.961  0.00  0.00    +0.000 A 
ENDBRANCH  10  11
ENDBRANCH   1  10
TORSDOF 2
ENDMDL
MODEL 2
REMARK VINA RESULT:    -7.272      3.147      4.290
REMARK INTER + INTRA:          -8.267
REMARK INTER:                  -8.129
REMARK INTRA:                  -0.138
REMARK UNBOUND:                -0.145
REMARK  Name = 1550473
REMARK  2 active torsions:
REMARK  status: ('A' for Active; 'I' for Inactive)
REMARK    1  A    between atoms: N_1  and  C_4
REMARK    2  A    between atoms: C_4  and  C_5
REMARK                            x       y       z     vdW  Elec       q    Type
REMARK                         _______ _______ _______ _____ _____    ______ ____
ROOT
ATOM      1  N   UNL     1      -7.869  -5.411 -10.416  0.00  0.00    -0.354 N 
ATOM      2  N   UNL     1      -7.616  -3.890  -8.688  0.00  0.00    -0.372 N 
ATOM      3  N   UNL     1      -7.121  -6.098  -8.305  0.00  0.00    -0.372 N 
ATOM      4  C   UNL     1      -7.536  -5.145  -9.146  0.00  0.00    +0.166 C 
ATOM      5  H   UNL     1      -8.205  -4.650 -10.995  0.00  0.00    +0.163 HD
ATOM      6  H   UNL     1      -7.368  -3.659  -7.735  0.00  0.00    +0.159 HD
ATOM      7  H   UNL     1      -7.908  -3.124  -9.282  0.00  0.00    +0.159 HD
ATOM      8  H   UNL     1      -7.045  -7.066  -8.587  0.00  0.00    +0.159 HD
ATOM      9  H   UNL     1      -6.880  -5.888  -7.344  0.00  0.00    +0.159 HD
ENDROOT
BRANCH   1  10
ATOM     10  C   UNL     1      -7.766  -6.734 -11.029  0.00  0.00    +0.151 C 
BRANCH  10  11
ATOM     11  C   UNL     1      -7.135  -6.599 -12.387  0.00  0.00    -0.028 A 
ATOM     12  C   UNL     1      -7.540  -7.426 -13.446  0.00  0.00    +0.005 A 
ATOM     13  C   UNL     1      -6.136  -5.643 -12.624  0.00  0.00    +0.005 A 
ATOM     14  C   UNL     1      -6.975  -7.280 -14.715  0.00  0.00    +0.000 A 
ATOM     15  C   UNL     1      -5.574  -5.501 -13.892  0.00  0.00    +0.000 A 
ATOM     16  C   UNL     1      -5.995  -6.319 -14.938  0.00  0.00    +0.000 A 
ENDBRANCH  10  11
ENDBRANCH   1  10
TORSDOF 2
ENDMDL
MODEL 3
REMARK VINA RESULT:    -7.139      3.068      4.389
REMARK INTER + INTRA:          -8.118
REMARK INTER:                  -7.987
REMARK INTRA:                  -0.130
REMARK UNBOUND:                -0.145
REMARK  Name = 1550473
REMARK  2 active torsions:
REMARK  status: ('A' for Active; 'I' for Inactive)
REMARK    1  A    between atoms: N_1  and  C_4
REMARK    2  A    between atoms: C_4  and  C_5
REMARK                            x       y       z     vdW  Elec       q    Type
REMARK                         _______ _______ _______ _____ _____    ______ ____
ROOT
ATOM      1  N   UNL     1      -6.856  -5.972 -10.082  0.00  0.00    -0.354 N 
ATOM      2  N   UNL     1      -7.948  -6.393  -8.084  0.00  0.00    -0.372 N 
ATOM      3  N   UNL     1      -7.548  -4.217  -8.692  0.00  0.00    -0.372 N 
ATOM      4  C   UNL     1      -7.443  -5.522  -8.965  0.00  0.00    +0.166 C 
ATOM      5  H   UNL     1      -6.781  -6.974 -10.216  0.00  0.00    +0.163 HD
ATOM      6  H   UNL     1      -8.400  -6.083  -7.234  0.00  0.00    +0.159 HD
ATOM      7  H   UNL     1      -7.913  -7.393  -8.243  0.00  0.00    +0.159 HD
ATOM      8  H   UNL     1      -7.182  -3.509  -9.314  0.00  0.00    +0.159 HD
ATOM      9  H   UNL     1      -7.987  -3.888  -7.841  0.00  0.00    +0.159 HD
ENDROOT
BRANCH   1  10
ATOM     10  C   UNL     1      -6.322  -5.106 -11.131  0.00  0.00    +0.151 C 
BRANCH  10  11
ATOM     11  C   UNL     1      -6.460  -5.799 -12.459  0.00  0.00    -0.028 A 
ATOM     12  C   UNL     1      -5.628  -5.452 -13.533  0.00  0.00    +0.005 A 
ATOM     13  C   UNL     1      -7.417  -6.808 -12.646  0.00  0.00    +0.005 A 
ATOM     14  C   UNL     1      -5.736  -6.117 -14.757  0.00  0.00    +0.000 A 
ATOM     15  C   UNL     1      -7.522  -7.469 -13.870  0.00  0.00    +0.000 A 
ATOM     16  C   UNL     1      -6.679  -7.125 -14.925  0.00  0.00    +0.000 A 
ENDBRANCH  10  11
ENDBRANCH   1  10
TORSDOF 2
ENDMDL
MODEL 4
REMARK VINA RESULT:    -6.141      3.059      4.263
REMARK INTER + INTRA:          -7.003
REMARK INTER:                  -6.880
REMARK INTRA:                  -0.124
REMARK UNBOUND:                -0.145
REMARK  Name = 1550473
REMARK  2 active torsions:
REMARK  status: ('A' for Active; 'I' for Inactive)
REMARK    1  A    between atoms: N_1  and  C_4
REMARK    2  A    between atoms: C_4  and  C_5
REMARK                            x       y       z     vdW  Elec       q    Type
REMARK                         _______ _______ _______ _____ _____    ______ ____
ROOT
ATOM      1  N   UNL     1      -6.889  -6.466 -10.007  0.00  0.00    -0.354 N 
ATOM      2  N   UNL     1      -6.544  -6.693  -7.728  0.00  0.00    -0.372 N 
ATOM      3  N   UNL     1      -8.315  -5.432  -8.461  0.00  0.00    -0.372 N 
ATOM      4  C   UNL     1      -7.254  -6.194  -8.747  0.00  0.00    +0.166 C 
ATOM      5  H   UNL     1      -6.057  -7.025 -10.157  0.00  0.00    +0.163 HD
ATOM      6  H   UNL     1      -6.798  -6.508  -6.767  0.00  0.00    +0.159 HD
ATOM      7  H   UNL     1      -5.740  -7.290  -7.880  0.00  0.00    +0.159 HD
ATOM      8  H   UNL     1      -8.889  -5.020  -9.185  0.00  0.00    +0.159 HD
ATOM      9  H   UNL     1      -8.578  -5.226  -7.505  0.00  0.00    +0.159 HD
ENDROOT
BRANCH   1  10
ATOM     10  C   UNL     1      -7.625  -6.015 -11.187  0.00  0.00    +0.151 C 
BRANCH  10  11
ATOM     11  C   UNL     1      -7.569  -7.088 -12.239  0.00  0.00    -0.028 A 
ATOM     12  C   UNL     1      -7.974  -8.397 -11.944  0.00  0.00    +0.005 A 
ATOM     13  C   UNL     1      -7.118  -6.799 -13.536  0.00  0.00    +0.005 A 
ATOM     14  C   UNL     1      -7.951  -9.387 -12.930  0.00  0.00    +0.000 A 
ATOM     15  C   UNL     1      -7.096  -7.790 -14.518  0.00  0.00    +0.000 A 
ATOM     16  C   UNL     1      -7.515  -9.083 -14.215  0.00  0.00    +0.000 A 
ENDBRANCH  10  11
ENDBRANCH   1  10
TORSDOF 2
ENDMDL
MODEL 5
REMARK VINA RESULT:    -5.571      3.711      4.766
REMARK INTER + INTRA:          -6.366
REMARK INTER:                  -6.195
REMARK INTRA:                  -0.171
REMARK UNBOUND:                -0.145
REMARK  Name = 1550473
REMARK  2 active torsions:
REMARK  status: ('A' for Active; 'I' for Inactive)
REMARK    1  A    between atoms: N_1  and  C_4
REMARK    2  A    between atoms: C_4  and  C_5
REMARK                            x       y       z     vdW  Elec       q    Type
REMARK                         _______ _______ _______ _____ _____    ______ ____
ROOT
ATOM      1  N   UNL     1      -8.104  -5.503  -8.679  0.00  0.00    -0.354 N 
ATOM      2  N   UNL     1      -9.834  -4.191  -7.872  0.00  0.00    -0.372 N 
ATOM      3  N   UNL     1     -10.320  -6.263  -8.730  0.00  0.00    -0.372 N 
ATOM      4  C   UNL     1      -9.410  -5.330  -8.433  0.00  0.00    +0.166 C 
ATOM      5  H   UNL     1      -7.468  -4.745  -8.458  0.00  0.00    +0.163 HD
ATOM      6  H   UNL     1     -10.812  -4.033  -7.672  0.00  0.00    +0.159 HD
ATOM      7  H   UNL     1      -9.190  -3.454  -7.610  0.00  0.00    +0.159 HD
ATOM      8  H   UNL     1     -10.066  -7.142  -9.160  0.00  0.00    +0.159 HD
ATOM      9  H   UNL     1     -11.306  -6.118  -8.548  0.00  0.00    +0.159 HD
ENDROOT
BRANCH   1  10
ATOM     10  C   UNL     1      -7.533  -6.727  -9.237  0.00  0.00    +0.151 C 
BRANCH  10  11
ATOM     11  C   UNL     1      -7.161  -6.485 -10.674  0.00  0.00    -0.028 A 
ATOM     12  C   UNL     1      -6.222  -5.499 -11.010  0.00  0.00    +0.005 A 
ATOM     13  C   UNL     1      -7.741  -7.241 -11.704  0.00  0.00    +0.005 A 
ATOM     14  C   UNL     1      -5.855  -5.293 -12.342  0.00  0.00    +0.000 A 
ATOM     15  C   UNL     1      -7.372  -7.033 -13.033  0.00  0.00    +0.000 A 
ATOM     16  C   UNL     1      -6.427  -6.061 -13.351  0.00  0.00    +0.000 A 
ENDBRANCH  10  11
ENDBRANCH   1  10
TORSDOF 2
ENDMDL
MODEL 6
REMARK VINA RESULT:    -5.316      6.135      7.267
REMARK INTER + INTRA:          -6.082
REMARK INTER:                  -5.951
REMARK INTRA:                  -0.131
REMARK UNBOUND:                -0.145
REMARK  Name = 1550473
REMARK  2 active torsions:
REMARK  status: ('A' for Active; 'I' for Inactive)
REMARK    1  A    between atoms: N_1  and  C_4
REMARK    2  A    between atoms: C_4  and  C_5
REMARK                            x       y       z     vdW  Elec       q    Type
REMARK                         _______ _______ _______ _____ _____    ______ ____
ROOT
ATOM      1  N   UNL     1     -10.254  -4.685  -8.345  0.00  0.00    -0.354 N 
ATOM      2  N   UNL     1     -10.651  -2.535  -9.109  0.00  0.00    -0.372 N 
ATOM      3  N   UNL     1     -11.394  -4.311 -10.358  0.00  0.00    -0.372 N 
ATOM      4  C   UNL     1     -10.765  -3.859  -9.268  0.00  0.00    +0.166 C 
ATOM      5  H   UNL     1      -9.762  -4.280  -7.557  0.00  0.00    +0.163 HD
ATOM      6  H   UNL     1     -11.030  -1.887  -9.787  0.00  0.00    +0.159 HD
ATOM      7  H   UNL     1     -10.200  -2.132  -8.297  0.00  0.00    +0.159 HD
ATOM      8  H   UNL     1     -11.508  -5.299 -10.540  0.00  0.00    +0.159 HD
ATOM      9  H   UNL     1     -11.770  -3.679 -11.054  0.00  0.00    +0.159 HD
ENDROOT
BRANCH   1  10
ATOM     10  C   UNL     1     -10.371  -6.141  -8.396  0.00  0.00    +0.151 C 
BRANCH  10  11
ATOM     11  C   UNL     1      -9.059  -6.754  -7.991  0.00  0.00    -0.028 A 
ATOM     12  C   UNL     1      -7.876  -6.414  -8.665  0.00  0.00    +0.005 A 
ATOM     13  C   UNL     1      -8.990  -7.671  -6.931  0.00  0.00    +0.005 A 
ATOM     14  C   UNL     1      -6.653  -6.960  -8.270  0.00  0.00    +0.000 A 
ATOM     15  C   UNL     1      -7.766  -8.214  -6.540  0.00  0.00    +0.000 A 
ATOM     16  C   UNL     1      -6.598  -7.857  -7.208  0.00  0.00    +0.000 A 
ENDBRANCH  10  11
ENDBRANCH   1  10
TORSDOF 2
ENDMDL
MODEL 7
REMARK VINA RESULT:    -5.033     27.183     28.340
REMARK INTER + INTRA:          -5.766
REMARK INTER:                  -5.639
REMARK INTRA:                  -0.127
REMARK UNBOUND:                -0.145
REMARK  Name = 1550473
REMARK  2 active torsions:
REMARK  status: ('A' for Active; 'I' for Inactive)
REMARK    1  A    between atoms: N_1  and  C_4
REMARK    2  A    between atoms: C_4  and  C_5
REMARK                            x       y       z     vdW  Elec       q    Type
REMARK                         _______ _______ _______ _____ _____    ______ ____
ROOT
ATOM      1  N   UNL     1      21.050  -3.242  -5.674  0.00  0.00    -0.354 N 
ATOM      2  N   UNL     1      23.123  -2.821  -4.733  0.00  0.00    -0.372 N 
ATOM      3  N   UNL     1      22.994  -3.261  -6.981  0.00  0.00    -0.372 N 
ATOM      4  C   UNL     1      22.376  -3.112  -5.805  0.00  0.00    +0.166 C 
ATOM      5  H   UNL     1      20.645  -3.147  -4.750  0.00  0.00    +0.163 HD
ATOM      6  H   UNL     1      24.126  -2.713  -4.802  0.00  0.00    +0.159 HD
ATOM      7  H   UNL     1      22.711  -2.681  -3.819  0.00  0.00    +0.159 HD
ATOM      8  H   UNL     1      22.488  -3.487  -7.827  0.00  0.00    +0.159 HD
ATOM      9  H   UNL     1      23.999  -3.169  -7.068  0.00  0.00    +0.159 HD
ENDROOT
BRANCH   1  10
ATOM     10  C   UNL     1      20.140  -3.505  -6.788  0.00  0.00    +0.151 C 
BRANCH  10  11
ATOM     11  C   UNL     1      18.748  -3.098  -6.391  0.00  0.00    -0.028 A 
ATOM     12  C   UNL     1      17.657  -3.383  -7.226  0.00  0.00    +0.005 A 
ATOM     13  C   UNL     1      18.511  -2.431  -5.179  0.00  0.00    +0.005 A 
ATOM     14  C   UNL     1      16.360  -3.032  -6.844  0.00  0.00    +0.000 A 
ATOM     15  C   UNL     1      17.215  -2.082  -4.802  0.00  0.00    +0.000 A 
ATOM     16  C   UNL     1      16.139  -2.385  -5.634  0.00  0.00    +0.000 A 
ENDBRANCH  10  11
ENDBRANCH   1  10
TORSDOF 2
ENDMDL
MODEL 8
REMARK VINA RESULT:    -4.975     25.189     26.228
REMARK INTER + INTRA:          -5.701
REMARK INTER:                  -5.577
REMARK INTRA:                  -0.124
REMARK UNBOUND:                -0.145
REMARK  Name = 1550473
REMARK  2 active torsions:
REMARK  status: ('A' for Active; 'I' for Inactive)
REMARK    1  A    between atoms: N_1  and  C_4
REMARK    2  A    between atoms: C_4  and  C_5
REMARK                            x       y       z     vdW  Elec       q    Type
REMARK                         _______ _______ _______ _____ _____    ______ ____
ROOT
ATOM      1  N   UNL     1      16.429  -3.772  -7.050  0.00  0.00    -0.354 N 
ATOM      2  N   UNL     1      16.038  -3.613  -9.327  0.00  0.00    -0.372 N 
ATOM      3  N   UNL     1      15.399  -5.520  -8.223  0.00  0.00    -0.372 N 
ATOM      4  C   UNL     1      15.957  -4.306  -8.185  0.00  0.00    +0.166 C 
ATOM      5  H   UNL     1      16.868  -2.860  -7.093  0.00  0.00    +0.163 HD
ATOM      6  H   UNL     1      15.687  -3.988 -10.198  0.00  0.00    +0.159 HD
ATOM      7  H   UNL     1      16.435  -2.682  -9.359  0.00  0.00    +0.159 HD
ATOM      8  H   UNL     1      15.314  -6.096  -7.396  0.00  0.00    +0.159 HD
ATOM      9  H   UNL     1      15.053  -5.918  -9.087  0.00  0.00    +0.159 HD
ENDROOT
BRANCH   1  10
ATOM     10  C   UNL     1      16.342  -4.421  -5.743  0.00  0.00    +0.151 C 
BRANCH  10  11
ATOM     11  C   UNL     1      17.720  -4.837  -5.308  0.00  0.00    -0.028 A 
ATOM     12  C   UNL     1      17.902  -5.576  -4.130  0.00  0.00    +0.005 A 
ATOM     13  C   UNL     1      18.848  -4.499  -6.072  0.00  0.00    +0.005 A 
ATOM     14  C   UNL     1      19.179  -5.988  -3.740  0.00  0.00    +0.000 A 
ATOM     15  C   UNL     1      20.121  -4.912  -5.679  0.00  0.00    +0.000 A 
ATOM     16  C   UNL     1      20.286  -5.658  -4.515  0.00  0.00    +0.000 A 
ENDBRANCH  10  11
ENDBRANCH   1  10
TORSDOF 2
ENDMDL
MODEL 9
REMARK VINA RESULT:    -4.696     25.076     26.122
REMARK INTER + INTRA:          -5.390
REMARK INTER:                  -5.266
REMARK INTRA:                  -0.124
REMARK UNBOUND:                -0.145
REMARK  Name = 1550473
REMARK  2 active torsions:
REMARK  status: ('A' for Active; 'I' for Inactive)
REMARK    1  A    between atoms: N_1  and  C_4
REMARK    2  A    between atoms: C_4  and  C_5
REMARK                            x       y       z     vdW  Elec       q    Type
REMARK                         _______ _______ _______ _____ _____    ______ ____
ROOT
ATOM      1  N   UNL     1      18.473  -7.231  -6.209  0.00  0.00    -0.354 N 
ATOM      2  N   UNL     1      19.234  -9.326  -6.837  0.00  0.00    -0.372 N 
ATOM      3  N   UNL     1      19.715  -8.557  -4.729  0.00  0.00    -0.372 N 
ATOM      4  C   UNL     1      19.137  -8.357  -5.919  0.00  0.00    +0.166 C 
ATOM      5  H   UNL     1      18.083  -7.128  -7.139  0.00  0.00    +0.163 HD
ATOM      6  H   UNL     1      19.726 -10.189  -6.645  0.00  0.00    +0.159 HD
ATOM      7  H   UNL     1      18.804  -9.240  -7.750  0.00  0.00    +0.159 HD
ATOM      8  H   UNL     1      19.683  -7.862  -3.995  0.00  0.00    +0.159 HD
ATOM      9  H   UNL     1      20.222  -9.409  -4.522  0.00  0.00    +0.159 HD
ENDROOT
BRANCH   1  10
ATOM     10  C   UNL     1      18.264  -6.137  -5.262  0.00  0.00    +0.151 C 
BRANCH  10  11
ATOM     11  C   UNL     1      17.523  -5.025  -5.952  0.00  0.00    -0.028 A 
ATOM     12  C   UNL     1      17.129  -5.156  -7.291  0.00  0.00    +0.005 A 
ATOM     13  C   UNL     1      17.207  -3.840  -5.269  0.00  0.00    +0.005 A 
ATOM     14  C   UNL     1      16.414  -4.135  -7.923  0.00  0.00    +0.000 A 
ATOM     15  C   UNL     1      16.495  -2.823  -5.904  0.00  0.00    +0.000 A 
ATOM     16  C   UNL     1      16.096  -2.972  -7.230  0.00  0.00    +0.000 A 
ENDBRANCH  10  11
ENDBRANCH   1  10
TORSDOF 2
ENDMDL
