MODEL 1
REMARK VINA RESULT:    -5.172      0.000      0.000
REMARK INTER + INTRA:          -5.942
REMARK INTER:                  -5.777
REMARK INTRA:                  -0.165
REMARK UNBOUND:                -0.165
REMARK  Name = 1550473
REMARK  2 active torsions:
REMARK  status: ('A' for Active; 'I' for Inactive)
REMARK    1  A    between atoms: N_1  and  C_4
REMARK    2  A    between atoms: C_4  and  C_5
REMARK                            x       y       z     vdW  Elec       q    Type
REMARK                         _______ _______ _______ _____ _____    ______ ____
ROOT
ATOM      1  N   UNL     1       2.032 -12.404   1.615  0.00  0.00    -0.354 N 
ATOM      2  N   UNL     1       4.088 -13.432   1.332  0.00  0.00    -0.372 N 
ATOM      3  N   UNL     1       3.928 -11.166   1.008  0.00  0.00    -0.372 N 
ATOM      4  C   UNL     1       3.337 -12.324   1.319  0.00  0.00    +0.166 C 
ATOM      5  H   UNL     1       1.638 -13.316   1.813  0.00  0.00    +0.163 HD
ATOM      6  H   UNL     1       5.076 -13.403   1.117  0.00  0.00    +0.159 HD
ATOM      7  H   UNL     1       3.701 -14.336   1.576  0.00  0.00    +0.159 HD
ATOM      8  H   UNL     1       3.415 -10.295   0.974  0.00  0.00    +0.159 HD
ATOM      9  H   UNL     1       4.912 -11.118   0.778  0.00  0.00    +0.159 HD
ENDROOT
BRANCH   1  10
ATOM     10  C   UNL     1       1.138 -11.249   1.681  0.00  0.00    +0.151 C 
BRANCH  10  11
ATOM     11  C   UNL     1       0.286 -11.216   0.442  0.00  0.00    -0.028 A 
ATOM     12  C   UNL     1      -1.007 -11.760   0.452  0.00  0.00    +0.005 A 
ATOM     13  C   UNL     1       0.764 -10.637  -0.743  0.00  0.00    +0.005 A 
ATOM     14  C   UNL     1      -1.810 -11.702  -0.690  0.00  0.00    +0.000 A 
ATOM     15  C   UNL     1      -0.041 -10.582  -1.882  0.00  0.00    +0.000 A 
ATOM     16  C   UNL     1      -1.328 -11.113  -1.854  0.00  0.00    +0.000 A 
ENDBRANCH  10  11
ENDBRANCH   1  10
TORSDOF 2
ENDMDL
MODEL 2
REMARK VINA RESULT:    -5.067     14.378     15.813
REMARK INTER + INTRA:          -5.824
REMARK INTER:                  -5.650
REMARK INTRA:                  -0.174
REMARK UNBOUND:                -0.165
REMARK  Name = 1550473
REMARK  2 active torsions:
REMARK  status: ('A' for Active; 'I' for Inactive)
REMARK    1  A    between atoms: N_1  and  C_4
REMARK    2  A    between atoms: C_4  and  C_5
REMARK                            x       y       z     vdW  Elec       q    Type
REMARK                         _______ _______ _______ _____ _____    ______ ____
ROOT
ATOM      1  N   UNL     1       4.645  -8.058 -13.090  0.00  0.00    -0.354 N 
ATOM      2  N   UNL     1       6.360  -8.570 -11.620  0.00  0.00    -0.372 N 
ATOM      3  N   UNL     1       6.824  -8.443 -13.864  0.00  0.00    -0.372 N 
ATOM      4  C   UNL     1       5.933  -8.354 -12.870  0.00  0.00    +0.166 C 
ATOM      5  H   UNL     1       4.014  -8.035 -12.297  0.00  0.00    +0.163 HD
ATOM      6  H   UNL     1       7.327  -8.791 -11.423  0.00  0.00    +0.159 HD
ATOM      7  H   UNL     1       5.737  -8.501 -10.825  0.00  0.00    +0.159 HD
ATOM      8  H   UNL     1       6.564  -8.298 -14.830  0.00  0.00    +0.159 HD
ATOM      9  H   UNL     1       7.793  -8.676 -13.687  0.00  0.00    +0.159 HD
ENDROOT
BRANCH   1  10
ATOM     10  C   UNL     1       4.090  -7.753 -14.408  0.00  0.00    +0.151 C 
BRANCH  10  11
ATOM     11  C   UNL     1       4.104  -6.264 -14.614  0.00  0.00    -0.028 A 
ATOM     12  C   UNL     1       3.508  -5.409 -13.674  0.00  0.00    +0.005 A 
ATOM     13  C   UNL     1       4.716  -5.700 -15.743  0.00  0.00    +0.005 A 
ATOM     14  C   UNL     1       3.547  -4.024 -13.850  0.00  0.00    +0.000 A 
ATOM     15  C   UNL     1       4.752  -4.316 -15.916  0.00  0.00    +0.000 A 
ATOM     16  C   UNL     1       4.170  -3.478 -14.967  0.00  0.00    +0.000 A 
ENDBRANCH  10  11
ENDBRANCH   1  10
TORSDOF 2
ENDMDL
MODEL 3
REMARK VINA RESULT:    -4.912      4.187      5.732
REMARK INTER + INTRA:          -5.652
REMARK INTER:                  -5.517
REMARK INTRA:                  -0.135
REMARK UNBOUND:                -0.165
REMARK  Name = 1550473
REMARK  2 active torsions:
REMARK  status: ('A' for Active; 'I' for Inactive)
REMARK    1  A    between atoms: N_1  and  C_4
REMARK    2  A    between atoms: C_4  and  C_5
REMARK                            x       y       z     vdW  Elec       q    Type
REMARK                         _______ _______ _______ _____ _____    ______ ____
ROOT
ATOM      1  N   UNL     1      -2.894 -11.340  -2.302  0.00  0.00    -0.354 N 
ATOM      2  N   UNL     1      -4.101 -10.143  -3.875  0.00  0.00    -0.372 N 
ATOM      3  N   UNL     1      -5.156 -10.832  -1.958  0.00  0.00    -0.372 N 
ATOM      4  C   UNL     1      -4.044 -10.780  -2.699  0.00  0.00    +0.166 C 
ATOM      5  H   UNL     1      -2.095 -11.292  -2.923  0.00  0.00    +0.163 HD
ATOM      6  H   UNL     1      -4.954  -9.708  -4.200  0.00  0.00    +0.159 HD
ATOM      7  H   UNL     1      -3.288 -10.057  -4.474  0.00  0.00    +0.159 HD
ATOM      8  H   UNL     1      -5.181 -11.303  -1.063  0.00  0.00    +0.159 HD
ATOM      9  H   UNL     1      -6.022 -10.413  -2.271  0.00  0.00    +0.159 HD
ENDROOT
BRANCH   1  10
ATOM     10  C   UNL     1      -2.713 -12.010  -1.015  0.00  0.00    +0.151 C 
BRANCH  10  11
ATOM     11  C   UNL     1      -1.389 -11.602  -0.431  0.00  0.00    -0.028 A 
ATOM     12  C   UNL     1      -1.095 -11.859   0.916  0.00  0.00    +0.005 A 
ATOM     13  C   UNL     1      -0.421 -10.962  -1.221  0.00  0.00    +0.005 A 
ATOM     14  C   UNL     1       0.146 -11.507   1.452  0.00  0.00    +0.000 A 
ATOM     15  C   UNL     1       0.817 -10.611  -0.682  0.00  0.00    +0.000 A 
ATOM     16  C   UNL     1       1.101 -10.886   0.654  0.00  0.00    +0.000 A 
ENDBRANCH  10  11
ENDBRANCH   1  10
TORSDOF 2
ENDMDL
MODEL 4
REMARK VINA RESULT:    -4.901      5.687      7.018
REMARK INTER + INTRA:          -5.640
REMARK INTER:                  -5.521
REMARK INTRA:                  -0.119
REMARK UNBOUND:                -0.165
REMARK  Name = 1550473
REMARK  2 active torsions:
REMARK  status: ('A' for Active; 'I' for Inactive)
REMARK    1  A    between atoms: N_1  and  C_4
REMARK    2  A    between atoms: C_4  and  C_5
REMARK                            x       y       z     vdW  Elec       q    Type
REMARK                         _______ _______ _______ _____ _____    ______ ____
ROOT
ATOM      1  N   UNL     1      -2.379 -10.444  -4.018  0.00  0.00    -0.354 N 
ATOM      2  N   UNL     1      -4.482  -9.606  -3.532  0.00  0.00    -0.372 N 
ATOM      3  N   UNL     1      -3.786 -11.528  -2.490  0.00  0.00    -0.372 N 
ATOM      4  C   UNL     1      -3.535 -10.534  -3.348  0.00  0.00    +0.166 C 
ATOM      5  H   UNL     1      -2.262  -9.683  -4.677  0.00  0.00    +0.163 HD
ATOM      6  H   UNL     1      -5.364  -9.645  -3.038  0.00  0.00    +0.159 HD
ATOM      7  H   UNL     1      -4.345  -8.821  -4.157  0.00  0.00    +0.159 HD
ATOM      8  H   UNL     1      -3.115 -12.263  -2.310  0.00  0.00    +0.159 HD
ATOM      9  H   UNL     1      -4.667 -11.591  -1.995  0.00  0.00    +0.159 HD
ENDROOT
BRANCH   1  10
ATOM     10  C   UNL     1      -1.262 -11.373  -3.850  0.00  0.00    +0.151 C 
BRANCH  10  11
ATOM     11  C   UNL     1      -0.270 -11.155  -4.959  0.00  0.00    -0.028 A 
ATOM     12  C   UNL     1       0.606 -12.181  -5.342  0.00  0.00    +0.005 A 
ATOM     13  C   UNL     1      -0.206  -9.926  -5.634  0.00  0.00    +0.005 A 
ATOM     14  C   UNL     1       1.507 -11.989  -6.393  0.00  0.00    +0.000 A 
ATOM     15  C   UNL     1       0.696  -9.738  -6.682  0.00  0.00    +0.000 A 
ATOM     16  C   UNL     1       1.550 -10.770  -7.062  0.00  0.00    +0.000 A 
ENDBRANCH  10  11
ENDBRANCH   1  10
TORSDOF 2
ENDMDL
MODEL 5
REMARK VINA RESULT:    -4.894      4.351      5.719
REMARK INTER + INTRA:          -5.631
REMARK INTER:                  -5.489
REMARK INTRA:                  -0.142
REMARK UNBOUND:                -0.165
REMARK  Name = 1550473
REMARK  2 active torsions:
REMARK  status: ('A' for Active; 'I' for Inactive)
REMARK    1  A    between atoms: N_1  and  C_4
REMARK    2  A    between atoms: C_4  and  C_5
REMARK                            x       y       z     vdW  Elec       q    Type
REMARK                         _______ _______ _______ _____ _____    ______ ____
ROOT
ATOM      1  N   UNL     1      -0.631  -9.905  -4.470  0.00  0.00    -0.354 N 
ATOM      2  N   UNL     1       0.674  -9.383  -6.311  0.00  0.00    -0.372 N 
ATOM      3  N   UNL     1      -0.526 -11.339  -6.320  0.00  0.00    -0.372 N 
ATOM      4  C   UNL     1      -0.171 -10.215  -5.689  0.00  0.00    +0.166 C 
ATOM      5  H   UNL     1      -0.300  -9.053  -4.033  0.00  0.00    +0.163 HD
ATOM      6  H   UNL     1       1.035  -9.589  -7.232  0.00  0.00    +0.159 HD
ATOM      7  H   UNL     1       0.967  -8.510  -5.890  0.00  0.00    +0.159 HD
ATOM      8  H   UNL     1      -1.156 -12.012  -5.903  0.00  0.00    +0.159 HD
ATOM      9  H   UNL     1      -0.166 -11.568  -7.238  0.00  0.00    +0.159 HD
ENDROOT
BRANCH   1  10
ATOM     10  C   UNL     1      -1.596 -10.716  -3.730  0.00  0.00    +0.151 C 
BRANCH  10  11
ATOM     11  C   UNL     1      -1.083 -10.939  -2.334  0.00  0.00    -0.028 A 
ATOM     12  C   UNL     1       0.225 -10.566  -1.989  0.00  0.00    +0.005 A 
ATOM     13  C   UNL     1      -1.900 -11.517  -1.351  0.00  0.00    +0.005 A 
ATOM     14  C   UNL     1       0.692 -10.745  -0.684  0.00  0.00    +0.000 A 
ATOM     15  C   UNL     1      -1.429 -11.694  -0.050  0.00  0.00    +0.000 A 
ATOM     16  C   UNL     1      -0.134 -11.307   0.283  0.00  0.00    +0.000 A 
ENDBRANCH  10  11
ENDBRANCH   1  10
TORSDOF 2
ENDMDL
MODEL 6
REMARK VINA RESULT:    -4.817      5.018      6.212
REMARK INTER + INTRA:          -5.545
REMARK INTER:                  -5.382
REMARK INTRA:                  -0.163
REMARK UNBOUND:                -0.165
REMARK  Name = 1550473
REMARK  2 active torsions:
REMARK  status: ('A' for Active; 'I' for Inactive)
REMARK    1  A    between atoms: N_1  and  C_4
REMARK    2  A    between atoms: C_4  and  C_5
REMARK                            x       y       z     vdW  Elec       q    Type
REMARK                         _______ _______ _______ _____ _____    ______ ____
ROOT
ATOM      1  N   UNL     1       0.768 -10.261  -6.348  0.00  0.00    -0.354 N 
ATOM      2  N   UNL     1       2.633 -11.310  -7.234  0.00  0.00    -0.372 N 
ATOM      3  N   UNL     1       0.659 -12.473  -7.112  0.00  0.00    -0.372 N 
ATOM      4  C   UNL     1       1.339 -11.343  -6.892  0.00  0.00    +0.166 C 
ATOM      5  H   UNL     1       1.346  -9.445  -6.179  0.00  0.00    +0.163 HD
ATOM      6  H   UNL     1       3.090 -12.110  -7.649  0.00  0.00    +0.159 HD
ATOM      7  H   UNL     1       3.197 -10.478  -7.106  0.00  0.00    +0.159 HD
ATOM      8  H   UNL     1      -0.319 -12.565  -6.871  0.00  0.00    +0.159 HD
ATOM      9  H   UNL     1       1.102 -13.289  -7.516  0.00  0.00    +0.159 HD
ENDROOT
BRANCH   1  10
ATOM     10  C   UNL     1      -0.647 -10.175  -5.990  0.00  0.00    +0.151 C 
BRANCH  10  11
ATOM     11  C   UNL     1      -0.800 -10.455  -4.520  0.00  0.00    -0.028 A 
ATOM     12  C   UNL     1      -1.894 -11.193  -4.046  0.00  0.00    +0.005 A 
ATOM     13  C   UNL     1       0.150  -9.990  -3.597  0.00  0.00    +0.005 A 
ATOM     14  C   UNL     1      -2.020 -11.479  -2.685  0.00  0.00    +0.000 A 
ATOM     15  C   UNL     1       0.019 -10.277  -2.239  0.00  0.00    +0.000 A 
ATOM     16  C   UNL     1      -1.064 -11.024  -1.783  0.00  0.00    +0.000 A 
ENDBRANCH  10  11
ENDBRANCH   1  10
TORSDOF 2
ENDMDL
MODEL 7
REMARK VINA RESULT:    -4.802      4.204      5.411
REMARK INTER + INTRA:          -5.528
REMARK INTER:                  -5.387
REMARK INTRA:                  -0.142
REMARK UNBOUND:                -0.165
REMARK  Name = 1550473
REMARK  2 active torsions:
REMARK  status: ('A' for Active; 'I' for Inactive)
REMARK    1  A    between atoms: N_1  and  C_4
REMARK    2  A    between atoms: C_4  and  C_5
REMARK                            x       y       z     vdW  Elec       q    Type
REMARK                         _______ _______ _______ _____ _____    ______ ____
ROOT
ATOM      1  N   UNL     1      -0.841 -10.089  -4.142  0.00  0.00    -0.354 N 
ATOM      2  N   UNL     1       0.276  -9.532  -6.093  0.00  0.00    -0.372 N 
ATOM      3  N   UNL     1      -0.778 -11.566  -5.960  0.00  0.00    -0.372 N 
ATOM      4  C   UNL     1      -0.456 -10.402  -5.386  0.00  0.00    +0.166 C 
ATOM      5  H   UNL     1      -0.538  -9.203  -3.753  0.00  0.00    +0.163 HD
ATOM      6  H   UNL     1       0.578  -9.739  -7.036  0.00  0.00    +0.159 HD
ATOM      7  H   UNL     1       0.538  -8.628  -5.719  0.00  0.00    +0.159 HD
ATOM      8  H   UNL     1      -1.323 -12.268  -5.478  0.00  0.00    +0.159 HD
ATOM      9  H   UNL     1      -0.475 -11.796  -6.898  0.00  0.00    +0.159 HD
ENDROOT
BRANCH   1  10
ATOM     10  C   UNL     1      -1.684 -10.943  -3.308  0.00  0.00    +0.151 C 
BRANCH  10  11
ATOM     11  C   UNL     1      -1.065 -11.061  -1.942  0.00  0.00    -0.028 A 
ATOM     12  C   UNL     1      -1.790 -11.616  -0.878  0.00  0.00    +0.005 A 
ATOM     13  C   UNL     1       0.248 -10.625  -1.708  0.00  0.00    +0.005 A 
ATOM     14  C   UNL     1      -1.205 -11.754   0.384  0.00  0.00    +0.000 A 
ATOM     15  C   UNL     1       0.828 -10.763  -0.447  0.00  0.00    +0.000 A 
ATOM     16  C   UNL     1       0.102 -11.330   0.598  0.00  0.00    +0.000 A 
ENDBRANCH  10  11
ENDBRANCH   1  10
TORSDOF 2
ENDMDL
MODEL 8
REMARK VINA RESULT:    -4.333      4.914      6.067
REMARK INTER + INTRA:          -5.005
REMARK INTER:                  -4.862
REMARK INTRA:                  -0.143
REMARK UNBOUND:                -0.165
REMARK  Name = 1550473
REMARK  2 active torsions:
REMARK  status: ('A' for Active; 'I' for Inactive)
REMARK    1  A    between atoms: N_1  and  C_4
REMARK    2  A    between atoms: C_4  and  C_5
REMARK                            x       y       z     vdW  Elec       q    Type
REMARK                         _______ _______ _______ _____ _____    ______ ____
ROOT
ATOM      1  N   UNL     1      -0.407 -12.141  -6.097  0.00  0.00    -0.354 N 
ATOM      2  N   UNL     1       0.741 -13.837  -7.177  0.00  0.00    -0.372 N 
ATOM      3  N   UNL     1       1.804 -11.837  -6.811  0.00  0.00    -0.372 N 
ATOM      4  C   UNL     1       0.707 -12.591  -6.688  0.00  0.00    +0.166 C 
ATOM      5  H   UNL     1      -1.215 -12.752  -6.063  0.00  0.00    +0.163 HD
ATOM      6  H   UNL     1       1.569 -14.206  -7.626  0.00  0.00    +0.159 HD
ATOM      7  H   UNL     1      -0.052 -14.461  -7.101  0.00  0.00    +0.159 HD
ATOM      8  H   UNL     1       1.841 -10.886  -6.468  0.00  0.00    +0.159 HD
ATOM      9  H   UNL     1       2.639 -12.184  -7.266  0.00  0.00    +0.159 HD
ENDROOT
BRANCH   1  10
ATOM     10  C   UNL     1      -0.530 -10.819  -5.484  0.00  0.00    +0.151 C 
BRANCH  10  11
ATOM     11  C   UNL     1      -0.837 -10.983  -4.021  0.00  0.00    -0.028 A 
ATOM     12  C   UNL     1       0.166 -10.799  -3.058  0.00  0.00    +0.005 A 
ATOM     13  C   UNL     1      -2.131 -11.317  -3.590  0.00  0.00    +0.005 A 
ATOM     14  C   UNL     1      -0.126 -10.922  -1.697  0.00  0.00    +0.000 A 
ATOM     15  C   UNL     1      -2.417 -11.439  -2.231  0.00  0.00    +0.000 A 
ATOM     16  C   UNL     1      -1.415 -11.239  -1.285  0.00  0.00    +0.000 A 
ENDBRANCH  10  11
ENDBRANCH   1  10
TORSDOF 2
ENDMDL
MODEL 9
REMARK VINA RESULT:    -4.211      4.831      5.871
REMARK INTER + INTRA:          -4.869
REMARK INTER:                  -4.755
REMARK INTRA:                  -0.114
REMARK UNBOUND:                -0.165
REMARK  Name = 1550473
REMARK  2 active torsions:
REMARK  status: ('A' for Active; 'I' for Inactive)
REMARK    1  A    between atoms: N_1  and  C_4
REMARK    2  A    between atoms: C_4  and  C_5
REMARK                            x       y       z     vdW  Elec       q    Type
REMARK                         _______ _______ _______ _____ _____    ______ ____
ROOT
ATOM      1  N   UNL     1      -0.085 -10.333  -4.511  0.00  0.00    -0.354 N 
ATOM      2  N   UNL     1       0.446  -9.345  -6.537  0.00  0.00    -0.372 N 
ATOM      3  N   UNL     1       0.292 -11.631  -6.425  0.00  0.00    -0.372 N 
ATOM      4  C   UNL     1       0.215 -10.446  -5.812  0.00  0.00    +0.166 C 
ATOM      5  H   UNL     1      -0.098  -9.407  -4.098  0.00  0.00    +0.163 HD
ATOM      6  H   UNL     1       0.670  -9.398  -7.522  0.00  0.00    +0.159 HD
ATOM      7  H   UNL     1       0.387  -8.418  -6.133  0.00  0.00    +0.159 HD
ATOM      8  H   UNL     1       0.134 -12.500  -5.932  0.00  0.00    +0.159 HD
ATOM      9  H   UNL     1       0.527 -11.706  -7.407  0.00  0.00    +0.159 HD
ENDROOT
BRANCH   1  10
ATOM     10  C   UNL     1      -0.406 -11.466  -3.645  0.00  0.00    +0.151 C 
BRANCH  10  11
ATOM     11  C   UNL     1      -1.811 -11.308  -3.132  0.00  0.00    -0.028 A 
ATOM     12  C   UNL     1      -2.217 -11.957  -1.956  0.00  0.00    +0.005 A 
ATOM     13  C   UNL     1      -2.740 -10.507  -3.814  0.00  0.00    +0.005 A 
ATOM     14  C   UNL     1      -3.513 -11.787  -1.463  0.00  0.00    +0.000 A 
ATOM     15  C   UNL     1      -4.033 -10.341  -3.318  0.00  0.00    +0.000 A 
ATOM     16  C   UNL     1      -4.419 -10.979  -2.142  0.00  0.00    +0.000 A 
ENDBRANCH  10  11
ENDBRANCH   1  10
TORSDOF 2
ENDMDL
