MODEL 1
REMARK VINA RESULT:    -5.829      0.000      0.000
REMARK INTER + INTRA:          -6.602
REMARK INTER:                  -6.511
REMARK INTRA:                  -0.091
REMARK UNBOUND:                -0.091
REMARK  Name = 1550473
REMARK  2 active torsions:
REMARK  status: ('A' for Active; 'I' for Inactive)
REMARK    1  A    between atoms: N_1  and  C_4
REMARK    2  A    between atoms: C_4  and  C_5
REMARK                            x       y       z     vdW  Elec       q    Type
REMARK                         _______ _______ _______ _____ _____    ______ ____
ROOT
ATOM      1  N   UNL     1       2.280  -4.524  19.752  0.00  0.00    -0.354 N 
ATOM      2  N   UNL     1       2.104  -6.800  19.361  0.00  0.00    -0.372 N 
ATOM      3  N   UNL     1       2.956  -6.082  21.367  0.00  0.00    -0.372 N 
ATOM      4  C   UNL     1       2.449  -5.787  20.165  0.00  0.00    +0.166 C 
ATOM      5  H   UNL     1       1.919  -4.367  18.818  0.00  0.00    +0.163 HD
ATOM      6  H   UNL     1       2.216  -7.763  19.646  0.00  0.00    +0.159 HD
ATOM      7  H   UNL     1       1.700  -6.640  18.446  0.00  0.00    +0.159 HD
ATOM      8  H   UNL     1       3.242  -5.364  22.018  0.00  0.00    +0.159 HD
ATOM      9  H   UNL     1       3.088  -7.041  21.666  0.00  0.00    +0.159 HD
ENDROOT
BRANCH   1  10
ATOM     10  C   UNL     1       2.574  -3.350  20.572  0.00  0.00    +0.151 C 
BRANCH  10  11
ATOM     11  C   UNL     1       2.034  -2.125  19.887  0.00  0.00    -0.028 A 
ATOM     12  C   UNL     1       0.754  -1.642  20.197  0.00  0.00    +0.005 A 
ATOM     13  C   UNL     1       2.799  -1.440  18.930  0.00  0.00    +0.005 A 
ATOM     14  C   UNL     1       0.264  -0.487  19.582  0.00  0.00    +0.000 A 
ATOM     15  C   UNL     1       2.306  -0.287  18.319  0.00  0.00    +0.000 A 
ATOM     16  C   UNL     1       1.039   0.190  18.647  0.00  0.00    +0.000 A 
ENDBRANCH  10  11
ENDBRANCH   1  10
TORSDOF 2
ENDMDL
MODEL 2
REMARK VINA RESULT:    -5.455      5.552      6.595
REMARK INTER + INTRA:          -6.184
REMARK INTER:                  -6.069
REMARK INTRA:                  -0.115
REMARK UNBOUND:                -0.091
REMARK  Name = 1550473
REMARK  2 active torsions:
REMARK  status: ('A' for Active; 'I' for Inactive)
REMARK    1  A    between atoms: N_1  and  C_4
REMARK    2  A    between atoms: C_4  and  C_5
REMARK                            x       y       z     vdW  Elec       q    Type
REMARK                         _______ _______ _______ _____ _____    ______ ____
ROOT
ATOM      1  N   UNL     1       8.733  -7.010  19.881  0.00  0.00    -0.354 N 
ATOM      2  N   UNL     1      10.328  -8.539  20.579  0.00  0.00    -0.372 N 
ATOM      3  N   UNL     1       8.150  -9.229  20.361  0.00  0.00    -0.372 N 
ATOM      4  C   UNL     1       9.058  -8.251  20.269  0.00  0.00    +0.166 C 
ATOM      5  H   UNL     1       9.462  -6.306  19.862  0.00  0.00    +0.163 HD
ATOM      6  H   UNL     1      10.603  -9.466  20.872  0.00  0.00    +0.159 HD
ATOM      7  H   UNL     1      11.062  -7.844  20.514  0.00  0.00    +0.159 HD
ATOM      8  H   UNL     1       7.174  -9.075  20.147  0.00  0.00    +0.159 HD
ATOM      9  H   UNL     1       8.404 -10.161  20.663  0.00  0.00    +0.159 HD
ENDROOT
BRANCH   1  10
ATOM     10  C   UNL     1       7.390  -6.607  19.471  0.00  0.00    +0.151 C 
BRANCH  10  11
ATOM     11  C   UNL     1       7.179  -5.162  19.831  0.00  0.00    -0.028 A 
ATOM     12  C   UNL     1       5.952  -4.732  20.356  0.00  0.00    +0.005 A 
ATOM     13  C   UNL     1       8.204  -4.220  19.655  0.00  0.00    +0.005 A 
ATOM     14  C   UNL     1       5.765  -3.395  20.719  0.00  0.00    +0.000 A 
ATOM     15  C   UNL     1       8.013  -2.887  20.017  0.00  0.00    +0.000 A 
ATOM     16  C   UNL     1       6.795  -2.476  20.552  0.00  0.00    +0.000 A 
ENDBRANCH  10  11
ENDBRANCH   1  10
TORSDOF 2
ENDMDL
MODEL 3
REMARK VINA RESULT:    -5.095      2.860      4.887
REMARK INTER + INTRA:          -5.781
REMARK INTER:                  -5.648
REMARK INTRA:                  -0.133
REMARK UNBOUND:                -0.091
REMARK  Name = 1550473
REMARK  2 active torsions:
REMARK  status: ('A' for Active; 'I' for Inactive)
REMARK    1  A    between atoms: N_1  and  C_4
REMARK    2  A    between atoms: C_4  and  C_5
REMARK                            x       y       z     vdW  Elec       q    Type
REMARK                         _______ _______ _______ _____ _____    ______ ____
ROOT
ATOM      1  N   UNL     1       0.402  -2.056  20.338  0.00  0.00    -0.354 N 
ATOM      2  N   UNL     1      -1.750  -1.622  21.077  0.00  0.00    -0.372 N 
ATOM      3  N   UNL     1      -0.581   0.048  20.023  0.00  0.00    -0.372 N 
ATOM      4  C   UNL     1      -0.628  -1.210  20.474  0.00  0.00    +0.166 C 
ATOM      5  H   UNL     1       0.314  -2.988  20.728  0.00  0.00    +0.163 HD
ATOM      6  H   UNL     1      -2.545  -1.007  21.191  0.00  0.00    +0.159 HD
ATOM      7  H   UNL     1      -1.852  -2.567  21.425  0.00  0.00    +0.159 HD
ATOM      8  H   UNL     1       0.239   0.421  19.563  0.00  0.00    +0.159 HD
ATOM      9  H   UNL     1      -1.362   0.682  20.137  0.00  0.00    +0.159 HD
ENDROOT
BRANCH   1  10
ATOM     10  C   UNL     1       1.647  -1.724  19.649  0.00  0.00    +0.151 C 
BRANCH  10  11
ATOM     11  C   UNL     1       2.784  -2.456  20.308  0.00  0.00    -0.028 A 
ATOM     12  C   UNL     1       4.088  -2.348  19.805  0.00  0.00    +0.005 A 
ATOM     13  C   UNL     1       2.563  -3.256  21.441  0.00  0.00    +0.005 A 
ATOM     14  C   UNL     1       5.149  -3.004  20.435  0.00  0.00    +0.000 A 
ATOM     15  C   UNL     1       3.625  -3.910  22.066  0.00  0.00    +0.000 A 
ATOM     16  C   UNL     1       4.917  -3.781  21.564  0.00  0.00    +0.000 A 
ENDBRANCH  10  11
ENDBRANCH   1  10
TORSDOF 2
ENDMDL
MODEL 4
REMARK VINA RESULT:    -5.054      3.467      5.136
REMARK INTER + INTRA:          -5.736
REMARK INTER:                  -5.613
REMARK INTRA:                  -0.123
REMARK UNBOUND:                -0.091
REMARK  Name = 1550473
REMARK  2 active torsions:
REMARK  status: ('A' for Active; 'I' for Inactive)
REMARK    1  A    between atoms: N_1  and  C_4
REMARK    2  A    between atoms: C_4  and  C_5
REMARK                            x       y       z     vdW  Elec       q    Type
REMARK                         _______ _______ _______ _____ _____    ______ ____
ROOT
ATOM      1  N   UNL     1       0.716  -0.357  18.050  0.00  0.00    -0.354 N 
ATOM      2  N   UNL     1       0.274   1.221  16.413  0.00  0.00    -0.372 N 
ATOM      3  N   UNL     1      -1.451   0.477  17.731  0.00  0.00    -0.372 N 
ATOM      4  C   UNL     1      -0.153   0.436  17.410  0.00  0.00    +0.166 C 
ATOM      5  H   UNL     1       1.680  -0.365  17.739  0.00  0.00    +0.163 HD
ATOM      6  H   UNL     1      -0.358   1.832  15.914  0.00  0.00    +0.159 HD
ATOM      7  H   UNL     1       1.248   1.245  16.134  0.00  0.00    +0.159 HD
ATOM      8  H   UNL     1      -1.838  -0.094  18.470  0.00  0.00    +0.159 HD
ATOM      9  H   UNL     1      -2.101   1.074  17.235  0.00  0.00    +0.159 HD
ENDROOT
BRANCH   1  10
ATOM     10  C   UNL     1       0.363  -1.209  19.184  0.00  0.00    +0.151 C 
BRANCH  10  11
ATOM     11  C   UNL     1       1.615  -1.827  19.743  0.00  0.00    -0.028 A 
ATOM     12  C   UNL     1       1.549  -2.709  20.831  0.00  0.00    +0.005 A 
ATOM     13  C   UNL     1       2.870  -1.537  19.186  0.00  0.00    +0.005 A 
ATOM     14  C   UNL     1       2.709  -3.306  21.332  0.00  0.00    +0.000 A 
ATOM     15  C   UNL     1       4.026  -2.135  19.689  0.00  0.00    +0.000 A 
ATOM     16  C   UNL     1       3.944  -3.021  20.760  0.00  0.00    +0.000 A 
ENDBRANCH  10  11
ENDBRANCH   1  10
TORSDOF 2
ENDMDL
MODEL 5
REMARK VINA RESULT:    -5.024     18.064     19.722
REMARK INTER + INTRA:          -5.703
REMARK INTER:                  -5.585
REMARK INTRA:                  -0.118
REMARK UNBOUND:                -0.091
REMARK  Name = 1550473
REMARK  2 active torsions:
REMARK  status: ('A' for Active; 'I' for Inactive)
REMARK    1  A    between atoms: N_1  and  C_4
REMARK    2  A    between atoms: C_4  and  C_5
REMARK                            x       y       z     vdW  Elec       q    Type
REMARK                         _______ _______ _______ _____ _____    ______ ____
ROOT
ATOM      1  N   UNL     1      11.619   7.448   8.157  0.00  0.00    -0.354 N 
ATOM      2  N   UNL     1      11.600   8.060  10.391  0.00  0.00    -0.372 N 
ATOM      3  N   UNL     1      11.150   5.880   9.835  0.00  0.00    -0.372 N 
ATOM      4  C   UNL     1      11.455   7.122   9.447  0.00  0.00    +0.166 C 
ATOM      5  H   UNL     1      11.819   8.414   7.926  0.00  0.00    +0.163 HD
ATOM      6  H   UNL     1      11.486   7.844  11.372  0.00  0.00    +0.159 HD
ATOM      7  H   UNL     1      11.846   9.015  10.160  0.00  0.00    +0.159 HD
ATOM      8  H   UNL     1      11.022   5.128   9.171  0.00  0.00    +0.159 HD
ATOM      9  H   UNL     1      11.021   5.646  10.812  0.00  0.00    +0.159 HD
ENDROOT
BRANCH   1  10
ATOM     10  C   UNL     1      11.536   6.490   7.056  0.00  0.00    +0.151 C 
BRANCH  10  11
ATOM     11  C   UNL     1      11.886   7.188   5.771  0.00  0.00    -0.028 A 
ATOM     12  C   UNL     1      11.346   6.751   4.553  0.00  0.00    +0.005 A 
ATOM     13  C   UNL     1      12.753   8.292   5.765  0.00  0.00    +0.005 A 
ATOM     14  C   UNL     1      11.647   7.418   3.363  0.00  0.00    +0.000 A 
ATOM     15  C   UNL     1      13.052   8.955   4.575  0.00  0.00    +0.000 A 
ATOM     16  C   UNL     1      12.496   8.519   3.374  0.00  0.00    +0.000 A 
ENDBRANCH  10  11
ENDBRANCH   1  10
TORSDOF 2
ENDMDL
MODEL 6
REMARK VINA RESULT:    -4.874     32.531     33.487
REMARK INTER + INTRA:          -5.535
REMARK INTER:                  -5.370
REMARK INTRA:                  -0.165
REMARK UNBOUND:                -0.091
REMARK  Name = 1550473
REMARK  2 active torsions:
REMARK  status: ('A' for Active; 'I' for Inactive)
REMARK    1  A    between atoms: N_1  and  C_4
REMARK    2  A    between atoms: C_4  and  C_5
REMARK                            x       y       z     vdW  Elec       q    Type
REMARK                         _______ _______ _______ _____ _____    ______ ____
ROOT
ATOM      1  N   UNL     1       7.784 -14.064  -9.119  0.00  0.00    -0.354 N 
ATOM      2  N   UNL     1       5.923 -12.876  -8.421  0.00  0.00    -0.372 N 
ATOM      3  N   UNL     1       5.812 -15.167  -8.497  0.00  0.00    -0.372 N 
ATOM      4  C   UNL     1       6.517 -14.046  -8.684  0.00  0.00    +0.166 C 
ATOM      5  H   UNL     1       8.255 -13.179  -9.269  0.00  0.00    +0.163 HD
ATOM      6  H   UNL     1       4.969 -12.831  -8.088  0.00  0.00    +0.159 HD
ATOM      7  H   UNL     1       6.410 -11.995  -8.528  0.00  0.00    +0.159 HD
ATOM      8  H   UNL     1       6.201 -16.082  -8.683  0.00  0.00    +0.159 HD
ATOM      9  H   UNL     1       4.852 -15.142  -8.176  0.00  0.00    +0.159 HD
ENDROOT
BRANCH   1  10
ATOM     10  C   UNL     1       8.541 -15.287  -9.383  0.00  0.00    +0.151 C 
BRANCH  10  11
ATOM     11  C   UNL     1       8.713 -15.448 -10.868  0.00  0.00    -0.028 A 
ATOM     12  C   UNL     1       8.230 -16.591 -11.521  0.00  0.00    +0.005 A 
ATOM     13  C   UNL     1       9.353 -14.457 -11.629  0.00  0.00    +0.005 A 
ATOM     14  C   UNL     1       8.363 -16.727 -12.905  0.00  0.00    +0.000 A 
ATOM     15  C   UNL     1       9.484 -14.597 -13.010  0.00  0.00    +0.000 A 
ATOM     16  C   UNL     1       8.987 -15.731 -13.648  0.00  0.00    +0.000 A 
ENDBRANCH  10  11
ENDBRANCH   1  10
TORSDOF 2
ENDMDL
MODEL 7
REMARK VINA RESULT:    -4.804     13.187     14.117
REMARK INTER + INTRA:          -5.456
REMARK INTER:                  -5.346
REMARK INTRA:                  -0.110
REMARK UNBOUND:                -0.091
REMARK  Name = 1550473
REMARK  2 active torsions:
REMARK  status: ('A' for Active; 'I' for Inactive)
REMARK    1  A    between atoms: N_1  and  C_4
REMARK    2  A    between atoms: C_4  and  C_5
REMARK                            x       y       z     vdW  Elec       q    Type
REMARK                         _______ _______ _______ _____ _____    ______ ____
ROOT
ATOM      1  N   UNL     1      14.928  -3.331  21.749  0.00  0.00    -0.354 N 
ATOM      2  N   UNL     1      13.068  -4.008  22.951  0.00  0.00    -0.372 N 
ATOM      3  N   UNL     1      14.994  -3.490  24.086  0.00  0.00    -0.372 N 
ATOM      4  C   UNL     1      14.344  -3.605  22.923  0.00  0.00    +0.166 C 
ATOM      5  H   UNL     1      14.391  -3.467  20.900  0.00  0.00    +0.163 HD
ATOM      6  H   UNL     1      12.599  -4.218  23.822  0.00  0.00    +0.159 HD
ATOM      7  H   UNL     1      12.519  -4.098  22.105  0.00  0.00    +0.159 HD
ATOM      8  H   UNL     1      15.960  -3.196  24.133  0.00  0.00    +0.159 HD
ATOM      9  H   UNL     1      14.545  -3.707  24.967  0.00  0.00    +0.159 HD
ENDROOT
BRANCH   1  10
ATOM     10  C   UNL     1      16.296  -2.834  21.612  0.00  0.00    +0.151 C 
BRANCH  10  11
ATOM     11  C   UNL     1      16.478  -2.269  20.231  0.00  0.00    -0.028 A 
ATOM     12  C   UNL     1      15.924  -2.917  19.118  0.00  0.00    +0.005 A 
ATOM     13  C   UNL     1      17.199  -1.082  20.029  0.00  0.00    +0.005 A 
ATOM     14  C   UNL     1      16.067  -2.376  17.837  0.00  0.00    +0.000 A 
ATOM     15  C   UNL     1      17.340  -0.546  18.749  0.00  0.00    +0.000 A 
ATOM     16  C   UNL     1      16.772  -1.192  17.654  0.00  0.00    +0.000 A 
ENDBRANCH  10  11
ENDBRANCH   1  10
TORSDOF 2
ENDMDL
MODEL 8
REMARK VINA RESULT:    -4.798     14.330     15.895
REMARK INTER + INTRA:          -5.449
REMARK INTER:                  -5.340
REMARK INTRA:                  -0.109
REMARK UNBOUND:                -0.091
REMARK  Name = 1550473
REMARK  2 active torsions:
REMARK  status: ('A' for Active; 'I' for Inactive)
REMARK    1  A    between atoms: N_1  and  C_4
REMARK    2  A    between atoms: C_4  and  C_5
REMARK                            x       y       z     vdW  Elec       q    Type
REMARK                         _______ _______ _______ _____ _____    ______ ____
ROOT
ATOM      1  N   UNL     1      11.009   3.819  11.117  0.00  0.00    -0.354 N 
ATOM      2  N   UNL     1      10.292   3.129  13.209  0.00  0.00    -0.372 N 
ATOM      3  N   UNL     1       9.980   1.734  11.414  0.00  0.00    -0.372 N 
ATOM      4  C   UNL     1      10.431   2.896  11.898  0.00  0.00    +0.166 C 
ATOM      5  H   UNL     1      11.302   4.692  11.540  0.00  0.00    +0.163 HD
ATOM      6  H   UNL     1       9.863   2.450  13.824  0.00  0.00    +0.159 HD
ATOM      7  H   UNL     1      10.628   3.983  13.637  0.00  0.00    +0.159 HD
ATOM      8  H   UNL     1      10.049   1.500  10.433  0.00  0.00    +0.159 HD
ATOM      9  H   UNL     1       9.537   1.047  12.012  0.00  0.00    +0.159 HD
ENDROOT
BRANCH   1  10
ATOM     10  C   UNL     1      11.256   3.641   9.688  0.00  0.00    +0.151 C 
BRANCH  10  11
ATOM     11  C   UNL     1      11.726   4.945   9.105  0.00  0.00    -0.028 A 
ATOM     12  C   UNL     1      12.845   4.984   8.260  0.00  0.00    +0.005 A 
ATOM     13  C   UNL     1      11.054   6.143   9.388  0.00  0.00    +0.005 A 
ATOM     14  C   UNL     1      13.265   6.191   7.694  0.00  0.00    +0.000 A 
ATOM     15  C   UNL     1      11.476   7.346   8.822  0.00  0.00    +0.000 A 
ATOM     16  C   UNL     1      12.580   7.369   7.973  0.00  0.00    +0.000 A 
ENDBRANCH  10  11
ENDBRANCH   1  10
TORSDOF 2
ENDMDL
MODEL 9
REMARK VINA RESULT:    -4.708     27.546     28.422
REMARK INTER + INTRA:          -5.349
REMARK INTER:                  -5.187
REMARK INTRA:                  -0.163
REMARK UNBOUND:                -0.091
REMARK  Name = 1550473
REMARK  2 active torsions:
REMARK  status: ('A' for Active; 'I' for Inactive)
REMARK    1  A    between atoms: N_1  and  C_4
REMARK    2  A    between atoms: C_4  and  C_5
REMARK                            x       y       z     vdW  Elec       q    Type
REMARK                         _______ _______ _______ _____ _____    ______ ____
ROOT
ATOM      1  N   UNL     1       7.965 -14.432  -7.252  0.00  0.00    -0.354 N 
ATOM      2  N   UNL     1       8.491 -13.925  -9.449  0.00  0.00    -0.372 N 
ATOM      3  N   UNL     1       6.306 -13.766  -8.766  0.00  0.00    -0.372 N 
ATOM      4  C   UNL     1       7.581 -14.044  -8.475  0.00  0.00    +0.166 C 
ATOM      5  H   UNL     1       8.942 -14.658  -7.103  0.00  0.00    +0.163 HD
ATOM      6  H   UNL     1       8.231 -13.631 -10.381  0.00  0.00    +0.159 HD
ATOM      7  H   UNL     1       9.474 -14.106  -9.286  0.00  0.00    +0.159 HD
ATOM      8  H   UNL     1       5.570 -13.842  -8.077  0.00  0.00    +0.159 HD
ATOM      9  H   UNL     1       6.025 -13.481  -9.696  0.00  0.00    +0.159 HD
ENDROOT
BRANCH   1  10
ATOM     10  C   UNL     1       7.062 -14.542  -6.107  0.00  0.00    +0.151 C 
BRANCH  10  11
ATOM     11  C   UNL     1       7.059 -13.238  -5.358  0.00  0.00    -0.028 A 
ATOM     12  C   UNL     1       5.940 -12.393  -5.405  0.00  0.00    +0.005 A 
ATOM     13  C   UNL     1       8.169 -12.843  -4.596  0.00  0.00    +0.005 A 
ATOM     14  C   UNL     1       5.924 -11.196  -4.685  0.00  0.00    +0.000 A 
ATOM     15  C   UNL     1       8.149 -11.647  -3.879  0.00  0.00    +0.000 A 
ATOM     16  C   UNL     1       7.026 -10.825  -3.922  0.00  0.00    +0.000 A 
ENDBRANCH  10  11
ENDBRANCH   1  10
TORSDOF 2
ENDMDL
