MODEL 1
REMARK VINA RESULT:    -5.233      0.000      0.000
REMARK INTER + INTRA:          -5.985
REMARK INTER:                  -5.845
REMARK INTRA:                  -0.140
REMARK UNBOUND:                -0.140
REMARK  Name = 1550473
REMARK  2 active torsions:
REMARK  status: ('A' for Active; 'I' for Inactive)
REMARK    1  A    between atoms: N_1  and  C_4
REMARK    2  A    between atoms: C_4  and  C_5
REMARK                            x       y       z     vdW  Elec       q    Type
REMARK                         _______ _______ _______ _____ _____    ______ ____
ROOT
ATOM      1  N   UNL     1      -0.156 -18.678 -13.531  0.00  0.00    -0.354 N 
ATOM      2  N   UNL     1       0.913 -20.732 -13.524  0.00  0.00    -0.372 N 
ATOM      3  N   UNL     1      -1.201 -20.585 -14.403  0.00  0.00    -0.372 N 
ATOM      4  C   UNL     1      -0.158 -19.986 -13.820  0.00  0.00    +0.166 C 
ATOM      5  H   UNL     1       0.654 -18.290 -13.061  0.00  0.00    +0.163 HD
ATOM      6  H   UNL     1       0.943 -21.721 -13.734  0.00  0.00    +0.159 HD
ATOM      7  H   UNL     1       1.740 -20.332 -13.097  0.00  0.00    +0.159 HD
ATOM      8  H   UNL     1      -2.042 -20.079 -14.647  0.00  0.00    +0.159 HD
ATOM      9  H   UNL     1      -1.195 -21.576 -14.611  0.00  0.00    +0.159 HD
ENDROOT
BRANCH   1  10
ATOM     10  C   UNL     1      -1.250 -17.766 -13.860  0.00  0.00    +0.151 C 
BRANCH  10  11
ATOM     11  C   UNL     1      -1.540 -16.895 -12.669  0.00  0.00    -0.028 A 
ATOM     12  C   UNL     1      -1.162 -17.302 -11.381  0.00  0.00    +0.005 A 
ATOM     13  C   UNL     1      -2.186 -15.659 -12.822  0.00  0.00    +0.005 A 
ATOM     14  C   UNL     1      -1.404 -16.480 -10.278  0.00  0.00    +0.000 A 
ATOM     15  C   UNL     1      -2.427 -14.841 -11.718  0.00  0.00    +0.000 A 
ATOM     16  C   UNL     1      -2.033 -15.251 -10.447  0.00  0.00    +0.000 A 
ENDBRANCH  10  11
ENDBRANCH   1  10
TORSDOF 2
ENDMDL
MODEL 2
REMARK VINA RESULT:    -5.213      1.457      2.152
REMARK INTER + INTRA:          -5.963
REMARK INTER:                  -5.822
REMARK INTRA:                  -0.141
REMARK UNBOUND:                -0.140
REMARK  Name = 1550473
REMARK  2 active torsions:
REMARK  status: ('A' for Active; 'I' for Inactive)
REMARK    1  A    between atoms: N_1  and  C_4
REMARK    2  A    between atoms: C_4  and  C_5
REMARK                            x       y       z     vdW  Elec       q    Type
REMARK                         _______ _______ _______ _____ _____    ______ ____
ROOT
ATOM      1  N   UNL     1      -1.267 -18.876 -14.887  0.00  0.00    -0.354 N 
ATOM      2  N   UNL     1      -0.119 -20.746 -15.629  0.00  0.00    -0.372 N 
ATOM      3  N   UNL     1       0.289 -18.723 -16.633  0.00  0.00    -0.372 N 
ATOM      4  C   UNL     1      -0.372 -19.434 -15.713  0.00  0.00    +0.166 C 
ATOM      5  H   UNL     1      -1.756 -19.475 -14.232  0.00  0.00    +0.163 HD
ATOM      6  H   UNL     1       0.553 -21.194 -16.237  0.00  0.00    +0.159 HD
ATOM      7  H   UNL     1      -0.577 -21.333 -14.942  0.00  0.00    +0.159 HD
ATOM      8  H   UNL     1       0.139 -17.730 -16.751  0.00  0.00    +0.159 HD
ATOM      9  H   UNL     1       0.957 -19.156 -17.258  0.00  0.00    +0.159 HD
ENDROOT
BRANCH   1  10
ATOM     10  C   UNL     1      -1.576 -17.447 -14.860  0.00  0.00    +0.151 C 
BRANCH  10  11
ATOM     11  C   UNL     1      -1.566 -16.969 -13.435  0.00  0.00    -0.028 A 
ATOM     12  C   UNL     1      -2.074 -15.703 -13.105  0.00  0.00    +0.005 A 
ATOM     13  C   UNL     1      -1.056 -17.778 -12.408  0.00  0.00    +0.005 A 
ATOM     14  C   UNL     1      -2.093 -15.271 -11.777  0.00  0.00    +0.000 A 
ATOM     15  C   UNL     1      -1.076 -17.342 -11.083  0.00  0.00    +0.000 A 
ATOM     16  C   UNL     1      -1.597 -16.089 -10.768  0.00  0.00    +0.000 A 
ENDBRANCH  10  11
ENDBRANCH   1  10
TORSDOF 2
ENDMDL
MODEL 3
REMARK VINA RESULT:    -4.717     12.237     13.555
REMARK INTER + INTRA:          -5.409
REMARK INTER:                  -5.279
REMARK INTRA:                  -0.130
REMARK UNBOUND:                -0.140
REMARK  Name = 1550473
REMARK  2 active torsions:
REMARK  status: ('A' for Active; 'I' for Inactive)
REMARK    1  A    between atoms: N_1  and  C_4
REMARK    2  A    between atoms: C_4  and  C_5
REMARK                            x       y       z     vdW  Elec       q    Type
REMARK                         _______ _______ _______ _____ _____    ______ ____
ROOT
ATOM      1  N   UNL     1     -11.854 -10.760  -8.277  0.00  0.00    -0.354 N 
ATOM      2  N   UNL     1     -11.849  -8.472  -7.918  0.00  0.00    -0.372 N 
ATOM      3  N   UNL     1     -13.830  -9.509  -8.434  0.00  0.00    -0.372 N 
ATOM      4  C   UNL     1     -12.514  -9.596  -8.213  0.00  0.00    +0.166 C 
ATOM      5  H   UNL     1     -10.852 -10.754  -8.128  0.00  0.00    +0.163 HD
ATOM      6  H   UNL     1     -12.320  -7.579  -7.859  0.00  0.00    +0.159 HD
ATOM      7  H   UNL     1     -10.855  -8.476  -7.725  0.00  0.00    +0.159 HD
ATOM      8  H   UNL     1     -14.388 -10.320  -8.667  0.00  0.00    +0.159 HD
ATOM      9  H   UNL     1     -14.317  -8.623  -8.391  0.00  0.00    +0.159 HD
ENDROOT
BRANCH   1  10
ATOM     10  C   UNL     1     -12.494 -12.049  -8.537  0.00  0.00    +0.151 C 
BRANCH  10  11
ATOM     11  C   UNL     1     -11.665 -13.141  -7.919  0.00  0.00    -0.028 A 
ATOM     12  C   UNL     1     -10.582 -12.829  -7.085  0.00  0.00    +0.005 A 
ATOM     13  C   UNL     1     -11.962 -14.492  -8.160  0.00  0.00    +0.005 A 
ATOM     14  C   UNL     1      -9.831 -13.844  -6.487  0.00  0.00    +0.000 A 
ATOM     15  C   UNL     1     -11.209 -15.502  -7.562  0.00  0.00    +0.000 A 
ATOM     16  C   UNL     1     -10.146 -15.178  -6.723  0.00  0.00    +0.000 A 
ENDBRANCH  10  11
ENDBRANCH   1  10
TORSDOF 2
ENDMDL
MODEL 4
REMARK VINA RESULT:    -4.652     23.344     24.411
REMARK INTER + INTRA:          -5.336
REMARK INTER:                  -5.202
REMARK INTRA:                  -0.134
REMARK UNBOUND:                -0.140
REMARK  Name = 1550473
REMARK  2 active torsions:
REMARK  status: ('A' for Active; 'I' for Inactive)
REMARK    1  A    between atoms: N_1  and  C_4
REMARK    2  A    between atoms: C_4  and  C_5
REMARK                            x       y       z     vdW  Elec       q    Type
REMARK                         _______ _______ _______ _____ _____    ______ ____
ROOT
ATOM      1  N   UNL     1     -10.256   1.440  -3.184  0.00  0.00    -0.354 N 
ATOM      2  N   UNL     1     -11.113   1.764  -5.311  0.00  0.00    -0.372 N 
ATOM      3  N   UNL     1      -9.462   3.166  -4.555  0.00  0.00    -0.372 N 
ATOM      4  C   UNL     1     -10.270   2.123  -4.336  0.00  0.00    +0.166 C 
ATOM      5  H   UNL     1     -10.914   0.678  -3.068  0.00  0.00    +0.163 HD
ATOM      6  H   UNL     1     -11.144   2.259  -6.192  0.00  0.00    +0.159 HD
ATOM      7  H   UNL     1     -11.738   0.974  -5.210  0.00  0.00    +0.159 HD
ATOM      8  H   UNL     1      -8.806   3.492  -3.857  0.00  0.00    +0.159 HD
ATOM      9  H   UNL     1      -9.486   3.682  -5.426  0.00  0.00    +0.159 HD
ENDROOT
BRANCH   1  10
ATOM     10  C   UNL     1      -9.338   1.716  -2.080  0.00  0.00    +0.151 C 
BRANCH  10  11
ATOM     11  C   UNL     1     -10.097   1.653  -0.783  0.00  0.00    -0.028 A 
ATOM     12  C   UNL     1      -9.586   0.934   0.307  0.00  0.00    +0.005 A 
ATOM     13  C   UNL     1     -11.326   2.315  -0.636  0.00  0.00    +0.005 A 
ATOM     14  C   UNL     1     -10.276   0.900   1.521  0.00  0.00    +0.000 A 
ATOM     15  C   UNL     1     -12.012   2.278   0.578  0.00  0.00    +0.000 A 
ATOM     16  C   UNL     1     -11.486   1.572   1.657  0.00  0.00    +0.000 A 
ENDBRANCH  10  11
ENDBRANCH   1  10
TORSDOF 2
ENDMDL
MODEL 5
REMARK VINA RESULT:    -4.606     12.196     13.589
REMARK INTER + INTRA:          -5.285
REMARK INTER:                  -5.159
REMARK INTRA:                  -0.126
REMARK UNBOUND:                -0.140
REMARK  Name = 1550473
REMARK  2 active torsions:
REMARK  status: ('A' for Active; 'I' for Inactive)
REMARK    1  A    between atoms: N_1  and  C_4
REMARK    2  A    between atoms: C_4  and  C_5
REMARK                            x       y       z     vdW  Elec       q    Type
REMARK                         _______ _______ _______ _____ _____    ______ ____
ROOT
ATOM      1  N   UNL     1     -11.926 -10.779  -8.158  0.00  0.00    -0.354 N 
ATOM      2  N   UNL     1     -11.866  -8.470  -7.985  0.00  0.00    -0.372 N 
ATOM      3  N   UNL     1     -13.867  -9.497  -8.439  0.00  0.00    -0.372 N 
ATOM      4  C   UNL     1     -12.556  -9.598  -8.196  0.00  0.00    +0.166 C 
ATOM      5  H   UNL     1     -10.925 -10.786  -7.998  0.00  0.00    +0.163 HD
ATOM      6  H   UNL     1     -12.315  -7.564  -8.004  0.00  0.00    +0.159 HD
ATOM      7  H   UNL     1     -10.874  -8.483  -7.780  0.00  0.00    +0.159 HD
ATOM      8  H   UNL     1     -14.443 -10.309  -8.612  0.00  0.00    +0.159 HD
ATOM      9  H   UNL     1     -14.332  -8.598  -8.474  0.00  0.00    +0.159 HD
ENDROOT
BRANCH   1  10
ATOM     10  C   UNL     1     -12.595 -12.068  -8.321  0.00  0.00    +0.151 C 
BRANCH  10  11
ATOM     11  C   UNL     1     -11.712 -13.154  -7.770  0.00  0.00    -0.028 A 
ATOM     12  C   UNL     1     -12.002 -14.503  -8.020  0.00  0.00    +0.005 A 
ATOM     13  C   UNL     1     -10.580 -12.839  -7.003  0.00  0.00    +0.005 A 
ATOM     14  C   UNL     1     -11.164 -15.510  -7.534  0.00  0.00    +0.000 A 
ATOM     15  C   UNL     1      -9.747 -13.848  -6.519  0.00  0.00    +0.000 A 
ATOM     16  C   UNL     1     -10.038 -15.183  -6.787  0.00  0.00    +0.000 A 
ENDBRANCH  10  11
ENDBRANCH   1  10
TORSDOF 2
ENDMDL
MODEL 6
REMARK VINA RESULT:    -4.599     13.145     14.449
REMARK INTER + INTRA:          -5.277
REMARK INTER:                  -5.157
REMARK INTRA:                  -0.120
REMARK UNBOUND:                -0.140
REMARK  Name = 1550473
REMARK  2 active torsions:
REMARK  status: ('A' for Active; 'I' for Inactive)
REMARK    1  A    between atoms: N_1  and  C_4
REMARK    2  A    between atoms: C_4  and  C_5
REMARK                            x       y       z     vdW  Elec       q    Type
REMARK                         _______ _______ _______ _____ _____    ______ ____
ROOT
ATOM      1  N   UNL     1     -12.303  -9.823  -6.474  0.00  0.00    -0.354 N 
ATOM      2  N   UNL     1     -13.993  -9.510  -4.922  0.00  0.00    -0.372 N 
ATOM      3  N   UNL     1     -14.536 -10.287  -7.011  0.00  0.00    -0.372 N 
ATOM      4  C   UNL     1     -13.601  -9.876  -6.148  0.00  0.00    +0.166 C 
ATOM      5  H   UNL     1     -11.647  -9.474  -5.785  0.00  0.00    +0.163 HD
ATOM      6  H   UNL     1     -14.965  -9.542  -4.646  0.00  0.00    +0.159 HD
ATOM      7  H   UNL     1     -13.330  -9.205  -4.219  0.00  0.00    +0.159 HD
ATOM      8  H   UNL     1     -14.307 -10.571  -7.954  0.00  0.00    +0.159 HD
ATOM      9  H   UNL     1     -15.516 -10.315  -6.757  0.00  0.00    +0.159 HD
ENDROOT
BRANCH   1  10
ATOM     10  C   UNL     1     -11.766 -10.250  -7.765  0.00  0.00    +0.151 C 
BRANCH  10  11
ATOM     11  C   UNL     1     -11.557 -11.739  -7.741  0.00  0.00    -0.028 A 
ATOM     12  C   UNL     1     -10.744 -12.329  -6.762  0.00  0.00    +0.005 A 
ATOM     13  C   UNL     1     -12.174 -12.567  -8.692  0.00  0.00    +0.005 A 
ATOM     14  C   UNL     1     -10.574 -13.715  -6.722  0.00  0.00    +0.000 A 
ATOM     15  C   UNL     1     -12.001 -13.950  -8.649  0.00  0.00    +0.000 A 
ATOM     16  C   UNL     1     -11.203 -14.524  -7.662  0.00  0.00    +0.000 A 
ENDBRANCH  10  11
ENDBRANCH   1  10
TORSDOF 2
ENDMDL
MODEL 7
REMARK VINA RESULT:    -4.520      3.885      5.559
REMARK INTER + INTRA:          -5.189
REMARK INTER:                  -5.064
REMARK INTRA:                  -0.125
REMARK UNBOUND:                -0.140
REMARK  Name = 1550473
REMARK  2 active torsions:
REMARK  status: ('A' for Active; 'I' for Inactive)
REMARK    1  A    between atoms: N_1  and  C_4
REMARK    2  A    between atoms: C_4  and  C_5
REMARK                            x       y       z     vdW  Elec       q    Type
REMARK                         _______ _______ _______ _____ _____    ______ ____
ROOT
ATOM      1  N   UNL     1      -2.436 -14.766  -9.892  0.00  0.00    -0.354 N 
ATOM      2  N   UNL     1      -2.640 -13.997  -7.717  0.00  0.00    -0.372 N 
ATOM      3  N   UNL     1      -2.839 -12.501  -9.445  0.00  0.00    -0.372 N 
ATOM      4  C   UNL     1      -2.637 -13.757  -9.034  0.00  0.00    +0.166 C 
ATOM      5  H   UNL     1      -2.260 -15.690  -9.516  0.00  0.00    +0.163 HD
ATOM      6  H   UNL     1      -2.793 -13.257  -7.045  0.00  0.00    +0.159 HD
ATOM      7  H   UNL     1      -2.509 -14.930  -7.345  0.00  0.00    +0.159 HD
ATOM      8  H   UNL     1      -2.842 -12.253 -10.425  0.00  0.00    +0.159 HD
ATOM      9  H   UNL     1      -2.981 -11.744  -8.788  0.00  0.00    +0.159 HD
ENDROOT
BRANCH   1  10
ATOM     10  C   UNL     1      -2.468 -14.621 -11.346  0.00  0.00    +0.151 C 
BRANCH  10  11
ATOM     11  C   UNL     1      -1.930 -15.875 -11.977  0.00  0.00    -0.028 A 
ATOM     12  C   UNL     1      -1.340 -16.873 -11.187  0.00  0.00    +0.005 A 
ATOM     13  C   UNL     1      -2.011 -16.075 -13.364  0.00  0.00    +0.005 A 
ATOM     14  C   UNL     1      -0.867 -18.052 -11.769  0.00  0.00    +0.000 A 
ATOM     15  C   UNL     1      -1.537 -17.253 -13.941  0.00  0.00    +0.000 A 
ATOM     16  C   UNL     1      -0.968 -18.242 -13.143  0.00  0.00    +0.000 A 
ENDBRANCH  10  11
ENDBRANCH   1  10
TORSDOF 2
ENDMDL
MODEL 8
REMARK VINA RESULT:    -4.345      3.759      5.095
REMARK INTER + INTRA:          -4.994
REMARK INTER:                  -4.850
REMARK INTRA:                  -0.144
REMARK UNBOUND:                -0.140
REMARK  Name = 1550473
REMARK  2 active torsions:
REMARK  status: ('A' for Active; 'I' for Inactive)
REMARK    1  A    between atoms: N_1  and  C_4
REMARK    2  A    between atoms: C_4  and  C_5
REMARK                            x       y       z     vdW  Elec       q    Type
REMARK                         _______ _______ _______ _____ _____    ______ ____
ROOT
ATOM      1  N   UNL     1      -1.414 -16.201  -8.495  0.00  0.00    -0.354 N 
ATOM      2  N   UNL     1      -1.722 -17.427  -6.554  0.00  0.00    -0.372 N 
ATOM      3  N   UNL     1      -3.396 -16.024  -7.257  0.00  0.00    -0.372 N 
ATOM      4  C   UNL     1      -2.178 -16.541  -7.448  0.00  0.00    +0.166 C 
ATOM      5  H   UNL     1      -0.488 -16.606  -8.567  0.00  0.00    +0.163 HD
ATOM      6  H   UNL     1      -2.277 -17.705  -5.756  0.00  0.00    +0.159 HD
ATOM      7  H   UNL     1      -0.814 -17.865  -6.653  0.00  0.00    +0.159 HD
ATOM      8  H   UNL     1      -3.796 -15.346  -7.893  0.00  0.00    +0.159 HD
ATOM      9  H   UNL     1      -3.962 -16.281  -6.458  0.00  0.00    +0.159 HD
ENDROOT
BRANCH   1  10
ATOM     10  C   UNL     1      -1.838 -15.287  -9.554  0.00  0.00    +0.151 C 
BRANCH  10  11
ATOM     11  C   UNL     1      -1.696 -15.976 -10.884  0.00  0.00    -0.028 A 
ATOM     12  C   UNL     1      -1.139 -17.260 -10.964  0.00  0.00    +0.005 A 
ATOM     13  C   UNL     1      -2.122 -15.351 -12.066  0.00  0.00    +0.005 A 
ATOM     14  C   UNL     1      -1.034 -17.912 -12.195  0.00  0.00    +0.000 A 
ATOM     15  C   UNL     1      -2.015 -16.005 -13.293  0.00  0.00    +0.000 A 
ATOM     16  C   UNL     1      -1.474 -17.287 -13.357  0.00  0.00    +0.000 A 
ENDBRANCH  10  11
ENDBRANCH   1  10
TORSDOF 2
ENDMDL
MODEL 9
REMARK VINA RESULT:    -4.260     12.963     14.057
REMARK INTER + INTRA:          -4.898
REMARK INTER:                  -4.780
REMARK INTRA:                  -0.118
REMARK UNBOUND:                -0.140
REMARK  Name = 1550473
REMARK  2 active torsions:
REMARK  status: ('A' for Active; 'I' for Inactive)
REMARK    1  A    between atoms: N_1  and  C_4
REMARK    2  A    between atoms: C_4  and  C_5
REMARK                            x       y       z     vdW  Elec       q    Type
REMARK                         _______ _______ _______ _____ _____    ______ ____
ROOT
ATOM      1  N   UNL     1     -10.012 -10.129  -5.482  0.00  0.00    -0.354 N 
ATOM      2  N   UNL     1      -8.409  -9.727  -3.860  0.00  0.00    -0.372 N 
ATOM      3  N   UNL     1     -10.606  -9.266  -3.386  0.00  0.00    -0.372 N 
ATOM      4  C   UNL     1      -9.689  -9.709  -4.252  0.00  0.00    +0.166 C 
ATOM      5  H   UNL     1      -9.267 -10.425  -6.102  0.00  0.00    +0.163 HD
ATOM      6  H   UNL     1      -8.135  -9.419  -2.937  0.00  0.00    +0.159 HD
ATOM      7  H   UNL     1      -7.671 -10.066  -4.465  0.00  0.00    +0.159 HD
ATOM      8  H   UNL     1     -11.588  -9.222  -3.622  0.00  0.00    +0.159 HD
ATOM      9  H   UNL     1     -10.350  -8.943  -2.461  0.00  0.00    +0.159 HD
ENDROOT
BRANCH   1  10
ATOM     10  C   UNL     1     -11.382 -10.201  -5.988  0.00  0.00    +0.151 C 
BRANCH  10  11
ATOM     11  C   UNL     1     -11.519 -11.414  -6.865  0.00  0.00    -0.028 A 
ATOM     12  C   UNL     1     -11.741 -11.275  -8.243  0.00  0.00    +0.005 A 
ATOM     13  C   UNL     1     -11.423 -12.706  -6.326  0.00  0.00    +0.005 A 
ATOM     14  C   UNL     1     -11.838 -12.401  -9.064  0.00  0.00    +0.000 A 
ATOM     15  C   UNL     1     -11.522 -13.828  -7.148  0.00  0.00    +0.000 A 
ATOM     16  C   UNL     1     -11.727 -13.675  -8.517  0.00  0.00    +0.000 A 
ENDBRANCH  10  11
ENDBRANCH   1  10
TORSDOF 2
ENDMDL
