MODEL 1
REMARK VINA RESULT:    -5.702      0.000      0.000
REMARK INTER + INTRA:          -6.522
REMARK INTER:                  -6.369
REMARK INTRA:                  -0.153
REMARK UNBOUND:                -0.153
REMARK  Name = 1550473
REMARK  2 active torsions:
REMARK  status: ('A' for Active; 'I' for Inactive)
REMARK    1  A    between atoms: N_1  and  C_4
REMARK    2  A    between atoms: C_4  and  C_5
REMARK                            x       y       z     vdW  Elec       q    Type
REMARK                         _______ _______ _______ _____ _____    ______ ____
ROOT
ATOM      1  N   UNL     1       8.489  12.131  -3.873  0.00  0.00    -0.354 N 
ATOM      2  N   UNL     1       7.344  14.110  -4.243  0.00  0.00    -0.372 N 
ATOM      3  N   UNL     1       7.870  12.780  -6.037  0.00  0.00    -0.372 N 
ATOM      4  C   UNL     1       7.909  12.993  -4.718  0.00  0.00    +0.166 C 
ATOM      5  H   UNL     1       8.512  12.365  -2.887  0.00  0.00    +0.163 HD
ATOM      6  H   UNL     1       6.896  14.777  -4.856  0.00  0.00    +0.159 HD
ATOM      7  H   UNL     1       7.328  14.319  -3.252  0.00  0.00    +0.159 HD
ATOM      8  H   UNL     1       8.283  11.960  -6.460  0.00  0.00    +0.159 HD
ATOM      9  H   UNL     1       7.436  13.443  -6.669  0.00  0.00    +0.159 HD
ENDROOT
BRANCH   1  10
ATOM     10  C   UNL     1       9.085  10.860  -4.282  0.00  0.00    +0.151 C 
BRANCH  10  11
ATOM     11  C   UNL     1      10.554  11.065  -4.530  0.00  0.00    -0.028 A 
ATOM     12  C   UNL     1      11.320  11.855  -3.661  0.00  0.00    +0.005 A 
ATOM     13  C   UNL     1      11.188  10.466  -5.630  0.00  0.00    +0.005 A 
ATOM     14  C   UNL     1      12.691  12.020  -3.874  0.00  0.00    +0.000 A 
ATOM     15  C   UNL     1      12.556  10.634  -5.840  0.00  0.00    +0.000 A 
ATOM     16  C   UNL     1      13.308  11.409  -4.960  0.00  0.00    +0.000 A 
ENDBRANCH  10  11
ENDBRANCH   1  10
TORSDOF 2
ENDMDL
MODEL 2
REMARK VINA RESULT:    -5.027      3.230      4.634
REMARK INTER + INTRA:          -5.768
REMARK INTER:                  -5.596
REMARK INTRA:                  -0.171
REMARK UNBOUND:                -0.153
REMARK  Name = 1550473
REMARK  2 active torsions:
REMARK  status: ('A' for Active; 'I' for Inactive)
REMARK    1  A    between atoms: N_1  and  C_4
REMARK    2  A    between atoms: C_4  and  C_5
REMARK                            x       y       z     vdW  Elec       q    Type
REMARK                         _______ _______ _______ _____ _____    ______ ____
ROOT
ATOM      1  N   UNL     1      11.849   9.025  -4.469  0.00  0.00    -0.354 N 
ATOM      2  N   UNL     1      11.506   6.847  -3.760  0.00  0.00    -0.372 N 
ATOM      3  N   UNL     1      11.155   7.363  -5.969  0.00  0.00    -0.372 N 
ATOM      4  C   UNL     1      11.505   7.759  -4.740  0.00  0.00    +0.166 C 
ATOM      5  H   UNL     1      12.075   9.268  -3.511  0.00  0.00    +0.163 HD
ATOM      6  H   UNL     1      11.253   5.883  -3.935  0.00  0.00    +0.159 HD
ATOM      7  H   UNL     1      11.776   7.082  -2.813  0.00  0.00    +0.159 HD
ATOM      8  H   UNL     1      11.129   8.004  -6.750  0.00  0.00    +0.159 HD
ATOM      9  H   UNL     1      10.888   6.405  -6.161  0.00  0.00    +0.159 HD
ENDROOT
BRANCH   1  10
ATOM     10  C   UNL     1      11.933  10.082  -5.475  0.00  0.00    +0.151 C 
BRANCH  10  11
ATOM     11  C   UNL     1      10.788  11.038  -5.279  0.00  0.00    -0.028 A 
ATOM     12  C   UNL     1      10.797  11.950  -4.214  0.00  0.00    +0.005 A 
ATOM     13  C   UNL     1       9.695  11.039  -6.159  0.00  0.00    +0.005 A 
ATOM     14  C   UNL     1       9.748  12.858  -4.049  0.00  0.00    +0.000 A 
ATOM     15  C   UNL     1       8.649  11.947  -5.990  0.00  0.00    +0.000 A 
ATOM     16  C   UNL     1       8.677  12.858  -4.937  0.00  0.00    +0.000 A 
ENDBRANCH  10  11
ENDBRANCH   1  10
TORSDOF 2
ENDMDL
MODEL 3
REMARK VINA RESULT:    -4.837      3.420      5.076
REMARK INTER + INTRA:          -5.556
REMARK INTER:                  -5.434
REMARK INTRA:                  -0.122
REMARK UNBOUND:                -0.153
REMARK  Name = 1550473
REMARK  2 active torsions:
REMARK  status: ('A' for Active; 'I' for Inactive)
REMARK    1  A    between atoms: N_1  and  C_4
REMARK    2  A    between atoms: C_4  and  C_5
REMARK                            x       y       z     vdW  Elec       q    Type
REMARK                         _______ _______ _______ _____ _____    ______ ____
ROOT
ATOM      1  N   UNL     1      13.356  10.362  -3.671  0.00  0.00    -0.354 N 
ATOM      2  N   UNL     1      14.534  10.605  -1.692  0.00  0.00    -0.372 N 
ATOM      3  N   UNL     1      14.952  12.059  -3.417  0.00  0.00    -0.372 N 
ATOM      4  C   UNL     1      14.275  11.009  -2.941  0.00  0.00    +0.166 C 
ATOM      5  H   UNL     1      12.899   9.555  -3.263  0.00  0.00    +0.163 HD
ATOM      6  H   UNL     1      15.220  11.075  -1.116  0.00  0.00    +0.159 HD
ATOM      7  H   UNL     1      14.043   9.826  -1.270  0.00  0.00    +0.159 HD
ATOM      8  H   UNL     1      14.807  12.410  -4.354  0.00  0.00    +0.159 HD
ATOM      9  H   UNL     1      15.650  12.536  -2.860  0.00  0.00    +0.159 HD
ENDROOT
BRANCH   1  10
ATOM     10  C   UNL     1      12.961  10.755  -5.022  0.00  0.00    +0.151 C 
BRANCH  10  11
ATOM     11  C   UNL     1      11.525  11.203  -5.003  0.00  0.00    -0.028 A 
ATOM     12  C   UNL     1      10.605  10.685  -5.926  0.00  0.00    +0.005 A 
ATOM     13  C   UNL     1      11.077  12.141  -4.060  0.00  0.00    +0.005 A 
ATOM     14  C   UNL     1       9.265  11.078  -5.890  0.00  0.00    +0.000 A 
ATOM     15  C   UNL     1       9.739  12.532  -4.027  0.00  0.00    +0.000 A 
ATOM     16  C   UNL     1       8.833  11.998  -4.940  0.00  0.00    +0.000 A 
ENDBRANCH  10  11
ENDBRANCH   1  10
TORSDOF 2
ENDMDL
MODEL 4
REMARK VINA RESULT:    -4.641     22.651     24.077
REMARK INTER + INTRA:          -5.336
REMARK INTER:                  -5.205
REMARK INTRA:                  -0.131
REMARK UNBOUND:                -0.153
REMARK  Name = 1550473
REMARK  2 active torsions:
REMARK  status: ('A' for Active; 'I' for Inactive)
REMARK    1  A    between atoms: N_1  and  C_4
REMARK    2  A    between atoms: C_4  and  C_5
REMARK                            x       y       z     vdW  Elec       q    Type
REMARK                         _______ _______ _______ _____ _____    ______ ____
ROOT
ATOM      1  N   UNL     1      -3.047  -9.395  -0.624  0.00  0.00    -0.354 N 
ATOM      2  N   UNL     1      -4.418 -11.113  -1.356  0.00  0.00    -0.372 N 
ATOM      3  N   UNL     1      -2.459 -10.703  -2.478  0.00  0.00    -0.372 N 
ATOM      4  C   UNL     1      -3.297 -10.392  -1.483  0.00  0.00    +0.166 C 
ATOM      5  H   UNL     1      -3.737  -9.190   0.090  0.00  0.00    +0.163 HD
ATOM      6  H   UNL     1      -4.632 -11.873  -1.987  0.00  0.00    +0.159 HD
ATOM      7  H   UNL     1      -5.084 -10.936  -0.613  0.00  0.00    +0.159 HD
ATOM      8  H   UNL     1      -1.599 -10.194  -2.632  0.00  0.00    +0.159 HD
ATOM      9  H   UNL     1      -2.662 -11.453  -3.127  0.00  0.00    +0.159 HD
ENDROOT
BRANCH   1  10
ATOM     10  C   UNL     1      -1.831  -8.585  -0.644  0.00  0.00    +0.151 C 
BRANCH  10  11
ATOM     11  C   UNL     1      -2.207  -7.136  -0.786  0.00  0.00    -0.028 A 
ATOM     12  C   UNL     1      -3.339  -6.764  -1.526  0.00  0.00    +0.005 A 
ATOM     13  C   UNL     1      -1.440  -6.131  -0.178  0.00  0.00    +0.005 A 
ATOM     14  C   UNL     1      -3.706  -5.421  -1.634  0.00  0.00    +0.000 A 
ATOM     15  C   UNL     1      -1.809  -4.790  -0.289  0.00  0.00    +0.000 A 
ATOM     16  C   UNL     1      -2.944  -4.436  -1.014  0.00  0.00    +0.000 A 
ENDBRANCH  10  11
ENDBRANCH   1  10
TORSDOF 2
ENDMDL
MODEL 5
REMARK VINA RESULT:    -4.634     21.132     22.595
REMARK INTER + INTRA:          -5.329
REMARK INTER:                  -5.148
REMARK INTRA:                  -0.181
REMARK UNBOUND:                -0.153
REMARK  Name = 1550473
REMARK  2 active torsions:
REMARK  status: ('A' for Active; 'I' for Inactive)
REMARK    1  A    between atoms: N_1  and  C_4
REMARK    2  A    between atoms: C_4  and  C_5
REMARK                            x       y       z     vdW  Elec       q    Type
REMARK                         _______ _______ _______ _____ _____    ______ ____
ROOT
ATOM      1  N   UNL     1      -0.593  -5.439   1.288  0.00  0.00    -0.354 N 
ATOM      2  N   UNL     1      -1.346  -4.595   3.308  0.00  0.00    -0.372 N 
ATOM      3  N   UNL     1      -2.061  -3.613   1.361  0.00  0.00    -0.372 N 
ATOM      4  C   UNL     1      -1.330  -4.552   1.971  0.00  0.00    +0.166 C 
ATOM      5  H   UNL     1      -0.037  -6.106   1.809  0.00  0.00    +0.163 HD
ATOM      6  H   UNL     1      -1.895  -3.941   3.851  0.00  0.00    +0.159 HD
ATOM      7  H   UNL     1      -0.826  -5.292   3.826  0.00  0.00    +0.159 HD
ATOM      8  H   UNL     1      -2.086  -3.524   0.354  0.00  0.00    +0.159 HD
ATOM      9  H   UNL     1      -2.608  -2.943   1.887  0.00  0.00    +0.159 HD
ENDROOT
BRANCH   1  10
ATOM     10  C   UNL     1      -0.548  -5.512  -0.172  0.00  0.00    +0.151 C 
BRANCH  10  11
ATOM     11  C   UNL     1      -1.395  -6.666  -0.632  0.00  0.00    -0.028 A 
ATOM     12  C   UNL     1      -0.883  -7.972  -0.626  0.00  0.00    +0.005 A 
ATOM     13  C   UNL     1      -2.713  -6.461  -1.069  0.00  0.00    +0.005 A 
ATOM     14  C   UNL     1      -1.680  -9.048  -1.024  0.00  0.00    +0.000 A 
ATOM     15  C   UNL     1      -3.505  -7.538  -1.467  0.00  0.00    +0.000 A 
ATOM     16  C   UNL     1      -2.989  -8.832  -1.442  0.00  0.00    +0.000 A 
ENDBRANCH  10  11
ENDBRANCH   1  10
TORSDOF 2
ENDMDL
MODEL 6
REMARK VINA RESULT:    -4.598     18.928     19.764
REMARK INTER + INTRA:          -5.289
REMARK INTER:                  -5.120
REMARK INTRA:                  -0.168
REMARK UNBOUND:                -0.153
REMARK  Name = 1550473
REMARK  2 active torsions:
REMARK  status: ('A' for Active; 'I' for Inactive)
REMARK    1  A    between atoms: N_1  and  C_4
REMARK    2  A    between atoms: C_4  and  C_5
REMARK                            x       y       z     vdW  Elec       q    Type
REMARK                         _______ _______ _______ _____ _____    ______ ____
ROOT
ATOM      1  N   UNL     1      -1.094  -1.881   3.796  0.00  0.00    -0.354 N 
ATOM      2  N   UNL     1       0.249  -0.213   4.677  0.00  0.00    -0.372 N 
ATOM      3  N   UNL     1      -1.948   0.261   4.212  0.00  0.00    -0.372 N 
ATOM      4  C   UNL     1      -0.942  -0.620   4.222  0.00  0.00    +0.166 C 
ATOM      5  H   UNL     1      -0.285  -2.492   3.801  0.00  0.00    +0.163 HD
ATOM      6  H   UNL     1       0.393   0.732   5.009  0.00  0.00    +0.159 HD
ATOM      7  H   UNL     1       1.044  -0.838   4.724  0.00  0.00    +0.159 HD
ATOM      8  H   UNL     1      -2.870   0.018   3.876  0.00  0.00    +0.159 HD
ATOM      9  H   UNL     1      -1.820   1.214   4.529  0.00  0.00    +0.159 HD
ENDROOT
BRANCH   1  10
ATOM     10  C   UNL     1      -2.362  -2.440   3.332  0.00  0.00    +0.151 C 
BRANCH  10  11
ATOM     11  C   UNL     1      -2.330  -2.553   1.832  0.00  0.00    -0.028 A 
ATOM     12  C   UNL     1      -2.641  -1.446   1.028  0.00  0.00    +0.005 A 
ATOM     13  C   UNL     1      -1.984  -3.762   1.209  0.00  0.00    +0.005 A 
ATOM     14  C   UNL     1      -2.582  -1.542  -0.364  0.00  0.00    +0.000 A 
ATOM     15  C   UNL     1      -1.927  -3.853  -0.181  0.00  0.00    +0.000 A 
ATOM     16  C   UNL     1      -2.224  -2.743  -0.967  0.00  0.00    +0.000 A 
ENDBRANCH  10  11
ENDBRANCH   1  10
TORSDOF 2
ENDMDL
MODEL 7
REMARK VINA RESULT:    -4.559     24.075     25.411
REMARK INTER + INTRA:          -5.245
REMARK INTER:                  -5.097
REMARK INTRA:                  -0.148
REMARK UNBOUND:                -0.153
REMARK  Name = 1550473
REMARK  2 active torsions:
REMARK  status: ('A' for Active; 'I' for Inactive)
REMARK    1  A    between atoms: N_1  and  C_4
REMARK    2  A    between atoms: C_4  and  C_5
REMARK                            x       y       z     vdW  Elec       q    Type
REMARK                         _______ _______ _______ _____ _____    ______ ____
ROOT
ATOM      1  N   UNL     1      -3.713 -10.804  -1.739  0.00  0.00    -0.354 N 
ATOM      2  N   UNL     1      -5.558 -11.969  -0.964  0.00  0.00    -0.372 N 
ATOM      3  N   UNL     1      -3.503 -12.406  -0.041  0.00  0.00    -0.372 N 
ATOM      4  C   UNL     1      -4.244 -11.720  -0.918  0.00  0.00    +0.166 C 
ATOM      5  H   UNL     1      -4.323 -10.340  -2.402  0.00  0.00    +0.163 HD
ATOM      6  H   UNL     1      -5.988 -12.652  -0.355  0.00  0.00    +0.159 HD
ATOM      7  H   UNL     1      -6.173 -11.471  -1.595  0.00  0.00    +0.159 HD
ATOM      8  H   UNL     1      -2.505 -12.269   0.039  0.00  0.00    +0.159 HD
ATOM      9  H   UNL     1      -3.913 -13.102   0.569  0.00  0.00    +0.159 HD
ENDROOT
BRANCH   1  10
ATOM     10  C   UNL     1      -2.302 -10.419  -1.731  0.00  0.00    +0.151 C 
BRANCH  10  11
ATOM     11  C   UNL     1      -2.194  -8.956  -1.402  0.00  0.00    -0.028 A 
ATOM     12  C   UNL     1      -0.955  -8.393  -1.064  0.00  0.00    +0.005 A 
ATOM     13  C   UNL     1      -3.325  -8.126  -1.432  0.00  0.00    +0.005 A 
ATOM     14  C   UNL     1      -0.848  -7.027  -0.787  0.00  0.00    +0.000 A 
ATOM     15  C   UNL     1      -3.215  -6.764  -1.154  0.00  0.00    +0.000 A 
ATOM     16  C   UNL     1      -1.976  -6.215  -0.834  0.00  0.00    +0.000 A 
ENDBRANCH  10  11
ENDBRANCH   1  10
TORSDOF 2
ENDMDL
MODEL 8
REMARK VINA RESULT:    -4.529     29.896     31.026
REMARK INTER + INTRA:          -5.211
REMARK INTER:                  -5.039
REMARK INTRA:                  -0.172
REMARK UNBOUND:                -0.153
REMARK  Name = 1550473
REMARK  2 active torsions:
REMARK  status: ('A' for Active; 'I' for Inactive)
REMARK    1  A    between atoms: N_1  and  C_4
REMARK    2  A    between atoms: C_4  and  C_5
REMARK                            x       y       z     vdW  Elec       q    Type
REMARK                         _______ _______ _______ _____ _____    ______ ____
ROOT
ATOM      1  N   UNL     1     -12.563  -8.569  -4.461  0.00  0.00    -0.354 N 
ATOM      2  N   UNL     1     -12.565 -10.338  -2.966  0.00  0.00    -0.372 N 
ATOM      3  N   UNL     1     -10.708  -9.988  -4.267  0.00  0.00    -0.372 N 
ATOM      4  C   UNL     1     -11.943  -9.620  -3.909  0.00  0.00    +0.166 C 
ATOM      5  H   UNL     1     -13.511  -8.360  -4.167  0.00  0.00    +0.163 HD
ATOM      6  H   UNL     1     -12.121 -11.134  -2.529  0.00  0.00    +0.159 HD
ATOM      7  H   UNL     1     -13.495 -10.100  -2.642  0.00  0.00    +0.159 HD
ATOM      8  H   UNL     1     -10.187  -9.491  -4.978  0.00  0.00    +0.159 HD
ATOM      9  H   UNL     1     -10.251 -10.789  -3.850  0.00  0.00    +0.159 HD
ENDROOT
BRANCH   1  10
ATOM     10  C   UNL     1     -11.953  -7.690  -5.457  0.00  0.00    +0.151 C 
BRANCH  10  11
ATOM     11  C   UNL     1     -12.623  -7.912  -6.785  0.00  0.00    -0.028 A 
ATOM     12  C   UNL     1     -12.071  -8.798  -7.721  0.00  0.00    +0.005 A 
ATOM     13  C   UNL     1     -13.814  -7.245  -7.110  0.00  0.00    +0.005 A 
ATOM     14  C   UNL     1     -12.709  -9.028  -8.943  0.00  0.00    +0.000 A 
ATOM     15  C   UNL     1     -14.447  -7.476  -8.331  0.00  0.00    +0.000 A 
ATOM     16  C   UNL     1     -13.896  -8.370  -9.246  0.00  0.00    +0.000 A 
ENDBRANCH  10  11
ENDBRANCH   1  10
TORSDOF 2
ENDMDL
MODEL 9
REMARK VINA RESULT:    -4.439     18.781     19.928
REMARK INTER + INTRA:          -5.111
REMARK INTER:                  -4.967
REMARK INTRA:                  -0.144
REMARK UNBOUND:                -0.153
REMARK  Name = 1550473
REMARK  2 active torsions:
REMARK  status: ('A' for Active; 'I' for Inactive)
REMARK    1  A    between atoms: N_1  and  C_4
REMARK    2  A    between atoms: C_4  and  C_5
REMARK                            x       y       z     vdW  Elec       q    Type
REMARK                         _______ _______ _______ _____ _____    ______ ____
ROOT
ATOM      1  N   UNL     1      -0.622  -1.420   3.942  0.00  0.00    -0.354 N 
ATOM      2  N   UNL     1      -0.286  -3.709   4.062  0.00  0.00    -0.372 N 
ATOM      3  N   UNL     1      -1.958  -2.902   2.713  0.00  0.00    -0.372 N 
ATOM      4  C   UNL     1      -0.960  -2.662   3.570  0.00  0.00    +0.166 C 
ATOM      5  H   UNL     1       0.124  -1.307   4.619  0.00  0.00    +0.163 HD
ATOM      6  H   UNL     1      -0.516  -4.657   3.796  0.00  0.00    +0.159 HD
ATOM      7  H   UNL     1       0.489  -3.590   4.702  0.00  0.00    +0.159 HD
ATOM      8  H   UNL     1      -2.509  -2.156   2.310  0.00  0.00    +0.159 HD
ATOM      9  H   UNL     1      -2.211  -3.845   2.444  0.00  0.00    +0.159 HD
ENDROOT
BRANCH   1  10
ATOM     10  C   UNL     1      -1.257  -0.210   3.424  0.00  0.00    +0.151 C 
BRANCH  10  11
ATOM     11  C   UNL     1      -1.846   0.565   4.571  0.00  0.00    -0.028 A 
ATOM     12  C   UNL     1      -1.046   1.434   5.328  0.00  0.00    +0.005 A 
ATOM     13  C   UNL     1      -3.204   0.440   4.901  0.00  0.00    +0.005 A 
ATOM     14  C   UNL     1      -1.599   2.177   6.374  0.00  0.00    +0.000 A 
ATOM     15  C   UNL     1      -3.752   1.183   5.946  0.00  0.00    +0.000 A 
ATOM     16  C   UNL     1      -2.950   2.053   6.681  0.00  0.00    +0.000 A 
ENDBRANCH  10  11
ENDBRANCH   1  10
TORSDOF 2
ENDMDL
