MODEL 1
REMARK VINA RESULT:    -5.384      0.000      0.000
REMARK INTER + INTRA:          -6.131
REMARK INTER:                  -6.014
REMARK INTRA:                  -0.117
REMARK UNBOUND:                -0.117
REMARK  Name = 1550473
REMARK  2 active torsions:
REMARK  status: ('A' for Active; 'I' for Inactive)
REMARK    1  A    between atoms: N_1  and  C_4
REMARK    2  A    between atoms: C_4  and  C_5
REMARK                            x       y       z     vdW  Elec       q    Type
REMARK                         _______ _______ _______ _____ _____    ______ ____
ROOT
ATOM      1  N   UNL     1      -3.670  -0.635  -4.453  0.00  0.00    -0.354 N 
ATOM      2  N   UNL     1      -1.439  -0.374  -3.886  0.00  0.00    -0.372 N 
ATOM      3  N   UNL     1      -2.118   0.183  -6.006  0.00  0.00    -0.372 N 
ATOM      4  C   UNL     1      -2.423  -0.276  -4.788  0.00  0.00    +0.166 C 
ATOM      5  H   UNL     1      -3.830  -1.004  -3.523  0.00  0.00    +0.163 HD
ATOM      6  H   UNL     1      -0.490  -0.108  -4.109  0.00  0.00    +0.159 HD
ATOM      7  H   UNL     1      -1.611  -0.700  -2.943  0.00  0.00    +0.159 HD
ATOM      8  H   UNL     1      -2.814   0.276  -6.734  0.00  0.00    +0.159 HD
ATOM      9  H   UNL     1      -1.171   0.444  -6.252  0.00  0.00    +0.159 HD
ENDROOT
BRANCH   1  10
ATOM     10  C   UNL     1      -4.822  -0.517  -5.344  0.00  0.00    +0.151 C 
BRANCH  10  11
ATOM     11  C   UNL     1      -5.813  -1.598  -5.012  0.00  0.00    -0.028 A 
ATOM     12  C   UNL     1      -5.444  -2.949  -5.089  0.00  0.00    +0.005 A 
ATOM     13  C   UNL     1      -7.120  -1.279  -4.615  0.00  0.00    +0.005 A 
ATOM     14  C   UNL     1      -6.354  -3.954  -4.752  0.00  0.00    +0.000 A 
ATOM     15  C   UNL     1      -8.027  -2.285  -4.280  0.00  0.00    +0.000 A 
ATOM     16  C   UNL     1      -7.643  -3.622  -4.346  0.00  0.00    +0.000 A 
ENDBRANCH  10  11
ENDBRANCH   1  10
TORSDOF 2
ENDMDL
MODEL 2
REMARK VINA RESULT:    -5.220      1.906      2.828
REMARK INTER + INTRA:          -5.948
REMARK INTER:                  -5.823
REMARK INTRA:                  -0.125
REMARK UNBOUND:                -0.117
REMARK  Name = 1550473
REMARK  2 active torsions:
REMARK  status: ('A' for Active; 'I' for Inactive)
REMARK    1  A    between atoms: N_1  and  C_4
REMARK    2  A    between atoms: C_4  and  C_5
REMARK                            x       y       z     vdW  Elec       q    Type
REMARK                         _______ _______ _______ _____ _____    ______ ____
ROOT
ATOM      1  N   UNL     1      -6.374  -1.335  -6.323  0.00  0.00    -0.354 N 
ATOM      2  N   UNL     1      -5.842   0.837  -6.927  0.00  0.00    -0.372 N 
ATOM      3  N   UNL     1      -4.309  -0.391  -5.742  0.00  0.00    -0.372 N 
ATOM      4  C   UNL     1      -5.509  -0.311  -6.325  0.00  0.00    +0.166 C 
ATOM      5  H   UNL     1      -7.280  -1.200  -6.756  0.00  0.00    +0.163 HD
ATOM      6  H   UNL     1      -5.210   1.626  -6.948  0.00  0.00    +0.159 HD
ATOM      7  H   UNL     1      -6.731   0.953  -7.399  0.00  0.00    +0.159 HD
ATOM      8  H   UNL     1      -3.999  -1.227  -5.266  0.00  0.00    +0.159 HD
ATOM      9  H   UNL     1      -3.666   0.392  -5.742  0.00  0.00    +0.159 HD
ENDROOT
BRANCH   1  10
ATOM     10  C   UNL     1      -6.087  -2.645  -5.742  0.00  0.00    +0.151 C 
BRANCH  10  11
ATOM     11  C   UNL     1      -7.069  -2.918  -4.636  0.00  0.00    -0.028 A 
ATOM     12  C   UNL     1      -7.176  -4.200  -4.079  0.00  0.00    +0.005 A 
ATOM     13  C   UNL     1      -7.893  -1.896  -4.138  0.00  0.00    +0.005 A 
ATOM     14  C   UNL     1      -8.067  -4.447  -3.031  0.00  0.00    +0.000 A 
ATOM     15  C   UNL     1      -8.782  -2.147  -3.093  0.00  0.00    +0.000 A 
ATOM     16  C   UNL     1      -8.867  -3.421  -2.538  0.00  0.00    +0.000 A 
ENDBRANCH  10  11
ENDBRANCH   1  10
TORSDOF 2
ENDMDL
MODEL 3
REMARK VINA RESULT:    -5.174     32.954     33.935
REMARK INTER + INTRA:          -5.897
REMARK INTER:                  -5.784
REMARK INTRA:                  -0.112
REMARK UNBOUND:                -0.117
REMARK  Name = 1550473
REMARK  2 active torsions:
REMARK  status: ('A' for Active; 'I' for Inactive)
REMARK    1  A    between atoms: N_1  and  C_4
REMARK    2  A    between atoms: C_4  and  C_5
REMARK                            x       y       z     vdW  Elec       q    Type
REMARK                         _______ _______ _______ _____ _____    ______ ____
ROOT
ATOM      1  N   UNL     1     -26.852 -24.732 -16.840  0.00  0.00    -0.354 N 
ATOM      2  N   UNL     1     -28.001 -22.747 -17.162  0.00  0.00    -0.372 N 
ATOM      3  N   UNL     1     -25.790 -22.860 -17.766  0.00  0.00    -0.372 N 
ATOM      4  C   UNL     1     -26.871 -23.458 -17.254  0.00  0.00    +0.166 C 
ATOM      5  H   UNL     1     -27.697 -25.118 -16.434  0.00  0.00    +0.163 HD
ATOM      6  H   UNL     1     -28.046 -21.785 -17.470  0.00  0.00    +0.159 HD
ATOM      7  H   UNL     1     -28.856 -23.149 -16.798  0.00  0.00    +0.159 HD
ATOM      8  H   UNL     1     -24.905 -23.340 -17.857  0.00  0.00    +0.159 HD
ATOM      9  H   UNL     1     -25.812 -21.894 -18.069  0.00  0.00    +0.159 HD
ENDROOT
BRANCH   1  10
ATOM     10  C   UNL     1     -25.688 -25.610 -16.947  0.00  0.00    +0.151 C 
BRANCH  10  11
ATOM     11  C   UNL     1     -25.540 -26.387 -15.668  0.00  0.00    -0.028 A 
ATOM     12  C   UNL     1     -26.567 -27.236 -15.228  0.00  0.00    +0.005 A 
ATOM     13  C   UNL     1     -24.374 -26.284 -14.895  0.00  0.00    +0.005 A 
ATOM     14  C   UNL     1     -26.417 -27.981 -14.056  0.00  0.00    +0.000 A 
ATOM     15  C   UNL     1     -24.229 -27.030 -13.725  0.00  0.00    +0.000 A 
ATOM     16  C   UNL     1     -25.250 -27.880 -13.307  0.00  0.00    +0.000 A 
ENDBRANCH  10  11
ENDBRANCH   1  10
TORSDOF 2
ENDMDL
MODEL 4
REMARK VINA RESULT:    -5.043      2.318      3.358
REMARK INTER + INTRA:          -5.750
REMARK INTER:                  -5.618
REMARK INTRA:                  -0.131
REMARK UNBOUND:                -0.117
REMARK  Name = 1550473
REMARK  2 active torsions:
REMARK  status: ('A' for Active; 'I' for Inactive)
REMARK    1  A    between atoms: N_1  and  C_4
REMARK    2  A    between atoms: C_4  and  C_5
REMARK                            x       y       z     vdW  Elec       q    Type
REMARK                         _______ _______ _______ _____ _____    ______ ____
ROOT
ATOM      1  N   UNL     1      -5.250  -1.327  -4.912  0.00  0.00    -0.354 N 
ATOM      2  N   UNL     1      -6.082   0.833  -4.837  0.00  0.00    -0.372 N 
ATOM      3  N   UNL     1      -6.619  -0.501  -6.625  0.00  0.00    -0.372 N 
ATOM      4  C   UNL     1      -5.979  -0.347  -5.461  0.00  0.00    +0.166 C 
ATOM      5  H   UNL     1      -4.764  -1.136  -4.043  0.00  0.00    +0.163 HD
ATOM      6  H   UNL     1      -6.629   1.590  -5.225  0.00  0.00    +0.159 HD
ATOM      7  H   UNL     1      -5.634   1.005  -3.946  0.00  0.00    +0.159 HD
ATOM      8  H   UNL     1      -6.577  -1.365  -7.149  0.00  0.00    +0.159 HD
ATOM      9  H   UNL     1      -7.161   0.249  -7.036  0.00  0.00    +0.159 HD
ENDROOT
BRANCH   1  10
ATOM     10  C   UNL     1      -5.117  -2.666  -5.483  0.00  0.00    +0.151 C 
BRANCH  10  11
ATOM     11  C   UNL     1      -5.506  -3.683  -4.446  0.00  0.00    -0.028 A 
ATOM     12  C   UNL     1      -6.806  -4.208  -4.416  0.00  0.00    +0.005 A 
ATOM     13  C   UNL     1      -4.577  -4.131  -3.494  0.00  0.00    +0.005 A 
ATOM     14  C   UNL     1      -7.160  -5.175  -3.472  0.00  0.00    +0.000 A 
ATOM     15  C   UNL     1      -4.934  -5.096  -2.553  0.00  0.00    +0.000 A 
ATOM     16  C   UNL     1      -6.224  -5.620  -2.543  0.00  0.00    +0.000 A 
ENDBRANCH  10  11
ENDBRANCH   1  10
TORSDOF 2
ENDMDL
MODEL 5
REMARK VINA RESULT:    -4.930      8.480     11.035
REMARK INTER + INTRA:          -5.623
REMARK INTER:                  -5.508
REMARK INTRA:                  -0.115
REMARK UNBOUND:                -0.117
REMARK  Name = 1550473
REMARK  2 active torsions:
REMARK  status: ('A' for Active; 'I' for Inactive)
REMARK    1  A    between atoms: N_1  and  C_4
REMARK    2  A    between atoms: C_4  and  C_5
REMARK                            x       y       z     vdW  Elec       q    Type
REMARK                         _______ _______ _______ _____ _____    ______ ____
ROOT
ATOM      1  N   UNL     1       1.537   0.587   1.172  0.00  0.00    -0.354 N 
ATOM      2  N   UNL     1      -0.197  -0.032   2.576  0.00  0.00    -0.372 N 
ATOM      3  N   UNL     1      -0.685   0.613   0.428  0.00  0.00    -0.372 N 
ATOM      4  C   UNL     1       0.228   0.394   1.380  0.00  0.00    +0.166 C 
ATOM      5  H   UNL     1       2.176   0.432   1.943  0.00  0.00    +0.163 HD
ATOM      6  H   UNL     1      -1.179  -0.190   2.762  0.00  0.00    +0.159 HD
ATOM      7  H   UNL     1       0.447  -0.230   3.331  0.00  0.00    +0.159 HD
ATOM      8  H   UNL     1      -0.430   0.941  -0.493  0.00  0.00    +0.159 HD
ATOM      9  H   UNL     1      -1.673   0.472   0.599  0.00  0.00    +0.159 HD
ENDROOT
BRANCH   1  10
ATOM     10  C   UNL     1       2.109   0.998  -0.109  0.00  0.00    +0.151 C 
BRANCH  10  11
ATOM     11  C   UNL     1       3.090   2.113   0.126  0.00  0.00    -0.028 A 
ATOM     12  C   UNL     1       4.346   1.849   0.691  0.00  0.00    +0.005 A 
ATOM     13  C   UNL     1       2.773   3.435  -0.221  0.00  0.00    +0.005 A 
ATOM     14  C   UNL     1       5.270   2.879   0.882  0.00  0.00    +0.000 A 
ATOM     15  C   UNL     1       3.697   4.462  -0.028  0.00  0.00    +0.000 A 
ATOM     16  C   UNL     1       4.946   4.183   0.521  0.00  0.00    +0.000 A 
ENDBRANCH  10  11
ENDBRANCH   1  10
TORSDOF 2
ENDMDL
MODEL 6
REMARK VINA RESULT:    -4.769      4.022      5.349
REMARK INTER + INTRA:          -5.444
REMARK INTER:                  -5.303
REMARK INTRA:                  -0.141
REMARK UNBOUND:                -0.117
REMARK  Name = 1550473
REMARK  2 active torsions:
REMARK  status: ('A' for Active; 'I' for Inactive)
REMARK    1  A    between atoms: N_1  and  C_4
REMARK    2  A    between atoms: C_4  and  C_5
REMARK                            x       y       z     vdW  Elec       q    Type
REMARK                         _______ _______ _______ _____ _____    ______ ____
ROOT
ATOM      1  N   UNL     1      -7.352  -5.334  -3.758  0.00  0.00    -0.354 N 
ATOM      2  N   UNL     1      -7.322  -7.643  -3.932  0.00  0.00    -0.372 N 
ATOM      3  N   UNL     1      -6.284  -6.652  -2.141  0.00  0.00    -0.372 N 
ATOM      4  C   UNL     1      -6.984  -6.528  -3.273  0.00  0.00    +0.166 C 
ATOM      5  H   UNL     1      -7.855  -5.305  -4.637  0.00  0.00    +0.163 HD
ATOM      6  H   UNL     1      -7.062  -8.558  -3.589  0.00  0.00    +0.159 HD
ATOM      7  H   UNL     1      -7.865  -7.614  -4.786  0.00  0.00    +0.159 HD
ATOM      8  H   UNL     1      -5.994  -5.849  -1.600  0.00  0.00    +0.159 HD
ATOM      9  H   UNL     1      -6.004  -7.559  -1.788  0.00  0.00    +0.159 HD
ENDROOT
BRANCH   1  10
ATOM     10  C   UNL     1      -7.081  -4.062  -3.090  0.00  0.00    +0.151 C 
BRANCH  10  11
ATOM     11  C   UNL     1      -6.524  -3.089  -4.092  0.00  0.00    -0.028 A 
ATOM     12  C   UNL     1      -5.581  -3.508  -5.042  0.00  0.00    +0.005 A 
ATOM     13  C   UNL     1      -6.939  -1.749  -4.101  0.00  0.00    +0.005 A 
ATOM     14  C   UNL     1      -5.086  -2.612  -5.993  0.00  0.00    +0.000 A 
ATOM     15  C   UNL     1      -6.441  -0.857  -5.051  0.00  0.00    +0.000 A 
ATOM     16  C   UNL     1      -5.517  -1.290  -5.998  0.00  0.00    +0.000 A 
ENDBRANCH  10  11
ENDBRANCH   1  10
TORSDOF 2
ENDMDL
MODEL 7
REMARK VINA RESULT:    -4.658     34.004     35.526
REMARK INTER + INTRA:          -5.320
REMARK INTER:                  -5.178
REMARK INTRA:                  -0.142
REMARK UNBOUND:                -0.117
REMARK  Name = 1550473
REMARK  2 active torsions:
REMARK  status: ('A' for Active; 'I' for Inactive)
REMARK    1  A    between atoms: N_1  and  C_4
REMARK    2  A    between atoms: C_4  and  C_5
REMARK                            x       y       z     vdW  Elec       q    Type
REMARK                         _______ _______ _______ _____ _____    ______ ____
ROOT
ATOM      1  N   UNL     1     -27.380 -29.535 -12.766  0.00  0.00    -0.354 N 
ATOM      2  N   UNL     1     -29.503 -29.873 -11.905  0.00  0.00    -0.372 N 
ATOM      3  N   UNL     1     -27.749 -29.593 -10.453  0.00  0.00    -0.372 N 
ATOM      4  C   UNL     1     -28.195 -29.664 -11.711  0.00  0.00    +0.166 C 
ATOM      5  H   UNL     1     -27.776 -29.629 -13.695  0.00  0.00    +0.163 HD
ATOM      6  H   UNL     1     -30.143 -29.971 -11.128  0.00  0.00    +0.159 HD
ATOM      7  H   UNL     1     -29.903 -29.921 -12.834  0.00  0.00    +0.159 HD
ATOM      8  H   UNL     1     -26.772 -29.443 -10.239  0.00  0.00    +0.159 HD
ATOM      9  H   UNL     1     -28.372 -29.700  -9.662  0.00  0.00    +0.159 HD
ENDROOT
BRANCH   1  10
ATOM     10  C   UNL     1     -25.950 -29.252 -12.664  0.00  0.00    +0.151 C 
BRANCH  10  11
ATOM     11  C   UNL     1     -25.614 -28.087 -13.554  0.00  0.00    -0.028 A 
ATOM     12  C   UNL     1     -24.372 -27.444 -13.448  0.00  0.00    +0.005 A 
ATOM     13  C   UNL     1     -26.533 -27.624 -14.509  0.00  0.00    +0.005 A 
ATOM     14  C   UNL     1     -24.049 -26.381 -14.294  0.00  0.00    +0.000 A 
ATOM     15  C   UNL     1     -26.206 -26.561 -15.351  0.00  0.00    +0.000 A 
ATOM     16  C   UNL     1     -24.964 -25.942 -15.245  0.00  0.00    +0.000 A 
ENDBRANCH  10  11
ENDBRANCH   1  10
TORSDOF 2
ENDMDL
MODEL 8
REMARK VINA RESULT:    -4.608     30.558     32.395
REMARK INTER + INTRA:          -5.264
REMARK INTER:                  -5.136
REMARK INTRA:                  -0.128
REMARK UNBOUND:                -0.117
REMARK  Name = 1550473
REMARK  2 active torsions:
REMARK  status: ('A' for Active; 'I' for Inactive)
REMARK    1  A    between atoms: N_1  and  C_4
REMARK    2  A    between atoms: C_4  and  C_5
REMARK                            x       y       z     vdW  Elec       q    Type
REMARK                         _______ _______ _______ _____ _____    ______ ____
ROOT
ATOM      1  N   UNL     1      12.691  22.656  10.956  0.00  0.00    -0.354 N 
ATOM      2  N   UNL     1      14.550  23.862  11.628  0.00  0.00    -0.372 N 
ATOM      3  N   UNL     1      14.096  21.860  12.654  0.00  0.00    -0.372 N 
ATOM      4  C   UNL     1      13.767  22.783  11.743  0.00  0.00    +0.166 C 
ATOM      5  H   UNL     1      12.479  23.405  10.306  0.00  0.00    +0.163 HD
ATOM      6  H   UNL     1      15.371  23.983  12.207  0.00  0.00    +0.159 HD
ATOM      7  H   UNL     1      14.361  24.587  10.947  0.00  0.00    +0.159 HD
ATOM      8  H   UNL     1      13.543  21.025  12.794  0.00  0.00    +0.159 HD
ATOM      9  H   UNL     1      14.907  21.969  13.250  0.00  0.00    +0.159 HD
ENDROOT
BRANCH   1  10
ATOM     10  C   UNL     1      11.803  21.494  10.964  0.00  0.00    +0.151 C 
BRANCH  10  11
ATOM     11  C   UNL     1      11.182  21.341   9.603  0.00  0.00    -0.028 A 
ATOM     12  C   UNL     1      10.422  20.204   9.291  0.00  0.00    +0.005 A 
ATOM     13  C   UNL     1      11.344  22.332   8.623  0.00  0.00    +0.005 A 
ATOM     14  C   UNL     1       9.819  20.075   8.038  0.00  0.00    +0.000 A 
ATOM     15  C   UNL     1      10.742  22.199   7.372  0.00  0.00    +0.000 A 
ATOM     16  C   UNL     1       9.977  21.072   7.081  0.00  0.00    +0.000 A 
ENDBRANCH  10  11
ENDBRANCH   1  10
TORSDOF 2
ENDMDL
MODEL 9
REMARK VINA RESULT:    -4.204      3.164      4.803
REMARK INTER + INTRA:          -4.813
REMARK INTER:                  -4.684
REMARK INTRA:                  -0.129
REMARK UNBOUND:                -0.117
REMARK  Name = 1550473
REMARK  2 active torsions:
REMARK  status: ('A' for Active; 'I' for Inactive)
REMARK    1  A    between atoms: N_1  and  C_4
REMARK    2  A    between atoms: C_4  and  C_5
REMARK                            x       y       z     vdW  Elec       q    Type
REMARK                         _______ _______ _______ _____ _____    ______ ____
ROOT
ATOM      1  N   UNL     1      -7.534  -2.896  -4.350  0.00  0.00    -0.354 N 
ATOM      2  N   UNL     1      -7.816  -0.634  -4.760  0.00  0.00    -0.372 N 
ATOM      3  N   UNL     1      -5.694  -1.448  -4.451  0.00  0.00    -0.372 N 
ATOM      4  C   UNL     1      -7.010  -1.674  -4.517  0.00  0.00    +0.166 C 
ATOM      5  H   UNL     1      -8.542  -2.996  -4.382  0.00  0.00    +0.163 HD
ATOM      6  H   UNL     1      -7.449   0.299  -4.893  0.00  0.00    +0.159 HD
ATOM      7  H   UNL     1      -8.820  -0.744  -4.837  0.00  0.00    +0.159 HD
ATOM      8  H   UNL     1      -5.032  -2.190  -4.265  0.00  0.00    +0.159 HD
ATOM      9  H   UNL     1      -5.308  -0.520  -4.570  0.00  0.00    +0.159 HD
ENDROOT
BRANCH   1  10
ATOM     10  C   UNL     1      -6.739  -4.104  -4.135  0.00  0.00    +0.151 C 
BRANCH  10  11
ATOM     11  C   UNL     1      -7.532  -5.071  -3.299  0.00  0.00    -0.028 A 
ATOM     12  C   UNL     1      -8.441  -4.603  -2.339  0.00  0.00    +0.005 A 
ATOM     13  C   UNL     1      -7.383  -6.456  -3.467  0.00  0.00    +0.005 A 
ATOM     14  C   UNL     1      -9.199  -5.500  -1.583  0.00  0.00    +0.000 A 
ATOM     15  C   UNL     1      -8.142  -7.348  -2.709  0.00  0.00    +0.000 A 
ATOM     16  C   UNL     1      -9.051  -6.870  -1.770  0.00  0.00    +0.000 A 
ENDBRANCH  10  11
ENDBRANCH   1  10
TORSDOF 2
ENDMDL
