MODEL 1
REMARK VINA RESULT:    -6.746      0.000      0.000
REMARK INTER + INTRA:          -7.712
REMARK INTER:                  -7.535
REMARK INTRA:                  -0.177
REMARK UNBOUND:                -0.177
REMARK  Name = 1550473
REMARK  2 active torsions:
REMARK  status: ('A' for Active; 'I' for Inactive)
REMARK    1  A    between atoms: N_1  and  C_4
REMARK    2  A    between atoms: C_4  and  C_5
REMARK                            x       y       z     vdW  Elec       q    Type
REMARK                         _______ _______ _______ _____ _____    ______ ____
ROOT
ATOM      1  N   UNL     1       5.837   2.955   3.414  0.00  0.00    -0.354 N 
ATOM      2  N   UNL     1       3.726   2.517   2.567  0.00  0.00    -0.372 N 
ATOM      3  N   UNL     1       5.032   0.760   3.255  0.00  0.00    -0.372 N 
ATOM      4  C   UNL     1       4.880   2.078   3.085  0.00  0.00    +0.166 C 
ATOM      5  H   UNL     1       5.672   3.938   3.232  0.00  0.00    +0.163 HD
ATOM      6  H   UNL     1       2.984   1.879   2.312  0.00  0.00    +0.159 HD
ATOM      7  H   UNL     1       3.546   3.504   2.429  0.00  0.00    +0.159 HD
ATOM      8  H   UNL     1       5.881   0.364   3.635  0.00  0.00    +0.159 HD
ATOM      9  H   UNL     1       4.306   0.105   2.995  0.00  0.00    +0.159 HD
ENDROOT
BRANCH   1  10
ATOM     10  C   UNL     1       7.108   2.585   4.034  0.00  0.00    +0.151 C 
BRANCH  10  11
ATOM     11  C   UNL     1       8.201   2.676   3.005  0.00  0.00    -0.028 A 
ATOM     12  C   UNL     1       8.661   3.926   2.564  0.00  0.00    +0.005 A 
ATOM     13  C   UNL     1       8.786   1.517   2.472  0.00  0.00    +0.005 A 
ATOM     14  C   UNL     1       9.697   4.012   1.631  0.00  0.00    +0.000 A 
ATOM     15  C   UNL     1       9.819   1.608   1.539  0.00  0.00    +0.000 A 
ATOM     16  C   UNL     1      10.276   2.855   1.121  0.00  0.00    +0.000 A 
ENDBRANCH  10  11
ENDBRANCH   1  10
TORSDOF 2
ENDMDL
MODEL 2
REMARK VINA RESULT:    -6.626      2.965      4.458
REMARK INTER + INTRA:          -7.577
REMARK INTER:                  -7.441
REMARK INTRA:                  -0.136
REMARK UNBOUND:                -0.177
REMARK  Name = 1550473
REMARK  2 active torsions:
REMARK  status: ('A' for Active; 'I' for Inactive)
REMARK    1  A    between atoms: N_1  and  C_4
REMARK    2  A    between atoms: C_4  and  C_5
REMARK                            x       y       z     vdW  Elec       q    Type
REMARK                         _______ _______ _______ _____ _____    ______ ____
ROOT
ATOM      1  N   UNL     1       8.966   1.568   1.528  0.00  0.00    -0.354 N 
ATOM      2  N   UNL     1       9.702  -0.592   1.133  0.00  0.00    -0.372 N 
ATOM      3  N   UNL     1      11.238   1.112   1.182  0.00  0.00    -0.372 N 
ATOM      4  C   UNL     1       9.966   0.712   1.283  0.00  0.00    +0.166 C 
ATOM      5  H   UNL     1       8.020   1.206   1.563  0.00  0.00    +0.163 HD
ATOM      6  H   UNL     1      10.437  -1.262   0.951  0.00  0.00    +0.159 HD
ATOM      7  H   UNL     1       8.761  -0.957   1.214  0.00  0.00    +0.159 HD
ATOM      8  H   UNL     1      11.504   2.083   1.279  0.00  0.00    +0.159 HD
ATOM      9  H   UNL     1      11.986   0.458   0.988  0.00  0.00    +0.159 HD
ENDROOT
BRANCH   1  10
ATOM     10  C   UNL     1       9.153   2.999   1.760  0.00  0.00    +0.151 C 
BRANCH  10  11
ATOM     11  C   UNL     1       8.204   3.451   2.836  0.00  0.00    -0.028 A 
ATOM     12  C   UNL     1       7.974   4.817   3.055  0.00  0.00    +0.005 A 
ATOM     13  C   UNL     1       7.526   2.517   3.634  0.00  0.00    +0.005 A 
ATOM     14  C   UNL     1       7.070   5.236   4.034  0.00  0.00    +0.000 A 
ATOM     15  C   UNL     1       6.624   2.939   4.611  0.00  0.00    +0.000 A 
ATOM     16  C   UNL     1       6.395   4.299   4.809  0.00  0.00    +0.000 A 
ENDBRANCH  10  11
ENDBRANCH   1  10
TORSDOF 2
ENDMDL
MODEL 3
REMARK VINA RESULT:    -6.329      3.220      4.812
REMARK INTER + INTRA:          -7.246
REMARK INTER:                  -7.114
REMARK INTRA:                  -0.132
REMARK UNBOUND:                -0.177
REMARK  Name = 1550473
REMARK  2 active torsions:
REMARK  status: ('A' for Active; 'I' for Inactive)
REMARK    1  A    between atoms: N_1  and  C_4
REMARK    2  A    between atoms: C_4  and  C_5
REMARK                            x       y       z     vdW  Elec       q    Type
REMARK                         _______ _______ _______ _____ _____    ______ ____
ROOT
ATOM      1  N   UNL     1       9.389   2.267   1.014  0.00  0.00    -0.354 N 
ATOM      2  N   UNL     1      10.822   2.418  -0.799  0.00  0.00    -0.372 N 
ATOM      3  N   UNL     1      11.447   1.145   1.004  0.00  0.00    -0.372 N 
ATOM      4  C   UNL     1      10.545   1.941   0.420  0.00  0.00    +0.166 C 
ATOM      5  H   UNL     1       8.761   2.899   0.531  0.00  0.00    +0.163 HD
ATOM      6  H   UNL     1      11.685   2.187  -1.274  0.00  0.00    +0.159 HD
ATOM      7  H   UNL     1      10.172   3.013  -1.299  0.00  0.00    +0.159 HD
ATOM      8  H   UNL     1      11.301   0.757   1.927  0.00  0.00    +0.159 HD
ATOM      9  H   UNL     1      12.321   0.912   0.550  0.00  0.00    +0.159 HD
ENDROOT
BRANCH   1  10
ATOM     10  C   UNL     1       8.968   1.757   2.318  0.00  0.00    +0.151 C 
BRANCH  10  11
ATOM     11  C   UNL     1       8.160   2.813   3.020  0.00  0.00    -0.028 A 
ATOM     12  C   UNL     1       7.270   2.464   4.046  0.00  0.00    +0.005 A 
ATOM     13  C   UNL     1       8.285   4.166   2.668  0.00  0.00    +0.005 A 
ATOM     14  C   UNL     1       6.541   3.448   4.719  0.00  0.00    +0.000 A 
ATOM     15  C   UNL     1       7.555   5.145   3.342  0.00  0.00    +0.000 A 
ATOM     16  C   UNL     1       6.685   4.786   4.369  0.00  0.00    +0.000 A 
ENDBRANCH  10  11
ENDBRANCH   1  10
TORSDOF 2
ENDMDL
MODEL 4
REMARK VINA RESULT:    -5.947      1.581      2.707
REMARK INTER + INTRA:          -6.819
REMARK INTER:                  -6.664
REMARK INTRA:                  -0.155
REMARK UNBOUND:                -0.177
REMARK  Name = 1550473
REMARK  2 active torsions:
REMARK  status: ('A' for Active; 'I' for Inactive)
REMARK    1  A    between atoms: N_1  and  C_4
REMARK    2  A    between atoms: C_4  and  C_5
REMARK                            x       y       z     vdW  Elec       q    Type
REMARK                         _______ _______ _______ _____ _____    ______ ____
ROOT
ATOM      1  N   UNL     1       4.469   1.806   3.337  0.00  0.00    -0.354 N 
ATOM      2  N   UNL     1       2.184   2.164   3.211  0.00  0.00    -0.372 N 
ATOM      3  N   UNL     1       3.174   2.028   5.277  0.00  0.00    -0.372 N 
ATOM      4  C   UNL     1       3.291   1.997   3.945  0.00  0.00    +0.166 C 
ATOM      5  H   UNL     1       4.486   1.763   2.324  0.00  0.00    +0.163 HD
ATOM      6  H   UNL     1       1.282   2.313   3.643  0.00  0.00    +0.159 HD
ATOM      7  H   UNL     1       2.211   2.166   2.199  0.00  0.00    +0.159 HD
ATOM      8  H   UNL     1       3.970   1.902   5.888  0.00  0.00    +0.159 HD
ATOM      9  H   UNL     1       2.277   2.164   5.727  0.00  0.00    +0.159 HD
ENDROOT
BRANCH   1  10
ATOM     10  C   UNL     1       5.741   1.667   4.043  0.00  0.00    +0.151 C 
BRANCH  10  11
ATOM     11  C   UNL     1       6.637   2.816   3.671  0.00  0.00    -0.028 A 
ATOM     12  C   UNL     1       7.809   2.594   2.932  0.00  0.00    +0.005 A 
ATOM     13  C   UNL     1       6.318   4.129   4.049  0.00  0.00    +0.005 A 
ATOM     14  C   UNL     1       8.626   3.665   2.560  0.00  0.00    +0.000 A 
ATOM     15  C   UNL     1       7.137   5.195   3.677  0.00  0.00    +0.000 A 
ATOM     16  C   UNL     1       8.290   4.962   2.930  0.00  0.00    +0.000 A 
ENDBRANCH  10  11
ENDBRANCH   1  10
TORSDOF 2
ENDMDL
MODEL 5
REMARK VINA RESULT:    -5.578      2.870      4.982
REMARK INTER + INTRA:          -6.407
REMARK INTER:                  -6.302
REMARK INTRA:                  -0.105
REMARK UNBOUND:                -0.177
REMARK  Name = 1550473
REMARK  2 active torsions:
REMARK  status: ('A' for Active; 'I' for Inactive)
REMARK    1  A    between atoms: N_1  and  C_4
REMARK    2  A    between atoms: C_4  and  C_5
REMARK                            x       y       z     vdW  Elec       q    Type
REMARK                         _______ _______ _______ _____ _____    ______ ____
ROOT
ATOM      1  N   UNL     1       9.256   3.105   1.985  0.00  0.00    -0.354 N 
ATOM      2  N   UNL     1      10.791   4.278   0.708  0.00  0.00    -0.372 N 
ATOM      3  N   UNL     1      11.021   2.004   0.906  0.00  0.00    -0.372 N 
ATOM      4  C   UNL     1      10.347   3.119   1.208  0.00  0.00    +0.166 C 
ATOM      5  H   UNL     1       8.807   3.988   2.202  0.00  0.00    +0.163 HD
ATOM      6  H   UNL     1      11.609   4.320   0.116  0.00  0.00    +0.159 HD
ATOM      7  H   UNL     1      10.314   5.154   0.889  0.00  0.00    +0.159 HD
ATOM      8  H   UNL     1      10.741   1.098   1.256  0.00  0.00    +0.159 HD
ATOM      9  H   UNL     1      11.849   2.026   0.325  0.00  0.00    +0.159 HD
ENDROOT
BRANCH   1  10
ATOM     10  C   UNL     1       8.659   1.889   2.536  0.00  0.00    +0.151 C 
BRANCH  10  11
ATOM     11  C   UNL     1       7.344   2.234   3.179  0.00  0.00    -0.028 A 
ATOM     12  C   UNL     1       6.199   1.471   2.911  0.00  0.00    +0.005 A 
ATOM     13  C   UNL     1       7.239   3.320   4.062  0.00  0.00    +0.005 A 
ATOM     14  C   UNL     1       4.984   1.773   3.532  0.00  0.00    +0.000 A 
ATOM     15  C   UNL     1       6.025   3.619   4.678  0.00  0.00    +0.000 A 
ATOM     16  C   UNL     1       4.898   2.844   4.415  0.00  0.00    +0.000 A 
ENDBRANCH  10  11
ENDBRANCH   1  10
TORSDOF 2
ENDMDL
MODEL 6
REMARK VINA RESULT:    -5.510      3.614      5.268
REMARK INTER + INTRA:          -6.332
REMARK INTER:                  -6.238
REMARK INTRA:                  -0.093
REMARK UNBOUND:                -0.177
REMARK  Name = 1550473
REMARK  2 active torsions:
REMARK  status: ('A' for Active; 'I' for Inactive)
REMARK    1  A    between atoms: N_1  and  C_4
REMARK    2  A    between atoms: C_4  and  C_5
REMARK                            x       y       z     vdW  Elec       q    Type
REMARK                         _______ _______ _______ _____ _____    ______ ____
ROOT
ATOM      1  N   UNL     1       7.669   7.344   3.174  0.00  0.00    -0.354 N 
ATOM      2  N   UNL     1       7.194   9.280   4.353  0.00  0.00    -0.372 N 
ATOM      3  N   UNL     1       9.194   8.218   4.723  0.00  0.00    -0.372 N 
ATOM      4  C   UNL     1       8.025   8.267   4.077  0.00  0.00    +0.166 C 
ATOM      5  H   UNL     1       6.756   7.422   2.741  0.00  0.00    +0.163 HD
ATOM      6  H   UNL     1       7.437   9.994   5.028  0.00  0.00    +0.159 HD
ATOM      7  H   UNL     1       6.302   9.380   3.885  0.00  0.00    +0.159 HD
ATOM      8  H   UNL     1       9.863   7.476   4.565  0.00  0.00    +0.159 HD
ATOM      9  H   UNL     1       9.450   8.916   5.410  0.00  0.00    +0.159 HD
ENDROOT
BRANCH   1  10
ATOM     10  C   UNL     1       8.522   6.232   2.762  0.00  0.00    +0.151 C 
BRANCH  10  11
ATOM     11  C   UNL     1       7.939   4.946   3.280  0.00  0.00    -0.028 A 
ATOM     12  C   UNL     1       8.438   3.710   2.843  0.00  0.00    +0.005 A 
ATOM     13  C   UNL     1       6.890   4.957   4.212  0.00  0.00    +0.005 A 
ATOM     14  C   UNL     1       7.917   2.516   3.347  0.00  0.00    +0.000 A 
ATOM     15  C   UNL     1       6.371   3.763   4.712  0.00  0.00    +0.000 A 
ATOM     16  C   UNL     1       6.887   2.543   4.281  0.00  0.00    +0.000 A 
ENDBRANCH  10  11
ENDBRANCH   1  10
TORSDOF 2
ENDMDL
MODEL 7
REMARK VINA RESULT:    -5.156     17.007     18.421
REMARK INTER + INTRA:          -5.936
REMARK INTER:                  -5.805
REMARK INTRA:                  -0.132
REMARK UNBOUND:                -0.177
REMARK  Name = 1550473
REMARK  2 active torsions:
REMARK  status: ('A' for Active; 'I' for Inactive)
REMARK    1  A    between atoms: N_1  and  C_4
REMARK    2  A    between atoms: C_4  and  C_5
REMARK                            x       y       z     vdW  Elec       q    Type
REMARK                         _______ _______ _______ _____ _____    ______ ____
ROOT
ATOM      1  N   UNL     1      -3.429 -10.328  -4.108  0.00  0.00    -0.354 N 
ATOM      2  N   UNL     1      -2.348 -11.395  -2.360  0.00  0.00    -0.372 N 
ATOM      3  N   UNL     1      -4.386 -12.188  -3.052  0.00  0.00    -0.372 N 
ATOM      4  C   UNL     1      -3.397 -11.298  -3.185  0.00  0.00    +0.166 C 
ATOM      5  H   UNL     1      -2.662  -9.666  -4.138  0.00  0.00    +0.163 HD
ATOM      6  H   UNL     1      -2.294 -12.118  -1.655  0.00  0.00    +0.159 HD
ATOM      7  H   UNL     1      -1.561 -10.760  -2.421  0.00  0.00    +0.159 HD
ATOM      8  H   UNL     1      -5.209 -12.166  -3.640  0.00  0.00    +0.159 HD
ATOM      9  H   UNL     1      -4.357 -12.912  -2.346  0.00  0.00    +0.159 HD
ENDROOT
BRANCH   1  10
ATOM     10  C   UNL     1      -4.500 -10.168  -5.090  0.00  0.00    +0.151 C 
BRANCH  10  11
ATOM     11  C   UNL     1      -4.753  -8.702  -5.307  0.00  0.00    -0.028 A 
ATOM     12  C   UNL     1      -5.927  -8.268  -5.939  0.00  0.00    +0.005 A 
ATOM     13  C   UNL     1      -3.824  -7.741  -4.878  0.00  0.00    +0.005 A 
ATOM     14  C   UNL     1      -6.176  -6.904  -6.114  0.00  0.00    +0.000 A 
ATOM     15  C   UNL     1      -4.076  -6.381  -5.056  0.00  0.00    +0.000 A 
ATOM     16  C   UNL     1      -5.253  -5.963  -5.671  0.00  0.00    +0.000 A 
ENDBRANCH  10  11
ENDBRANCH   1  10
TORSDOF 2
ENDMDL
MODEL 8
REMARK VINA RESULT:    -5.146     19.666     20.854
REMARK INTER + INTRA:          -5.924
REMARK INTER:                  -5.763
REMARK INTRA:                  -0.161
REMARK UNBOUND:                -0.177
REMARK  Name = 1550473
REMARK  2 active torsions:
REMARK  status: ('A' for Active; 'I' for Inactive)
REMARK    1  A    between atoms: N_1  and  C_4
REMARK    2  A    between atoms: C_4  and  C_5
REMARK                            x       y       z     vdW  Elec       q    Type
REMARK                         _______ _______ _______ _____ _____    ______ ____
ROOT
ATOM      1  N   UNL     1      -2.611   2.062 -13.211  0.00  0.00    -0.354 N 
ATOM      2  N   UNL     1      -2.437   3.977 -11.920  0.00  0.00    -0.372 N 
ATOM      3  N   UNL     1      -0.696   3.409 -13.302  0.00  0.00    -0.372 N 
ATOM      4  C   UNL     1      -1.913   3.137 -12.821  0.00  0.00    +0.166 C 
ATOM      5  H   UNL     1      -3.516   1.895 -12.786  0.00  0.00    +0.163 HD
ATOM      6  H   UNL     1      -1.936   4.798 -11.609  0.00  0.00    +0.159 HD
ATOM      7  H   UNL     1      -3.361   3.833 -11.531  0.00  0.00    +0.159 HD
ATOM      8  H   UNL     1      -0.242   2.811 -13.980  0.00  0.00    +0.159 HD
ATOM      9  H   UNL     1      -0.173   4.220 -12.994  0.00  0.00    +0.159 HD
ENDROOT
BRANCH   1  10
ATOM     10  C   UNL     1      -2.153   1.114 -14.225  0.00  0.00    +0.151 C 
BRANCH  10  11
ATOM     11  C   UNL     1      -3.018   1.248 -15.448  0.00  0.00    -0.028 A 
ATOM     12  C   UNL     1      -4.332   0.756 -15.448  0.00  0.00    +0.005 A 
ATOM     13  C   UNL     1      -2.532   1.870 -16.608  0.00  0.00    +0.005 A 
ATOM     14  C   UNL     1      -5.146   0.907 -16.574  0.00  0.00    +0.000 A 
ATOM     15  C   UNL     1      -3.348   2.018 -17.730  0.00  0.00    +0.000 A 
ATOM     16  C   UNL     1      -4.655   1.539 -17.711  0.00  0.00    +0.000 A 
ENDBRANCH  10  11
ENDBRANCH   1  10
TORSDOF 2
ENDMDL
MODEL 9
REMARK VINA RESULT:    -5.118      3.215      4.292
REMARK INTER + INTRA:          -5.893
REMARK INTER:                  -5.764
REMARK INTRA:                  -0.129
REMARK UNBOUND:                -0.177
REMARK  Name = 1550473
REMARK  2 active torsions:
REMARK  status: ('A' for Active; 'I' for Inactive)
REMARK    1  A    between atoms: N_1  and  C_4
REMARK    2  A    between atoms: C_4  and  C_5
REMARK                            x       y       z     vdW  Elec       q    Type
REMARK                         _______ _______ _______ _____ _____    ______ ____
ROOT
ATOM      1  N   UNL     1       8.478   6.388   2.845  0.00  0.00    -0.354 N 
ATOM      2  N   UNL     1       9.265   8.516   3.310  0.00  0.00    -0.372 N 
ATOM      3  N   UNL     1       7.805   7.528   4.779  0.00  0.00    -0.372 N 
ATOM      4  C   UNL     1       8.509   7.463   3.644  0.00  0.00    +0.166 C 
ATOM      5  H   UNL     1       9.010   6.413   1.983  0.00  0.00    +0.163 HD
ATOM      6  H   UNL     1       9.311   9.340   3.895  0.00  0.00    +0.159 HD
ATOM      7  H   UNL     1       9.832   8.520   2.471  0.00  0.00    +0.159 HD
ATOM      8  H   UNL     1       7.211   6.769   5.085  0.00  0.00    +0.159 HD
ATOM      9  H   UNL     1       7.829   8.348   5.372  0.00  0.00    +0.159 HD
ENDROOT
BRANCH   1  10
ATOM     10  C   UNL     1       7.729   5.168   3.145  0.00  0.00    +0.151 C 
BRANCH  10  11
ATOM     11  C   UNL     1       8.462   3.988   2.568  0.00  0.00    -0.028 A 
ATOM     12  C   UNL     1       9.512   4.177   1.658  0.00  0.00    +0.005 A 
ATOM     13  C   UNL     1       8.115   2.678   2.933  0.00  0.00    +0.005 A 
ATOM     14  C   UNL     1      10.212   3.083   1.145  0.00  0.00    +0.000 A 
ATOM     15  C   UNL     1       8.816   1.588   2.419  0.00  0.00    +0.000 A 
ATOM     16  C   UNL     1       9.866   1.791   1.527  0.00  0.00    +0.000 A 
ENDBRANCH  10  11
ENDBRANCH   1  10
TORSDOF 2
ENDMDL
