MODEL 1
REMARK VINA RESULT:    -6.308      0.000      0.000
REMARK INTER + INTRA:          -7.159
REMARK INTER:                  -7.046
REMARK INTRA:                  -0.113
REMARK UNBOUND:                -0.113
REMARK  Name = 1550473
REMARK  2 active torsions:
REMARK  status: ('A' for Active; 'I' for Inactive)
REMARK    1  A    between atoms: N_1  and  C_4
REMARK    2  A    between atoms: C_4  and  C_5
REMARK                            x       y       z     vdW  Elec       q    Type
REMARK                         _______ _______ _______ _____ _____    ______ ____
ROOT
ATOM      1  N   UNL     1     -12.263  -0.363  -3.575  0.00  0.00    -0.354 N 
ATOM      2  N   UNL     1     -13.539  -1.138  -5.346  0.00  0.00    -0.372 N 
ATOM      3  N   UNL     1     -11.692   0.149  -5.790  0.00  0.00    -0.372 N 
ATOM      4  C   UNL     1     -12.488  -0.444  -4.893  0.00  0.00    +0.166 C 
ATOM      5  H   UNL     1     -12.920  -0.810  -2.946  0.00  0.00    +0.163 HD
ATOM      6  H   UNL     1     -13.732  -1.220  -6.335  0.00  0.00    +0.159 HD
ATOM      7  H   UNL     1     -14.168  -1.622  -4.717  0.00  0.00    +0.159 HD
ATOM      8  H   UNL     1     -10.885   0.693  -5.513  0.00  0.00    +0.159 HD
ATOM      9  H   UNL     1     -11.876   0.089  -6.783  0.00  0.00    +0.159 HD
ENDROOT
BRANCH   1  10
ATOM     10  C   UNL     1     -11.116   0.323  -2.982  0.00  0.00    +0.151 C 
BRANCH  10  11
ATOM     11  C   UNL     1     -10.577  -0.509  -1.851  0.00  0.00    -0.028 A 
ATOM     12  C   UNL     1      -9.609  -1.495  -2.091  0.00  0.00    +0.005 A 
ATOM     13  C   UNL     1     -11.026  -0.313  -0.536  0.00  0.00    +0.005 A 
ATOM     14  C   UNL     1      -9.086  -2.248  -1.037  0.00  0.00    +0.000 A 
ATOM     15  C   UNL     1     -10.502  -1.067   0.514  0.00  0.00    +0.000 A 
ATOM     16  C   UNL     1      -9.531  -2.033   0.263  0.00  0.00    +0.000 A 
ENDBRANCH  10  11
ENDBRANCH   1  10
TORSDOF 2
ENDMDL
MODEL 2
REMARK VINA RESULT:    -6.152      3.368      5.102
REMARK INTER + INTRA:          -6.984
REMARK INTER:                  -6.855
REMARK INTRA:                  -0.129
REMARK UNBOUND:                -0.113
REMARK  Name = 1550473
REMARK  2 active torsions:
REMARK  status: ('A' for Active; 'I' for Inactive)
REMARK    1  A    between atoms: N_1  and  C_4
REMARK    2  A    between atoms: C_4  and  C_5
REMARK                            x       y       z     vdW  Elec       q    Type
REMARK                         _______ _______ _______ _____ _____    ______ ____
ROOT
ATOM      1  N   UNL     1     -11.304  -0.897   0.984  0.00  0.00    -0.354 N 
ATOM      2  N   UNL     1     -12.372  -0.073   2.867  0.00  0.00    -0.372 N 
ATOM      3  N   UNL     1     -10.296  -1.025   3.095  0.00  0.00    -0.372 N 
ATOM      4  C   UNL     1     -11.315  -0.672   2.304  0.00  0.00    +0.166 C 
ATOM      5  H   UNL     1     -12.120  -0.633   0.444  0.00  0.00    +0.163 HD
ATOM      6  H   UNL     1     -12.407   0.113   3.860  0.00  0.00    +0.159 HD
ATOM      7  H   UNL     1     -13.166   0.231   2.317  0.00  0.00    +0.159 HD
ATOM      8  H   UNL     1      -9.472  -1.485   2.734  0.00  0.00    +0.159 HD
ATOM      9  H   UNL     1     -10.318  -0.857   4.094  0.00  0.00    +0.159 HD
ENDROOT
BRANCH   1  10
ATOM     10  C   UNL     1     -10.180  -1.493   0.265  0.00  0.00    +0.151 C 
BRANCH  10  11
ATOM     11  C   UNL     1     -10.208  -1.028  -1.165  0.00  0.00    -0.028 A 
ATOM     12  C   UNL     1      -9.359  -1.607  -2.119  0.00  0.00    +0.005 A 
ATOM     13  C   UNL     1     -11.087  -0.013  -1.573  0.00  0.00    +0.005 A 
ATOM     14  C   UNL     1      -9.406  -1.197  -3.454  0.00  0.00    +0.000 A 
ATOM     15  C   UNL     1     -11.131   0.395  -2.906  0.00  0.00    +0.000 A 
ATOM     16  C   UNL     1     -10.292  -0.199  -3.847  0.00  0.00    +0.000 A 
ENDBRANCH  10  11
ENDBRANCH   1  10
TORSDOF 2
ENDMDL
MODEL 3
REMARK VINA RESULT:    -5.964      3.073      4.405
REMARK INTER + INTRA:          -6.775
REMARK INTER:                  -6.614
REMARK INTRA:                  -0.160
REMARK UNBOUND:                -0.113
REMARK  Name = 1550473
REMARK  2 active torsions:
REMARK  status: ('A' for Active; 'I' for Inactive)
REMARK    1  A    between atoms: N_1  and  C_4
REMARK    2  A    between atoms: C_4  and  C_5
REMARK                            x       y       z     vdW  Elec       q    Type
REMARK                         _______ _______ _______ _____ _____    ______ ____
ROOT
ATOM      1  N   UNL     1     -11.583  -1.879   0.916  0.00  0.00    -0.354 N 
ATOM      2  N   UNL     1     -12.961  -3.721   1.182  0.00  0.00    -0.372 N 
ATOM      3  N   UNL     1     -13.780  -1.871   0.100  0.00  0.00    -0.372 N 
ATOM      4  C   UNL     1     -12.767  -2.477   0.730  0.00  0.00    +0.166 C 
ATOM      5  H   UNL     1     -10.866  -2.380   1.428  0.00  0.00    +0.163 HD
ATOM      6  H   UNL     1     -13.842  -4.199   1.053  0.00  0.00    +0.159 HD
ATOM      7  H   UNL     1     -12.227  -4.237   1.652  0.00  0.00    +0.159 HD
ATOM      8  H   UNL     1     -13.700  -0.929  -0.260  0.00  0.00    +0.159 HD
ATOM      9  H   UNL     1     -14.674  -2.328  -0.028  0.00  0.00    +0.159 HD
ENDROOT
BRANCH   1  10
ATOM     10  C   UNL     1     -11.252  -0.546   0.416  0.00  0.00    +0.151 C 
BRANCH  10  11
ATOM     11  C   UNL     1     -10.669  -0.670  -0.965  0.00  0.00    -0.028 A 
ATOM     12  C   UNL     1     -11.183   0.089  -2.026  0.00  0.00    +0.005 A 
ATOM     13  C   UNL     1      -9.598  -1.541  -1.217  0.00  0.00    +0.005 A 
ATOM     14  C   UNL     1     -10.622  -0.004  -3.302  0.00  0.00    +0.000 A 
ATOM     15  C   UNL     1      -9.041  -1.632  -2.493  0.00  0.00    +0.000 A 
ATOM     16  C   UNL     1      -9.552  -0.861  -3.534  0.00  0.00    +0.000 A 
ENDBRANCH  10  11
ENDBRANCH   1  10
TORSDOF 2
ENDMDL
MODEL 4
REMARK VINA RESULT:    -5.790     23.459     25.054
REMARK INTER + INTRA:          -6.580
REMARK INTER:                  -6.446
REMARK INTRA:                  -0.134
REMARK UNBOUND:                -0.113
REMARK  Name = 1550473
REMARK  2 active torsions:
REMARK  status: ('A' for Active; 'I' for Inactive)
REMARK    1  A    between atoms: N_1  and  C_4
REMARK    2  A    between atoms: C_4  and  C_5
REMARK                            x       y       z     vdW  Elec       q    Type
REMARK                         _______ _______ _______ _____ _____    ______ ____
ROOT
ATOM      1  N   UNL     1       9.283   1.642  13.519  0.00  0.00    -0.354 N 
ATOM      2  N   UNL     1      11.254   1.111  12.425  0.00  0.00    -0.372 N 
ATOM      3  N   UNL     1      10.854   3.299  12.989  0.00  0.00    -0.372 N 
ATOM      4  C   UNL     1      10.451   2.024  12.985  0.00  0.00    +0.166 C 
ATOM      5  H   UNL     1       9.021   0.665  13.457  0.00  0.00    +0.163 HD
ATOM      6  H   UNL     1      12.143   1.368  12.017  0.00  0.00    +0.159 HD
ATOM      7  H   UNL     1      11.011   0.128  12.405  0.00  0.00    +0.159 HD
ATOM      8  H   UNL     1      10.292   4.037  13.391  0.00  0.00    +0.159 HD
ATOM      9  H   UNL     1      11.735   3.577  12.575  0.00  0.00    +0.159 HD
ENDROOT
BRANCH   1  10
ATOM     10  C   UNL     1       8.361   2.549  14.201  0.00  0.00    +0.151 C 
BRANCH  10  11
ATOM     11  C   UNL     1       6.948   2.148  13.877  0.00  0.00    -0.028 A 
ATOM     12  C   UNL     1       5.892   2.516  14.723  0.00  0.00    +0.005 A 
ATOM     13  C   UNL     1       6.659   1.405  12.723  0.00  0.00    +0.005 A 
ATOM     14  C   UNL     1       4.576   2.169  14.407  0.00  0.00    +0.000 A 
ATOM     15  C   UNL     1       5.344   1.060  12.411  0.00  0.00    +0.000 A 
ATOM     16  C   UNL     1       4.303   1.444  13.253  0.00  0.00    +0.000 A 
ENDBRANCH  10  11
ENDBRANCH   1  10
TORSDOF 2
ENDMDL
MODEL 5
REMARK VINA RESULT:    -5.533     22.830     24.154
REMARK INTER + INTRA:          -6.293
REMARK INTER:                  -6.135
REMARK INTRA:                  -0.158
REMARK UNBOUND:                -0.113
REMARK  Name = 1550473
REMARK  2 active torsions:
REMARK  status: ('A' for Active; 'I' for Inactive)
REMARK    1  A    between atoms: N_1  and  C_4
REMARK    2  A    between atoms: C_4  and  C_5
REMARK                            x       y       z     vdW  Elec       q    Type
REMARK                         _______ _______ _______ _____ _____    ______ ____
ROOT
ATOM      1  N   UNL     1       3.822   2.217  16.915  0.00  0.00    -0.354 N 
ATOM      2  N   UNL     1       3.541   0.832  18.749  0.00  0.00    -0.372 N 
ATOM      3  N   UNL     1       2.091   0.639  16.981  0.00  0.00    -0.372 N 
ATOM      4  C   UNL     1       3.151   1.238  17.535  0.00  0.00    +0.166 C 
ATOM      5  H   UNL     1       4.599   2.651  17.401  0.00  0.00    +0.163 HD
ATOM      6  H   UNL     1       3.056   0.093  19.240  0.00  0.00    +0.159 HD
ATOM      7  H   UNL     1       4.345   1.236  19.213  0.00  0.00    +0.159 HD
ATOM      8  H   UNL     1       1.742   0.903  16.069  0.00  0.00    +0.159 HD
ATOM      9  H   UNL     1       1.585  -0.094  17.462  0.00  0.00    +0.159 HD
ENDROOT
BRANCH   1  10
ATOM     10  C   UNL     1       3.512   2.696  15.569  0.00  0.00    +0.151 C 
BRANCH  10  11
ATOM     11  C   UNL     1       4.607   2.268  14.631  0.00  0.00    -0.028 A 
ATOM     12  C   UNL     1       5.947   2.566  14.918  0.00  0.00    +0.005 A 
ATOM     13  C   UNL     1       4.312   1.559  13.456  0.00  0.00    +0.005 A 
ATOM     14  C   UNL     1       6.967   2.143  14.062  0.00  0.00    +0.000 A 
ATOM     15  C   UNL     1       5.333   1.139  12.604  0.00  0.00    +0.000 A 
ATOM     16  C   UNL     1       6.661   1.429  12.909  0.00  0.00    +0.000 A 
ENDBRANCH  10  11
ENDBRANCH   1  10
TORSDOF 2
ENDMDL
MODEL 6
REMARK VINA RESULT:    -5.463     23.188     24.891
REMARK INTER + INTRA:          -6.215
REMARK INTER:                  -6.117
REMARK INTRA:                  -0.098
REMARK UNBOUND:                -0.113
REMARK  Name = 1550473
REMARK  2 active torsions:
REMARK  status: ('A' for Active; 'I' for Inactive)
REMARK    1  A    between atoms: N_1  and  C_4
REMARK    2  A    between atoms: C_4  and  C_5
REMARK                            x       y       z     vdW  Elec       q    Type
REMARK                         _______ _______ _______ _____ _____    ______ ____
ROOT
ATOM      1  N   UNL     1       4.378   2.402  17.195  0.00  0.00    -0.354 N 
ATOM      2  N   UNL     1       3.981   1.737  19.377  0.00  0.00    -0.372 N 
ATOM      3  N   UNL     1       5.108   3.701  19.004  0.00  0.00    -0.372 N 
ATOM      4  C   UNL     1       4.493   2.620  18.511  0.00  0.00    +0.166 C 
ATOM      5  H   UNL     1       3.927   1.549  16.886  0.00  0.00    +0.163 HD
ATOM      6  H   UNL     1       4.050   1.877  20.377  0.00  0.00    +0.159 HD
ATOM      7  H   UNL     1       3.491   0.908  19.065  0.00  0.00    +0.159 HD
ATOM      8  H   UNL     1       5.521   4.402  18.403  0.00  0.00    +0.159 HD
ATOM      9  H   UNL     1       5.197   3.852  20.001  0.00  0.00    +0.159 HD
ENDROOT
BRANCH   1  10
ATOM     10  C   UNL     1       4.854   3.328  16.168  0.00  0.00    +0.151 C 
BRANCH  10  11
ATOM     11  C   UNL     1       5.153   2.557  14.912  0.00  0.00    -0.028 A 
ATOM     12  C   UNL     1       6.475   2.398  14.472  0.00  0.00    +0.005 A 
ATOM     13  C   UNL     1       4.119   1.978  14.160  0.00  0.00    +0.005 A 
ATOM     14  C   UNL     1       6.756   1.657  13.322  0.00  0.00    +0.000 A 
ATOM     15  C   UNL     1       4.403   1.239  13.012  0.00  0.00    +0.000 A 
ATOM     16  C   UNL     1       5.722   1.076  12.595  0.00  0.00    +0.000 A 
ENDBRANCH  10  11
ENDBRANCH   1  10
TORSDOF 2
ENDMDL
MODEL 7
REMARK VINA RESULT:    -5.081     12.484     13.822
REMARK INTER + INTRA:          -5.788
REMARK INTER:                  -5.673
REMARK INTRA:                  -0.115
REMARK UNBOUND:                -0.113
REMARK  Name = 1550473
REMARK  2 active torsions:
REMARK  status: ('A' for Active; 'I' for Inactive)
REMARK    1  A    between atoms: N_1  and  C_4
REMARK    2  A    between atoms: C_4  and  C_5
REMARK                            x       y       z     vdW  Elec       q    Type
REMARK                         _______ _______ _______ _____ _____    ______ ____
ROOT
ATOM      1  N   UNL     1      -4.901  -6.317 -12.249  0.00  0.00    -0.354 N 
ATOM      2  N   UNL     1      -5.127  -7.189 -10.116  0.00  0.00    -0.372 N 
ATOM      3  N   UNL     1      -3.020  -6.811 -10.942  0.00  0.00    -0.372 N 
ATOM      4  C   UNL     1      -4.345  -6.767 -11.116  0.00  0.00    +0.166 C 
ATOM      5  H   UNL     1      -5.911  -6.338 -12.331  0.00  0.00    +0.163 HD
ATOM      6  H   UNL     1      -4.736  -7.531  -9.248  0.00  0.00    +0.159 HD
ATOM      7  H   UNL     1      -6.137  -7.166 -10.182  0.00  0.00    +0.159 HD
ATOM      8  H   UNL     1      -2.375  -6.513 -11.661  0.00  0.00    +0.159 HD
ATOM      9  H   UNL     1      -2.610  -7.161 -10.085  0.00  0.00    +0.159 HD
ENDROOT
BRANCH   1  10
ATOM     10  C   UNL     1      -4.140  -5.785 -13.378  0.00  0.00    +0.151 C 
BRANCH  10  11
ATOM     11  C   UNL     1      -4.890  -4.625 -13.973  0.00  0.00    -0.028 A 
ATOM     12  C   UNL     1      -4.215  -3.450 -14.335  0.00  0.00    +0.005 A 
ATOM     13  C   UNL     1      -6.276  -4.696 -14.182  0.00  0.00    +0.005 A 
ATOM     14  C   UNL     1      -4.906  -2.384 -14.915  0.00  0.00    +0.000 A 
ATOM     15  C   UNL     1      -6.963  -3.629 -14.761  0.00  0.00    +0.000 A 
ATOM     16  C   UNL     1      -6.278  -2.475 -15.129  0.00  0.00    +0.000 A 
ENDBRANCH  10  11
ENDBRANCH   1  10
TORSDOF 2
ENDMDL
MODEL 8
REMARK VINA RESULT:    -5.038     23.873     25.511
REMARK INTER + INTRA:          -5.740
REMARK INTER:                  -5.577
REMARK INTRA:                  -0.163
REMARK UNBOUND:                -0.113
REMARK  Name = 1550473
REMARK  2 active torsions:
REMARK  status: ('A' for Active; 'I' for Inactive)
REMARK    1  A    between atoms: N_1  and  C_4
REMARK    2  A    between atoms: C_4  and  C_5
REMARK                            x       y       z     vdW  Elec       q    Type
REMARK                         _______ _______ _______ _____ _____    ______ ____
ROOT
ATOM      1  N   UNL     1       8.313   1.713  16.002  0.00  0.00    -0.354 N 
ATOM      2  N   UNL     1       9.969   0.239  16.671  0.00  0.00    -0.372 N 
ATOM      3  N   UNL     1      10.372   1.626  14.888  0.00  0.00    -0.372 N 
ATOM      4  C   UNL     1       9.542   1.203  15.847  0.00  0.00    +0.166 C 
ATOM      5  H   UNL     1       7.720   1.328  16.729  0.00  0.00    +0.163 HD
ATOM      6  H   UNL     1      10.893  -0.163  16.580  0.00  0.00    +0.159 HD
ATOM      7  H   UNL     1       9.392  -0.112  17.425  0.00  0.00    +0.159 HD
ATOM      8  H   UNL     1      10.108   2.347  14.230  0.00  0.00    +0.159 HD
ATOM      9  H   UNL     1      11.296   1.228  14.774  0.00  0.00    +0.159 HD
ENDROOT
BRANCH   1  10
ATOM     10  C   UNL     1       7.771   2.803  15.192  0.00  0.00    +0.151 C 
BRANCH  10  11
ATOM     11  C   UNL     1       6.591   2.295  14.411  0.00  0.00    -0.028 A 
ATOM     12  C   UNL     1       6.778   1.637  13.186  0.00  0.00    +0.005 A 
ATOM     13  C   UNL     1       5.284   2.464  14.892  0.00  0.00    +0.005 A 
ATOM     14  C   UNL     1       5.684   1.138  12.475  0.00  0.00    +0.000 A 
ATOM     15  C   UNL     1       4.194   1.966  14.178  0.00  0.00    +0.000 A 
ATOM     16  C   UNL     1       4.395   1.301  12.971  0.00  0.00    +0.000 A 
ENDBRANCH  10  11
ENDBRANCH   1  10
TORSDOF 2
ENDMDL
MODEL 9
REMARK VINA RESULT:    -4.954     12.854     13.789
REMARK INTER + INTRA:          -5.647
REMARK INTER:                  -5.481
REMARK INTRA:                  -0.165
REMARK UNBOUND:                -0.113
REMARK  Name = 1550473
REMARK  2 active torsions:
REMARK  status: ('A' for Active; 'I' for Inactive)
REMARK    1  A    between atoms: N_1  and  C_4
REMARK    2  A    between atoms: C_4  and  C_5
REMARK                            x       y       z     vdW  Elec       q    Type
REMARK                         _______ _______ _______ _____ _____    ______ ____
ROOT
ATOM      1  N   UNL     1      -5.288  -4.781 -13.568  0.00  0.00    -0.354 N 
ATOM      2  N   UNL     1      -3.784  -4.238 -11.893  0.00  0.00    -0.372 N 
ATOM      3  N   UNL     1      -3.455  -3.386 -13.997  0.00  0.00    -0.372 N 
ATOM      4  C   UNL     1      -4.184  -4.137 -13.166  0.00  0.00    +0.166 C 
ATOM      5  H   UNL     1      -5.780  -5.359 -12.897  0.00  0.00    +0.163 HD
ATOM      6  H   UNL     1      -2.957  -3.761 -11.559  0.00  0.00    +0.159 HD
ATOM      7  H   UNL     1      -4.303  -4.779 -11.212  0.00  0.00    +0.159 HD
ATOM      8  H   UNL     1      -3.700  -3.273 -14.972  0.00  0.00    +0.159 HD
ATOM      9  H   UNL     1      -2.617  -2.910 -13.685  0.00  0.00    +0.159 HD
ENDROOT
BRANCH   1  10
ATOM     10  C   UNL     1      -5.839  -4.693 -14.920  0.00  0.00    +0.151 C 
BRANCH  10  11
ATOM     11  C   UNL     1      -6.880  -3.608 -14.956  0.00  0.00    -0.028 A 
ATOM     12  C   UNL     1      -8.164  -3.836 -14.442  0.00  0.00    +0.005 A 
ATOM     13  C   UNL     1      -6.586  -2.348 -15.500  0.00  0.00    +0.005 A 
ATOM     14  C   UNL     1      -9.122  -2.819 -14.449  0.00  0.00    +0.000 A 
ATOM     15  C   UNL     1      -7.545  -1.336 -15.505  0.00  0.00    +0.000 A 
ATOM     16  C   UNL     1      -8.812  -1.571 -14.978  0.00  0.00    +0.000 A 
ENDBRANCH  10  11
ENDBRANCH   1  10
TORSDOF 2
ENDMDL
