MODEL 1
REMARK VINA RESULT:    -5.973      0.000      0.000
REMARK INTER + INTRA:          -6.837
REMARK INTER:                  -6.672
REMARK INTRA:                  -0.165
REMARK UNBOUND:                -0.165
REMARK  Name = 1550473
REMARK  2 active torsions:
REMARK  status: ('A' for Active; 'I' for Inactive)
REMARK    1  A    between atoms: N_1  and  C_4
REMARK    2  A    between atoms: C_4  and  C_5
REMARK                            x       y       z     vdW  Elec       q    Type
REMARK                         _______ _______ _______ _____ _____    ______ ____
ROOT
ATOM      1  N   UNL     1       4.749 -10.779 -21.921  0.00  0.00    -0.354 N 
ATOM      2  N   UNL     1       4.820 -12.957 -22.706  0.00  0.00    -0.372 N 
ATOM      3  N   UNL     1       2.822 -12.112 -21.959  0.00  0.00    -0.372 N 
ATOM      4  C   UNL     1       4.127 -11.935 -22.189  0.00  0.00    +0.166 C 
ATOM      5  H   UNL     1       5.747 -10.719 -22.091  0.00  0.00    +0.163 HD
ATOM      6  H   UNL     1       4.377 -13.840 -22.923  0.00  0.00    +0.159 HD
ATOM      7  H   UNL     1       5.808 -12.878 -22.918  0.00  0.00    +0.159 HD
ATOM      8  H   UNL     1       2.244 -11.381 -21.564  0.00  0.00    +0.159 HD
ATOM      9  H   UNL     1       2.363 -12.992 -22.158  0.00  0.00    +0.159 HD
ENDROOT
BRANCH   1  10
ATOM     10  C   UNL     1       4.076  -9.588 -21.407  0.00  0.00    +0.151 C 
BRANCH  10  11
ATOM     11  C   UNL     1       4.232  -9.542 -19.912  0.00  0.00    -0.028 A 
ATOM     12  C   UNL     1       3.146  -9.199 -19.093  0.00  0.00    +0.005 A 
ATOM     13  C   UNL     1       5.461  -9.846 -19.308  0.00  0.00    +0.005 A 
ATOM     14  C   UNL     1       3.282  -9.185 -17.703  0.00  0.00    +0.000 A 
ATOM     15  C   UNL     1       5.593  -9.830 -17.920  0.00  0.00    +0.000 A 
ATOM     16  C   UNL     1       4.503  -9.502 -17.117  0.00  0.00    +0.000 A 
ENDBRANCH  10  11
ENDBRANCH   1  10
TORSDOF 2
ENDMDL
MODEL 2
REMARK VINA RESULT:    -5.731      4.148      5.306
REMARK INTER + INTRA:          -6.565
REMARK INTER:                  -6.445
REMARK INTRA:                  -0.120
REMARK UNBOUND:                -0.165
REMARK  Name = 1550473
REMARK  2 active torsions:
REMARK  status: ('A' for Active; 'I' for Inactive)
REMARK    1  A    between atoms: N_1  and  C_4
REMARK    2  A    between atoms: C_4  and  C_5
REMARK                            x       y       z     vdW  Elec       q    Type
REMARK                         _______ _______ _______ _____ _____    ______ ____
ROOT
ATOM      1  N   UNL     1       9.229  -9.453 -18.856  0.00  0.00    -0.354 N 
ATOM      2  N   UNL     1      11.448  -8.793 -18.890  0.00  0.00    -0.372 N 
ATOM      3  N   UNL     1      10.878 -10.706 -17.759  0.00  0.00    -0.372 N 
ATOM      4  C   UNL     1      10.504  -9.657 -18.500  0.00  0.00    +0.166 C 
ATOM      5  H   UNL     1       9.006  -8.623 -19.392  0.00  0.00    +0.163 HD
ATOM      6  H   UNL     1      12.420  -8.922 -18.639  0.00  0.00    +0.159 HD
ATOM      7  H   UNL     1      11.230  -7.988 -19.464  0.00  0.00    +0.159 HD
ATOM      8  H   UNL     1      10.213 -11.392 -17.428  0.00  0.00    +0.159 HD
ATOM      9  H   UNL     1      11.843 -10.847 -17.488  0.00  0.00    +0.159 HD
ENDROOT
BRANCH   1  10
ATOM     10  C   UNL     1       8.133 -10.363 -18.528  0.00  0.00    +0.151 C 
BRANCH  10  11
ATOM     11  C   UNL     1       6.839  -9.598 -18.538  0.00  0.00    -0.028 A 
ATOM     12  C   UNL     1       5.755 -10.022 -17.756  0.00  0.00    +0.005 A 
ATOM     13  C   UNL     1       6.692  -8.444 -19.323  0.00  0.00    +0.005 A 
ATOM     14  C   UNL     1       4.562  -9.294 -17.741  0.00  0.00    +0.000 A 
ATOM     15  C   UNL     1       5.500  -7.720 -19.306  0.00  0.00    +0.000 A 
ATOM     16  C   UNL     1       4.436  -8.144 -18.514  0.00  0.00    +0.000 A 
ENDBRANCH  10  11
ENDBRANCH   1  10
TORSDOF 2
ENDMDL
MODEL 3
REMARK VINA RESULT:    -5.672     17.916     19.253
REMARK INTER + INTRA:          -6.500
REMARK INTER:                  -6.389
REMARK INTRA:                  -0.111
REMARK UNBOUND:                -0.165
REMARK  Name = 1550473
REMARK  2 active torsions:
REMARK  status: ('A' for Active; 'I' for Inactive)
REMARK    1  A    between atoms: N_1  and  C_4
REMARK    2  A    between atoms: C_4  and  C_5
REMARK                            x       y       z     vdW  Elec       q    Type
REMARK                         _______ _______ _______ _____ _____    ______ ____
ROOT
ATOM      1  N   UNL     1       4.230   2.712  -5.000  0.00  0.00    -0.354 N 
ATOM      2  N   UNL     1       2.882   1.226  -3.843  0.00  0.00    -0.372 N 
ATOM      3  N   UNL     1       1.927   3.086  -4.787  0.00  0.00    -0.372 N 
ATOM      4  C   UNL     1       3.020   2.353  -4.551  0.00  0.00    +0.166 C 
ATOM      5  H   UNL     1       5.024   2.129  -4.762  0.00  0.00    +0.163 HD
ATOM      6  H   UNL     1       1.981   0.928  -3.494  0.00  0.00    +0.159 HD
ATOM      7  H   UNL     1       3.670   0.621  -3.645  0.00  0.00    +0.159 HD
ATOM      8  H   UNL     1       1.964   3.950  -5.311  0.00  0.00    +0.159 HD
ATOM      9  H   UNL     1       1.018   2.810  -4.437  0.00  0.00    +0.159 HD
ENDROOT
BRANCH   1  10
ATOM     10  C   UNL     1       4.479   3.892  -5.826  0.00  0.00    +0.151 C 
BRANCH  10  11
ATOM     11  C   UNL     1       4.898   3.449  -7.201  0.00  0.00    -0.028 A 
ATOM     12  C   UNL     1       4.140   2.503  -7.907  0.00  0.00    +0.005 A 
ATOM     13  C   UNL     1       6.050   3.976  -7.806  0.00  0.00    +0.005 A 
ATOM     14  C   UNL     1       4.513   2.114  -9.196  0.00  0.00    +0.000 A 
ATOM     15  C   UNL     1       6.418   3.585  -9.093  0.00  0.00    +0.000 A 
ATOM     16  C   UNL     1       5.648   2.655  -9.788  0.00  0.00    +0.000 A 
ENDBRANCH  10  11
ENDBRANCH   1  10
TORSDOF 2
ENDMDL
MODEL 4
REMARK VINA RESULT:    -5.550     17.697     19.229
REMARK INTER + INTRA:          -6.364
REMARK INTER:                  -6.258
REMARK INTRA:                  -0.106
REMARK UNBOUND:                -0.165
REMARK  Name = 1550473
REMARK  2 active torsions:
REMARK  status: ('A' for Active; 'I' for Inactive)
REMARK    1  A    between atoms: N_1  and  C_4
REMARK    2  A    between atoms: C_4  and  C_5
REMARK                            x       y       z     vdW  Elec       q    Type
REMARK                         _______ _______ _______ _____ _____    ______ ____
ROOT
ATOM      1  N   UNL     1       2.611   2.653  -5.709  0.00  0.00    -0.354 N 
ATOM      2  N   UNL     1       2.270   3.782  -3.716  0.00  0.00    -0.372 N 
ATOM      3  N   UNL     1       3.546   1.875  -3.706  0.00  0.00    -0.372 N 
ATOM      4  C   UNL     1       2.813   2.760  -4.389  0.00  0.00    +0.166 C 
ATOM      5  H   UNL     1       2.020   3.340  -6.163  0.00  0.00    +0.163 HD
ATOM      6  H   UNL     1       2.408   3.891  -2.720  0.00  0.00    +0.159 HD
ATOM      7  H   UNL     1       1.718   4.492  -4.180  0.00  0.00    +0.159 HD
ATOM      8  H   UNL     1       3.978   1.078  -4.155  0.00  0.00    +0.159 HD
ATOM      9  H   UNL     1       3.686   1.960  -2.707  0.00  0.00    +0.159 HD
ENDROOT
BRANCH   1  10
ATOM     10  C   UNL     1       3.201   1.608  -6.544  0.00  0.00    +0.151 C 
BRANCH  10  11
ATOM     11  C   UNL     1       4.178   2.236  -7.500  0.00  0.00    -0.028 A 
ATOM     12  C   UNL     1       5.090   3.203  -7.053  0.00  0.00    +0.005 A 
ATOM     13  C   UNL     1       4.200   1.865  -8.853  0.00  0.00    +0.005 A 
ATOM     14  C   UNL     1       6.017   3.765  -7.933  0.00  0.00    +0.000 A 
ATOM     15  C   UNL     1       5.126   2.429  -9.730  0.00  0.00    +0.000 A 
ATOM     16  C   UNL     1       6.036   3.377  -9.269  0.00  0.00    +0.000 A 
ENDBRANCH  10  11
ENDBRANCH   1  10
TORSDOF 2
ENDMDL
MODEL 5
REMARK VINA RESULT:    -5.533      6.985      8.401
REMARK INTER + INTRA:          -6.344
REMARK INTER:                  -6.170
REMARK INTRA:                  -0.175
REMARK UNBOUND:                -0.165
REMARK  Name = 1550473
REMARK  2 active torsions:
REMARK  status: ('A' for Active; 'I' for Inactive)
REMARK    1  A    between atoms: N_1  and  C_4
REMARK    2  A    between atoms: C_4  and  C_5
REMARK                            x       y       z     vdW  Elec       q    Type
REMARK                         _______ _______ _______ _____ _____    ______ ____
ROOT
ATOM      1  N   UNL     1      11.062 -10.691 -17.600  0.00  0.00    -0.354 N 
ATOM      2  N   UNL     1      12.824  -9.195 -17.452  0.00  0.00    -0.372 N 
ATOM      3  N   UNL     1      11.676  -9.365 -19.432  0.00  0.00    -0.372 N 
ATOM      4  C   UNL     1      11.842  -9.760 -18.165  0.00  0.00    +0.166 C 
ATOM      5  H   UNL     1      11.259 -10.969 -16.645  0.00  0.00    +0.163 HD
ATOM      6  H   UNL     1      13.426  -8.487 -17.851  0.00  0.00    +0.159 HD
ATOM      7  H   UNL     1      12.989  -9.441 -16.484  0.00  0.00    +0.159 HD
ATOM      8  H   UNL     1      10.956  -9.756 -20.025  0.00  0.00    +0.159 HD
ATOM      9  H   UNL     1      12.276  -8.666 -19.852  0.00  0.00    +0.159 HD
ENDROOT
BRANCH   1  10
ATOM     10  C   UNL     1       9.932 -11.329 -18.272  0.00  0.00    +0.151 C 
BRANCH  10  11
ATOM     11  C   UNL     1      10.283 -12.760 -18.574  0.00  0.00    -0.028 A 
ATOM     12  C   UNL     1      10.966 -13.091 -19.753  0.00  0.00    +0.005 A 
ATOM     13  C   UNL     1       9.941 -13.788 -17.682  0.00  0.00    +0.005 A 
ATOM     14  C   UNL     1      11.319 -14.416 -20.020  0.00  0.00    +0.000 A 
ATOM     15  C   UNL     1      10.295 -15.109 -17.952  0.00  0.00    +0.000 A 
ATOM     16  C   UNL     1      10.986 -15.423 -19.120  0.00  0.00    +0.000 A 
ENDBRANCH  10  11
ENDBRANCH   1  10
TORSDOF 2
ENDMDL
MODEL 6
REMARK VINA RESULT:    -5.504      3.048      4.300
REMARK INTER + INTRA:          -6.313
REMARK INTER:                  -6.190
REMARK INTRA:                  -0.123
REMARK UNBOUND:                -0.165
REMARK  Name = 1550473
REMARK  2 active torsions:
REMARK  status: ('A' for Active; 'I' for Inactive)
REMARK    1  A    between atoms: N_1  and  C_4
REMARK    2  A    between atoms: C_4  and  C_5
REMARK                            x       y       z     vdW  Elec       q    Type
REMARK                         _______ _______ _______ _____ _____    ______ ____
ROOT
ATOM      1  N   UNL     1       7.701 -10.657 -19.144  0.00  0.00    -0.354 N 
ATOM      2  N   UNL     1       9.617 -11.568 -20.073  0.00  0.00    -0.372 N 
ATOM      3  N   UNL     1       9.753 -10.561 -18.016  0.00  0.00    -0.372 N 
ATOM      4  C   UNL     1       9.012 -10.922 -19.069  0.00  0.00    +0.166 C 
ATOM      5  H   UNL     1       7.202 -10.930 -19.983  0.00  0.00    +0.163 HD
ATOM      6  H   UNL     1      10.604 -11.785 -20.043  0.00  0.00    +0.159 HD
ATOM      7  H   UNL     1       9.106 -11.881 -20.890  0.00  0.00    +0.159 HD
ATOM      8  H   UNL     1       9.358 -10.066 -17.228  0.00  0.00    +0.159 HD
ATOM      9  H   UNL     1      10.745 -10.759 -17.973  0.00  0.00    +0.159 HD
ENDROOT
BRANCH   1  10
ATOM     10  C   UNL     1       6.936 -10.006 -18.082  0.00  0.00    +0.151 C 
BRANCH  10  11
ATOM     11  C   UNL     1       5.544  -9.730 -18.578  0.00  0.00    -0.028 A 
ATOM     12  C   UNL     1       5.247  -9.806 -19.947  0.00  0.00    +0.005 A 
ATOM     13  C   UNL     1       4.515  -9.396 -17.684  0.00  0.00    +0.005 A 
ATOM     14  C   UNL     1       3.947  -9.579 -20.405  0.00  0.00    +0.000 A 
ATOM     15  C   UNL     1       3.219  -9.168 -18.145  0.00  0.00    +0.000 A 
ATOM     16  C   UNL     1       2.935  -9.262 -19.505  0.00  0.00    +0.000 A 
ENDBRANCH  10  11
ENDBRANCH   1  10
TORSDOF 2
ENDMDL
MODEL 7
REMARK VINA RESULT:    -5.410      7.571      8.537
REMARK INTER + INTRA:          -6.207
REMARK INTER:                  -6.093
REMARK INTRA:                  -0.114
REMARK UNBOUND:                -0.165
REMARK  Name = 1550473
REMARK  2 active torsions:
REMARK  status: ('A' for Active; 'I' for Inactive)
REMARK    1  A    between atoms: N_1  and  C_4
REMARK    2  A    between atoms: C_4  and  C_5
REMARK                            x       y       z     vdW  Elec       q    Type
REMARK                         _______ _______ _______ _____ _____    ______ ____
ROOT
ATOM      1  N   UNL     1      12.430 -10.494 -19.295  0.00  0.00    -0.354 N 
ATOM      2  N   UNL     1      12.521  -8.993 -17.534  0.00  0.00    -0.372 N 
ATOM      3  N   UNL     1      10.676  -8.992 -18.898  0.00  0.00    -0.372 N 
ATOM      4  C   UNL     1      11.872  -9.502 -18.588  0.00  0.00    +0.166 C 
ATOM      5  H   UNL     1      13.353 -10.816 -19.028  0.00  0.00    +0.163 HD
ATOM      6  H   UNL     1      12.124  -8.247 -16.979  0.00  0.00    +0.159 HD
ATOM      7  H   UNL     1      13.423  -9.348 -17.241  0.00  0.00    +0.159 HD
ATOM      8  H   UNL     1      10.138  -9.328 -19.686  0.00  0.00    +0.159 HD
ATOM      9  H   UNL     1      10.267  -8.237 -18.362  0.00  0.00    +0.159 HD
ENDROOT
BRANCH   1  10
ATOM     10  C   UNL     1      11.784 -11.154 -20.428  0.00  0.00    +0.151 C 
BRANCH  10  11
ATOM     11  C   UNL     1      11.454 -12.571 -20.049  0.00  0.00    -0.028 A 
ATOM     12  C   UNL     1      10.724 -12.845 -18.883  0.00  0.00    +0.005 A 
ATOM     13  C   UNL     1      11.865 -13.645 -20.854  0.00  0.00    +0.005 A 
ATOM     14  C   UNL     1      10.392 -14.159 -18.546  0.00  0.00    +0.000 A 
ATOM     15  C   UNL     1      11.532 -14.956 -20.513  0.00  0.00    +0.000 A 
ATOM     16  C   UNL     1      10.794 -15.212 -19.360  0.00  0.00    +0.000 A 
ENDBRANCH  10  11
ENDBRANCH   1  10
TORSDOF 2
ENDMDL
MODEL 8
REMARK VINA RESULT:    -5.365      2.084      3.062
REMARK INTER + INTRA:          -6.157
REMARK INTER:                  -6.026
REMARK INTRA:                  -0.131
REMARK UNBOUND:                -0.165
REMARK  Name = 1550473
REMARK  2 active torsions:
REMARK  status: ('A' for Active; 'I' for Inactive)
REMARK    1  A    between atoms: N_1  and  C_4
REMARK    2  A    between atoms: C_4  and  C_5
REMARK                            x       y       z     vdW  Elec       q    Type
REMARK                         _______ _______ _______ _____ _____    ______ ____
ROOT
ATOM      1  N   UNL     1       4.376  -8.684 -22.549  0.00  0.00    -0.354 N 
ATOM      2  N   UNL     1       3.969  -6.861 -23.918  0.00  0.00    -0.372 N 
ATOM      3  N   UNL     1       2.354  -8.479 -23.716  0.00  0.00    -0.372 N 
ATOM      4  C   UNL     1       3.567  -8.021 -23.386  0.00  0.00    +0.166 C 
ATOM      5  H   UNL     1       5.295  -8.299 -22.363  0.00  0.00    +0.163 HD
ATOM      6  H   UNL     1       3.378  -6.336 -24.550  0.00  0.00    +0.159 HD
ATOM      7  H   UNL     1       4.869  -6.455 -23.694  0.00  0.00    +0.159 HD
ATOM      8  H   UNL     1       1.994  -9.351 -23.354  0.00  0.00    +0.159 HD
ATOM      9  H   UNL     1       1.754  -7.974 -24.356  0.00  0.00    +0.159 HD
ENDROOT
BRANCH   1  10
ATOM     10  C   UNL     1       4.013  -9.928 -21.874  0.00  0.00    +0.151 C 
BRANCH  10  11
ATOM     11  C   UNL     1       4.233  -9.767 -20.395  0.00  0.00    -0.028 A 
ATOM     12  C   UNL     1       5.488 -10.036 -19.829  0.00  0.00    +0.005 A 
ATOM     13  C   UNL     1       3.193  -9.340 -19.556  0.00  0.00    +0.005 A 
ATOM     14  C   UNL     1       5.701  -9.858 -18.460  0.00  0.00    +0.000 A 
ATOM     15  C   UNL     1       3.409  -9.165 -18.189  0.00  0.00    +0.000 A 
ATOM     16  C   UNL     1       4.664  -9.421 -17.642  0.00  0.00    +0.000 A 
ENDBRANCH  10  11
ENDBRANCH   1  10
TORSDOF 2
ENDMDL
MODEL 9
REMARK VINA RESULT:    -5.330     18.322     19.962
REMARK INTER + INTRA:          -6.118
REMARK INTER:                  -5.936
REMARK INTRA:                  -0.181
REMARK UNBOUND:                -0.165
REMARK  Name = 1550473
REMARK  2 active torsions:
REMARK  status: ('A' for Active; 'I' for Inactive)
REMARK    1  A    between atoms: N_1  and  C_4
REMARK    2  A    between atoms: C_4  and  C_5
REMARK                            x       y       z     vdW  Elec       q    Type
REMARK                         _______ _______ _______ _____ _____    ______ ____
ROOT
ATOM      1  N   UNL     1       1.798   2.980  -4.917  0.00  0.00    -0.354 N 
ATOM      2  N   UNL     1       0.268   4.713  -4.787  0.00  0.00    -0.372 N 
ATOM      3  N   UNL     1       2.444   5.108  -4.177  0.00  0.00    -0.372 N 
ATOM      4  C   UNL     1       1.516   4.257  -4.627  0.00  0.00    +0.166 C 
ATOM      5  H   UNL     1       1.043   2.378  -5.225  0.00  0.00    +0.163 HD
ATOM      6  H   UNL     1       0.025   5.673  -4.580  0.00  0.00    +0.159 HD
ATOM      7  H   UNL     1      -0.475   4.121  -5.139  0.00  0.00    +0.159 HD
ATOM      8  H   UNL     1       3.403   4.825  -4.029  0.00  0.00    +0.159 HD
ATOM      9  H   UNL     1       2.218   6.069  -3.953  0.00  0.00    +0.159 HD
ENDROOT
BRANCH   1  10
ATOM     10  C   UNL     1       3.137   2.399  -4.828  0.00  0.00    +0.151 C 
BRANCH  10  11
ATOM     11  C   UNL     1       3.780   2.437  -6.187  0.00  0.00    -0.028 A 
ATOM     12  C   UNL     1       4.894   3.256  -6.424  0.00  0.00    +0.005 A 
ATOM     13  C   UNL     1       3.284   1.653  -7.240  0.00  0.00    +0.005 A 
ATOM     14  C   UNL     1       5.510   3.269  -7.678  0.00  0.00    +0.000 A 
ATOM     15  C   UNL     1       3.902   1.670  -8.490  0.00  0.00    +0.000 A 
ATOM     16  C   UNL     1       5.016   2.476  -8.708  0.00  0.00    +0.000 A 
ENDBRANCH  10  11
ENDBRANCH   1  10
TORSDOF 2
ENDMDL
