MODEL 1
REMARK VINA RESULT:    -5.011      0.000      0.000
REMARK INTER + INTRA:          -5.743
REMARK INTER:                  -5.597
REMARK INTRA:                  -0.146
REMARK UNBOUND:                -0.146
REMARK  Name = 1550473
REMARK  2 active torsions:
REMARK  status: ('A' for Active; 'I' for Inactive)
REMARK    1  A    between atoms: N_1  and  C_4
REMARK    2  A    between atoms: C_4  and  C_5
REMARK                            x       y       z     vdW  Elec       q    Type
REMARK                         _______ _______ _______ _____ _____    ______ ____
ROOT
ATOM      1  N   UNL     1       4.981   6.598  -2.897  0.00  0.00    -0.354 N 
ATOM      2  N   UNL     1       5.030   4.409  -3.653  0.00  0.00    -0.372 N 
ATOM      3  N   UNL     1       4.917   6.110  -5.189  0.00  0.00    -0.372 N 
ATOM      4  C   UNL     1       4.975   5.721  -3.911  0.00  0.00    +0.166 C 
ATOM      5  H   UNL     1       4.997   6.238  -1.950  0.00  0.00    +0.163 HD
ATOM      6  H   UNL     1       5.030   3.724  -4.397  0.00  0.00    +0.159 HD
ATOM      7  H   UNL     1       5.092   4.054  -2.706  0.00  0.00    +0.159 HD
ATOM      8  H   UNL     1       4.867   7.085  -5.450  0.00  0.00    +0.159 HD
ATOM      9  H   UNL     1       4.904   5.439  -5.947  0.00  0.00    +0.159 HD
ENDROOT
BRANCH   1  10
ATOM     10  C   UNL     1       4.979   8.049  -3.072  0.00  0.00    +0.151 C 
BRANCH  10  11
ATOM     11  C   UNL     1       3.638   8.591  -2.661  0.00  0.00    -0.028 A 
ATOM     12  C   UNL     1       2.495   8.321  -3.428  0.00  0.00    +0.005 A 
ATOM     13  C   UNL     1       3.502   9.370  -1.501  0.00  0.00    +0.005 A 
ATOM     14  C   UNL     1       1.244   8.799  -3.030  0.00  0.00    +0.000 A 
ATOM     15  C   UNL     1       2.252   9.846  -1.108  0.00  0.00    +0.000 A 
ATOM     16  C   UNL     1       1.123   9.559  -1.871  0.00  0.00    +0.000 A 
ENDBRANCH  10  11
ENDBRANCH   1  10
TORSDOF 2
ENDMDL
MODEL 2
REMARK VINA RESULT:    -5.005      9.057     10.556
REMARK INTER + INTRA:          -5.736
REMARK INTER:                  -5.556
REMARK INTRA:                  -0.180
REMARK UNBOUND:                -0.146
REMARK  Name = 1550473
REMARK  2 active torsions:
REMARK  status: ('A' for Active; 'I' for Inactive)
REMARK    1  A    between atoms: N_1  and  C_4
REMARK    2  A    between atoms: C_4  and  C_5
REMARK                            x       y       z     vdW  Elec       q    Type
REMARK                         _______ _______ _______ _____ _____    ______ ____
ROOT
ATOM      1  N   UNL     1      -5.128   9.212  -1.170  0.00  0.00    -0.354 N 
ATOM      2  N   UNL     1      -5.569  11.452  -1.558  0.00  0.00    -0.372 N 
ATOM      3  N   UNL     1      -4.310  10.870   0.269  0.00  0.00    -0.372 N 
ATOM      4  C   UNL     1      -4.998  10.497  -0.815  0.00  0.00    +0.166 C 
ATOM      5  H   UNL     1      -5.688   8.993  -1.986  0.00  0.00    +0.163 HD
ATOM      6  H   UNL     1      -5.485  12.431  -1.316  0.00  0.00    +0.159 HD
ATOM      7  H   UNL     1      -6.090  11.233  -2.399  0.00  0.00    +0.159 HD
ATOM      8  H   UNL     1      -3.860  10.197   0.876  0.00  0.00    +0.159 HD
ATOM      9  H   UNL     1      -4.224  11.843   0.534  0.00  0.00    +0.159 HD
ENDROOT
BRANCH   1  10
ATOM     10  C   UNL     1      -4.501   8.099  -0.460  0.00  0.00    +0.151 C 
BRANCH  10  11
ATOM     11  C   UNL     1      -5.541   7.395   0.366  0.00  0.00    -0.028 A 
ATOM     12  C   UNL     1      -6.510   6.587  -0.247  0.00  0.00    +0.005 A 
ATOM     13  C   UNL     1      -5.561   7.526   1.763  0.00  0.00    +0.005 A 
ATOM     14  C   UNL     1      -7.458   5.908   0.522  0.00  0.00    +0.000 A 
ATOM     15  C   UNL     1      -6.510   6.847   2.527  0.00  0.00    +0.000 A 
ATOM     16  C   UNL     1      -7.457   6.037   1.907  0.00  0.00    +0.000 A 
ENDBRANCH  10  11
ENDBRANCH   1  10
TORSDOF 2
ENDMDL
MODEL 3
REMARK VINA RESULT:    -4.923      1.424      2.438
REMARK INTER + INTRA:          -5.645
REMARK INTER:                  -5.522
REMARK INTRA:                  -0.122
REMARK UNBOUND:                -0.146
REMARK  Name = 1550473
REMARK  2 active torsions:
REMARK  status: ('A' for Active; 'I' for Inactive)
REMARK    1  A    between atoms: N_1  and  C_4
REMARK    2  A    between atoms: C_4  and  C_5
REMARK                            x       y       z     vdW  Elec       q    Type
REMARK                         _______ _______ _______ _____ _____    ______ ____
ROOT
ATOM      1  N   UNL     1       3.125   7.476  -4.155  0.00  0.00    -0.354 N 
ATOM      2  N   UNL     1       3.996   6.119  -5.818  0.00  0.00    -0.372 N 
ATOM      3  N   UNL     1       5.414   6.981  -4.234  0.00  0.00    -0.372 N 
ATOM      4  C   UNL     1       4.175   6.868  -4.723  0.00  0.00    +0.166 C 
ATOM      5  H   UNL     1       2.216   7.375  -4.592  0.00  0.00    +0.163 HD
ATOM      6  H   UNL     1       4.769   5.646  -6.267  0.00  0.00    +0.159 HD
ATOM      7  H   UNL     1       3.079   5.983  -6.226  0.00  0.00    +0.159 HD
ATOM      8  H   UNL     1       5.618   7.537  -3.414  0.00  0.00    +0.159 HD
ATOM      9  H   UNL     1       6.203   6.525  -4.676  0.00  0.00    +0.159 HD
ENDROOT
BRANCH   1  10
ATOM     10  C   UNL     1       3.204   8.270  -2.930  0.00  0.00    +0.151 C 
BRANCH  10  11
ATOM     11  C   UNL     1       1.858   8.879  -2.651  0.00  0.00    -0.028 A 
ATOM     12  C   UNL     1       1.705   9.834  -1.636  0.00  0.00    +0.005 A 
ATOM     13  C   UNL     1       0.732   8.508  -3.403  0.00  0.00    +0.005 A 
ATOM     14  C   UNL     1       0.460  10.422  -1.397  0.00  0.00    +0.000 A 
ATOM     15  C   UNL     1      -0.509   9.097  -3.160  0.00  0.00    +0.000 A 
ATOM     16  C   UNL     1      -0.644  10.055  -2.159  0.00  0.00    +0.000 A 
ENDBRANCH  10  11
ENDBRANCH   1  10
TORSDOF 2
ENDMDL
MODEL 4
REMARK VINA RESULT:    -4.777      9.122     10.454
REMARK INTER + INTRA:          -5.482
REMARK INTER:                  -5.365
REMARK INTRA:                  -0.116
REMARK UNBOUND:                -0.146
REMARK  Name = 1550473
REMARK  2 active torsions:
REMARK  status: ('A' for Active; 'I' for Inactive)
REMARK    1  A    between atoms: N_1  and  C_4
REMARK    2  A    between atoms: C_4  and  C_5
REMARK                            x       y       z     vdW  Elec       q    Type
REMARK                         _______ _______ _______ _____ _____    ______ ____
ROOT
ATOM      1  N   UNL     1      -3.721   7.612 -11.771  0.00  0.00    -0.354 N 
ATOM      2  N   UNL     1      -3.099   5.917 -13.221  0.00  0.00    -0.372 N 
ATOM      3  N   UNL     1      -4.978   5.642 -11.934  0.00  0.00    -0.372 N 
ATOM      4  C   UNL     1      -3.939   6.400 -12.298  0.00  0.00    +0.166 C 
ATOM      5  H   UNL     1      -2.898   8.125 -12.068  0.00  0.00    +0.163 HD
ATOM      6  H   UNL     1      -3.240   5.007 -13.639  0.00  0.00    +0.159 HD
ATOM      7  H   UNL     1      -2.304   6.451 -13.549  0.00  0.00    +0.159 HD
ATOM      8  H   UNL     1      -5.645   5.946 -11.237  0.00  0.00    +0.159 HD
ATOM      9  H   UNL     1      -5.130   4.723 -12.332  0.00  0.00    +0.159 HD
ENDROOT
BRANCH   1  10
ATOM     10  C   UNL     1      -4.605   8.253 -10.799  0.00  0.00    +0.151 C 
BRANCH  10  11
ATOM     11  C   UNL     1      -3.776   8.808  -9.673  0.00  0.00    -0.028 A 
ATOM     12  C   UNL     1      -3.054   9.998  -9.840  0.00  0.00    +0.005 A 
ATOM     13  C   UNL     1      -3.714   8.151  -8.434  0.00  0.00    +0.005 A 
ATOM     14  C   UNL     1      -2.308  10.530  -8.785  0.00  0.00    +0.000 A 
ATOM     15  C   UNL     1      -2.968   8.684  -7.384  0.00  0.00    +0.000 A 
ATOM     16  C   UNL     1      -2.267   9.875  -7.559  0.00  0.00    +0.000 A 
ENDBRANCH  10  11
ENDBRANCH   1  10
TORSDOF 2
ENDMDL
MODEL 5
REMARK VINA RESULT:    -4.677     10.591     11.825
REMARK INTER + INTRA:          -5.369
REMARK INTER:                  -5.250
REMARK INTRA:                  -0.120
REMARK UNBOUND:                -0.146
REMARK  Name = 1550473
REMARK  2 active torsions:
REMARK  status: ('A' for Active; 'I' for Inactive)
REMARK    1  A    between atoms: N_1  and  C_4
REMARK    2  A    between atoms: C_4  and  C_5
REMARK                            x       y       z     vdW  Elec       q    Type
REMARK                         _______ _______ _______ _____ _____    ______ ____
ROOT
ATOM      1  N   UNL     1      -8.492   5.901   0.200  0.00  0.00    -0.354 N 
ATOM      2  N   UNL     1     -10.708   5.248   0.358  0.00  0.00    -0.372 N 
ATOM      3  N   UNL     1      -9.667   5.151  -1.684  0.00  0.00    -0.372 N 
ATOM      4  C   UNL     1      -9.607   5.437  -0.379  0.00  0.00    +0.166 C 
ATOM      5  H   UNL     1      -8.520   6.127   1.187  0.00  0.00    +0.163 HD
ATOM      6  H   UNL     1     -11.564   4.896  -0.050  0.00  0.00    +0.159 HD
ATOM      7  H   UNL     1     -10.720   5.431   1.354  0.00  0.00    +0.159 HD
ATOM      8  H   UNL     1      -8.873   5.278  -2.297  0.00  0.00    +0.159 HD
ATOM      9  H   UNL     1     -10.518   4.809  -2.114  0.00  0.00    +0.159 HD
ENDROOT
BRANCH   1  10
ATOM     10  C   UNL     1      -7.224   6.091  -0.503  0.00  0.00    +0.151 C 
BRANCH  10  11
ATOM     11  C   UNL     1      -6.280   6.853   0.385  0.00  0.00    -0.028 A 
ATOM     12  C   UNL     1      -5.184   7.538  -0.162  0.00  0.00    +0.005 A 
ATOM     13  C   UNL     1      -6.478   6.899   1.773  0.00  0.00    +0.005 A 
ATOM     14  C   UNL     1      -4.324   8.270   0.660  0.00  0.00    +0.000 A 
ATOM     15  C   UNL     1      -5.616   7.631   2.590  0.00  0.00    +0.000 A 
ATOM     16  C   UNL     1      -4.540   8.318   2.033  0.00  0.00    +0.000 A 
ENDBRANCH  10  11
ENDBRANCH   1  10
TORSDOF 2
ENDMDL
MODEL 6
REMARK VINA RESULT:    -4.509     19.000     19.974
REMARK INTER + INTRA:          -5.182
REMARK INTER:                  -5.051
REMARK INTRA:                  -0.131
REMARK UNBOUND:                -0.146
REMARK  Name = 1550473
REMARK  2 active torsions:
REMARK  status: ('A' for Active; 'I' for Inactive)
REMARK    1  A    between atoms: N_1  and  C_4
REMARK    2  A    between atoms: C_4  and  C_5
REMARK                            x       y       z     vdW  Elec       q    Type
REMARK                         _______ _______ _______ _____ _____    ______ ____
ROOT
ATOM      1  N   UNL     1       4.482   3.788  15.197  0.00  0.00    -0.354 N 
ATOM      2  N   UNL     1       4.958   5.450  13.656  0.00  0.00    -0.372 N 
ATOM      3  N   UNL     1       2.781   4.776  13.924  0.00  0.00    -0.372 N 
ATOM      4  C   UNL     1       4.068   4.660  14.269  0.00  0.00    +0.166 C 
ATOM      5  H   UNL     1       5.475   3.727  15.392  0.00  0.00    +0.163 HD
ATOM      6  H   UNL     1       4.675   6.120  12.954  0.00  0.00    +0.159 HD
ATOM      7  H   UNL     1       5.944   5.420  13.886  0.00  0.00    +0.159 HD
ATOM      8  H   UNL     1       2.060   4.205  14.344  0.00  0.00    +0.159 HD
ATOM      9  H   UNL     1       2.479   5.433  13.215  0.00  0.00    +0.159 HD
ENDROOT
BRANCH   1  10
ATOM     10  C   UNL     1       3.587   2.920  15.961  0.00  0.00    +0.151 C 
BRANCH  10  11
ATOM     11  C   UNL     1       4.308   1.643  16.295  0.00  0.00    -0.028 A 
ATOM     12  C   UNL     1       3.850   0.818  17.332  0.00  0.00    +0.005 A 
ATOM     13  C   UNL     1       5.447   1.251  15.575  0.00  0.00    +0.005 A 
ATOM     14  C   UNL     1       4.502  -0.383  17.624  0.00  0.00    +0.000 A 
ATOM     15  C   UNL     1       6.096   0.052  15.870  0.00  0.00    +0.000 A 
ATOM     16  C   UNL     1       5.622  -0.766  16.893  0.00  0.00    +0.000 A 
ENDBRANCH  10  11
ENDBRANCH   1  10
TORSDOF 2
ENDMDL
MODEL 7
REMARK VINA RESULT:    -4.383     10.411     11.812
REMARK INTER + INTRA:          -5.042
REMARK INTER:                  -5.013
REMARK INTRA:                  -0.029
REMARK UNBOUND:                -0.146
REMARK  Name = 1550473
REMARK  2 active torsions:
REMARK  status: ('A' for Active; 'I' for Inactive)
REMARK    1  A    between atoms: N_1  and  C_4
REMARK    2  A    between atoms: C_4  and  C_5
REMARK                            x       y       z     vdW  Elec       q    Type
REMARK                         _______ _______ _______ _____ _____    ______ ____
ROOT
ATOM      1  N   UNL     1      -8.577   6.539   0.482  0.00  0.00    -0.354 N 
ATOM      2  N   UNL     1     -10.261   6.220   2.040  0.00  0.00    -0.372 N 
ATOM      3  N   UNL     1      -8.641   4.611   1.813  0.00  0.00    -0.372 N 
ATOM      4  C   UNL     1      -9.148   5.790   1.435  0.00  0.00    +0.166 C 
ATOM      5  H   UNL     1      -9.027   7.409   0.220  0.00  0.00    +0.163 HD
ATOM      6  H   UNL     1     -10.712   5.678   2.765  0.00  0.00    +0.159 HD
ATOM      7  H   UNL     1     -10.683   7.111   1.808  0.00  0.00    +0.159 HD
ATOM      8  H   UNL     1      -7.806   4.228   1.391  0.00  0.00    +0.159 HD
ATOM      9  H   UNL     1      -9.084   4.049   2.528  0.00  0.00    +0.159 HD
ENDROOT
BRANCH   1  10
ATOM     10  C   UNL     1      -7.334   6.187  -0.201  0.00  0.00    +0.151 C 
BRANCH  10  11
ATOM     11  C   UNL     1      -6.215   7.026   0.352  0.00  0.00    -0.028 A 
ATOM     12  C   UNL     1      -6.082   7.213   1.736  0.00  0.00    +0.005 A 
ATOM     13  C   UNL     1      -5.282   7.632  -0.502  0.00  0.00    +0.005 A 
ATOM     14  C   UNL     1      -5.026   7.968   2.251  0.00  0.00    +0.000 A 
ATOM     15  C   UNL     1      -4.229   8.386   0.016  0.00  0.00    +0.000 A 
ATOM     16  C   UNL     1      -4.100   8.552   1.393  0.00  0.00    +0.000 A 
ENDBRANCH  10  11
ENDBRANCH   1  10
TORSDOF 2
ENDMDL
MODEL 8
REMARK VINA RESULT:    -4.275     10.927     12.498
REMARK INTER + INTRA:          -4.921
REMARK INTER:                  -4.800
REMARK INTRA:                  -0.121
REMARK UNBOUND:                -0.146
REMARK  Name = 1550473
REMARK  2 active torsions:
REMARK  status: ('A' for Active; 'I' for Inactive)
REMARK    1  A    between atoms: N_1  and  C_4
REMARK    2  A    between atoms: C_4  and  C_5
REMARK                            x       y       z     vdW  Elec       q    Type
REMARK                         _______ _______ _______ _____ _____    ______ ____
ROOT
ATOM      1  N   UNL     1      11.322   4.232   3.899  0.00  0.00    -0.354 N 
ATOM      2  N   UNL     1      10.548   5.776   2.356  0.00  0.00    -0.372 N 
ATOM      3  N   UNL     1       9.818   5.916   4.527  0.00  0.00    -0.372 N 
ATOM      4  C   UNL     1      10.566   5.299   3.606  0.00  0.00    +0.166 C 
ATOM      5  H   UNL     1      11.843   3.791   3.149  0.00  0.00    +0.163 HD
ATOM      6  H   UNL     1       9.990   6.582   2.106  0.00  0.00    +0.159 HD
ATOM      7  H   UNL     1      11.105   5.362   1.619  0.00  0.00    +0.159 HD
ATOM      8  H   UNL     1       9.783   5.601   5.487  0.00  0.00    +0.159 HD
ATOM      9  H   UNL     1       9.243   6.716   4.293  0.00  0.00    +0.159 HD
ENDROOT
BRANCH   1  10
ATOM     10  C   UNL     1      11.454   3.667   5.240  0.00  0.00    +0.151 C 
BRANCH  10  11
ATOM     11  C   UNL     1      11.249   2.179   5.168  0.00  0.00    -0.028 A 
ATOM     12  C   UNL     1      12.299   1.332   4.783  0.00  0.00    +0.005 A 
ATOM     13  C   UNL     1      10.007   1.608   5.490  0.00  0.00    +0.005 A 
ATOM     14  C   UNL     1      12.117  -0.052   4.746  0.00  0.00    +0.000 A 
ATOM     15  C   UNL     1       9.829   0.225   5.450  0.00  0.00    +0.000 A 
ATOM     16  C   UNL     1      10.885  -0.604   5.080  0.00  0.00    +0.000 A 
ENDBRANCH  10  11
ENDBRANCH   1  10
TORSDOF 2
ENDMDL
MODEL 9
REMARK VINA RESULT:    -4.196     12.103     13.321
REMARK INTER + INTRA:          -4.832
REMARK INTER:                  -4.712
REMARK INTRA:                  -0.120
REMARK UNBOUND:                -0.146
REMARK  Name = 1550473
REMARK  2 active torsions:
REMARK  status: ('A' for Active; 'I' for Inactive)
REMARK    1  A    between atoms: N_1  and  C_4
REMARK    2  A    between atoms: C_4  and  C_5
REMARK                            x       y       z     vdW  Elec       q    Type
REMARK                         _______ _______ _______ _____ _____    ______ ____
ROOT
ATOM      1  N   UNL     1     -10.021   5.132   0.214  0.00  0.00    -0.354 N 
ATOM      2  N   UNL     1     -12.179   4.333   0.476  0.00  0.00    -0.372 N 
ATOM      3  N   UNL     1     -11.256   4.365  -1.624  0.00  0.00    -0.372 N 
ATOM      4  C   UNL     1     -11.138   4.615  -0.316  0.00  0.00    +0.166 C 
ATOM      5  H   UNL     1     -10.006   5.327   1.209  0.00  0.00    +0.163 HD
ATOM      6  H   UNL     1     -13.034   3.940   0.106  0.00  0.00    +0.159 HD
ATOM      7  H   UNL     1     -12.144   4.486   1.477  0.00  0.00    +0.159 HD
ATOM      8  H   UNL     1     -10.509   4.561  -2.276  0.00  0.00    +0.159 HD
ATOM      9  H   UNL     1     -12.107   3.982  -2.016  0.00  0.00    +0.159 HD
ENDROOT
BRANCH   1  10
ATOM     10  C   UNL     1      -8.812   5.425  -0.553  0.00  0.00    +0.151 C 
BRANCH  10  11
ATOM     11  C   UNL     1      -7.802   6.075   0.351  0.00  0.00    -0.028 A 
ATOM     12  C   UNL     1      -7.915   5.960   1.745  0.00  0.00    +0.005 A 
ATOM     13  C   UNL     1      -6.725   6.804  -0.179  0.00  0.00    +0.005 A 
ATOM     14  C   UNL     1      -6.960   6.539   2.584  0.00  0.00    +0.000 A 
ATOM     15  C   UNL     1      -5.775   7.381   0.663  0.00  0.00    +0.000 A 
ATOM     16  C   UNL     1      -5.891   7.246   2.044  0.00  0.00    +0.000 A 
ENDBRANCH  10  11
ENDBRANCH   1  10
TORSDOF 2
ENDMDL
