MODEL 1
REMARK VINA RESULT:    -6.129      0.000      0.000
REMARK INTER + INTRA:          -7.027
REMARK INTER:                  -6.845
REMARK INTRA:                  -0.182
REMARK UNBOUND:                -0.182
REMARK  Name = 1550473
REMARK  2 active torsions:
REMARK  status: ('A' for Active; 'I' for Inactive)
REMARK    1  A    between atoms: N_1  and  C_4
REMARK    2  A    between atoms: C_4  and  C_5
REMARK                            x       y       z     vdW  Elec       q    Type
REMARK                         _______ _______ _______ _____ _____    ______ ____
ROOT
ATOM      1  N   UNL     1      -8.556  -2.130  -1.592  0.00  0.00    -0.354 N 
ATOM      2  N   UNL     1      -7.033  -3.463  -0.468  0.00  0.00    -0.372 N 
ATOM      3  N   UNL     1      -9.248  -4.061  -0.460  0.00  0.00    -0.372 N 
ATOM      4  C   UNL     1      -8.291  -3.211  -0.846  0.00  0.00    +0.166 C 
ATOM      5  H   UNL     1      -7.791  -1.508  -1.827  0.00  0.00    +0.163 HD
ATOM      6  H   UNL     1      -6.802  -4.273   0.092  0.00  0.00    +0.159 HD
ATOM      7  H   UNL     1      -6.263  -2.865  -0.742  0.00  0.00    +0.159 HD
ATOM      8  H   UNL     1     -10.219  -3.924  -0.707  0.00  0.00    +0.159 HD
ATOM      9  H   UNL     1      -9.039  -4.871   0.111  0.00  0.00    +0.159 HD
ENDROOT
BRANCH   1  10
ATOM     10  C   UNL     1      -9.884  -1.793  -2.102  0.00  0.00    +0.151 C 
BRANCH  10  11
ATOM     11  C   UNL     1     -10.490  -0.728  -1.231  0.00  0.00    -0.028 A 
ATOM     12  C   UNL     1     -11.565  -1.028  -0.382  0.00  0.00    +0.005 A 
ATOM     13  C   UNL     1      -9.989   0.583  -1.245  0.00  0.00    +0.005 A 
ATOM     14  C   UNL     1     -12.109  -0.046   0.450  0.00  0.00    +0.000 A 
ATOM     15  C   UNL     1     -10.534   1.561  -0.413  0.00  0.00    +0.000 A 
ATOM     16  C   UNL     1     -11.593   1.246   0.435  0.00  0.00    +0.000 A 
ENDBRANCH  10  11
ENDBRANCH   1  10
TORSDOF 2
ENDMDL
MODEL 2
REMARK VINA RESULT:    -5.747      3.869      7.014
REMARK INTER + INTRA:          -6.601
REMARK INTER:                  -6.463
REMARK INTRA:                  -0.138
REMARK UNBOUND:                -0.182
REMARK  Name = 1550473
REMARK  2 active torsions:
REMARK  status: ('A' for Active; 'I' for Inactive)
REMARK    1  A    between atoms: N_1  and  C_4
REMARK    2  A    between atoms: C_4  and  C_5
REMARK                            x       y       z     vdW  Elec       q    Type
REMARK                         _______ _______ _______ _____ _____    ______ ____
ROOT
ATOM      1  N   UNL     1      -8.447  -3.958  -2.141  0.00  0.00    -0.354 N 
ATOM      2  N   UNL     1      -8.892  -1.743  -1.635  0.00  0.00    -0.372 N 
ATOM      3  N   UNL     1      -7.794  -3.035  -0.089  0.00  0.00    -0.372 N 
ATOM      4  C   UNL     1      -8.374  -2.927  -1.289  0.00  0.00    +0.166 C 
ATOM      5  H   UNL     1      -8.926  -3.820  -3.023  0.00  0.00    +0.163 HD
ATOM      6  H   UNL     1      -8.848  -0.945  -1.014  0.00  0.00    +0.159 HD
ATOM      7  H   UNL     1      -9.329  -1.595  -2.536  0.00  0.00    +0.159 HD
ATOM      8  H   UNL     1      -7.389  -3.903   0.235  0.00  0.00    +0.159 HD
ATOM      9  H   UNL     1      -7.751  -2.251   0.551  0.00  0.00    +0.159 HD
ENDROOT
BRANCH   1  10
ATOM     10  C   UNL     1      -7.867  -5.275  -1.883  0.00  0.00    +0.151 C 
BRANCH  10  11
ATOM     11  C   UNL     1      -7.112  -5.727  -3.102  0.00  0.00    -0.028 A 
ATOM     12  C   UNL     1      -6.359  -4.812  -3.853  0.00  0.00    +0.005 A 
ATOM     13  C   UNL     1      -7.140  -7.070  -3.509  0.00  0.00    +0.005 A 
ATOM     14  C   UNL     1      -5.633  -5.237  -4.968  0.00  0.00    +0.000 A 
ATOM     15  C   UNL     1      -6.414  -7.490  -4.624  0.00  0.00    +0.000 A 
ATOM     16  C   UNL     1      -5.659  -6.573  -5.351  0.00  0.00    +0.000 A 
ENDBRANCH  10  11
ENDBRANCH   1  10
TORSDOF 2
ENDMDL
MODEL 3
REMARK VINA RESULT:    -5.425      4.656      7.632
REMARK INTER + INTRA:          -6.241
REMARK INTER:                  -6.104
REMARK INTRA:                  -0.137
REMARK UNBOUND:                -0.182
REMARK  Name = 1550473
REMARK  2 active torsions:
REMARK  status: ('A' for Active; 'I' for Inactive)
REMARK    1  A    between atoms: N_1  and  C_4
REMARK    2  A    between atoms: C_4  and  C_5
REMARK                            x       y       z     vdW  Elec       q    Type
REMARK                         _______ _______ _______ _____ _____    ______ ____
ROOT
ATOM      1  N   UNL     1      -7.079  -4.611  -2.242  0.00  0.00    -0.354 N 
ATOM      2  N   UNL     1      -8.209  -3.946  -0.333  0.00  0.00    -0.372 N 
ATOM      3  N   UNL     1      -8.956  -3.214  -2.376  0.00  0.00    -0.372 N 
ATOM      4  C   UNL     1      -8.075  -3.926  -1.665  0.00  0.00    +0.166 C 
ATOM      5  H   UNL     1      -6.427  -5.107  -1.646  0.00  0.00    +0.163 HD
ATOM      6  H   UNL     1      -8.953  -3.442   0.131  0.00  0.00    +0.159 HD
ATOM      7  H   UNL     1      -7.583  -4.480   0.257  0.00  0.00    +0.159 HD
ATOM      8  H   UNL     1      -8.906  -3.153  -3.384  0.00  0.00    +0.159 HD
ATOM      9  H   UNL     1      -9.700  -2.693  -1.929  0.00  0.00    +0.159 HD
ENDROOT
BRANCH   1  10
ATOM     10  C   UNL     1      -6.877  -4.699  -3.688  0.00  0.00    +0.151 C 
BRANCH  10  11
ATOM     11  C   UNL     1      -6.701  -6.142  -4.072  0.00  0.00    -0.028 A 
ATOM     12  C   UNL     1      -7.233  -7.162  -3.271  0.00  0.00    +0.005 A 
ATOM     13  C   UNL     1      -6.008  -6.495  -5.241  0.00  0.00    +0.005 A 
ATOM     14  C   UNL     1      -7.095  -8.502  -3.644  0.00  0.00    +0.000 A 
ATOM     15  C   UNL     1      -5.872  -7.833  -5.609  0.00  0.00    +0.000 A 
ATOM     16  C   UNL     1      -6.418  -8.836  -4.811  0.00  0.00    +0.000 A 
ENDBRANCH  10  11
ENDBRANCH   1  10
TORSDOF 2
ENDMDL
MODEL 4
REMARK VINA RESULT:    -5.295     18.748     20.885
REMARK INTER + INTRA:          -6.096
REMARK INTER:                  -5.930
REMARK INTRA:                  -0.167
REMARK UNBOUND:                -0.182
REMARK  Name = 1550473
REMARK  2 active torsions:
REMARK  status: ('A' for Active; 'I' for Inactive)
REMARK    1  A    between atoms: N_1  and  C_4
REMARK    2  A    between atoms: C_4  and  C_5
REMARK                            x       y       z     vdW  Elec       q    Type
REMARK                         _______ _______ _______ _____ _____    ______ ____
ROOT
ATOM      1  N   UNL     1       3.767 -12.271  -8.755  0.00  0.00    -0.354 N 
ATOM      2  N   UNL     1       1.709 -12.350  -7.695  0.00  0.00    -0.372 N 
ATOM      3  N   UNL     1       2.595 -14.289  -8.543  0.00  0.00    -0.372 N 
ATOM      4  C   UNL     1       2.704 -12.972  -8.339  0.00  0.00    +0.166 C 
ATOM      5  H   UNL     1       3.775 -11.270  -8.597  0.00  0.00    +0.163 HD
ATOM      6  H   UNL     1       0.896 -12.853  -7.366  0.00  0.00    +0.159 HD
ATOM      7  H   UNL     1       1.741 -11.357  -7.498  0.00  0.00    +0.159 HD
ATOM      8  H   UNL     1       3.309 -14.817  -9.027  0.00  0.00    +0.159 HD
ATOM      9  H   UNL     1       1.784 -14.809  -8.231  0.00  0.00    +0.159 HD
ENDROOT
BRANCH   1  10
ATOM     10  C   UNL     1       4.928 -12.862  -9.418  0.00  0.00    +0.151 C 
BRANCH  10  11
ATOM     11  C   UNL     1       4.902 -12.494 -10.876  0.00  0.00    -0.028 A 
ATOM     12  C   UNL     1       4.909 -13.490 -11.862  0.00  0.00    +0.005 A 
ATOM     13  C   UNL     1       4.865 -11.149 -11.277  0.00  0.00    +0.005 A 
ATOM     14  C   UNL     1       4.855 -13.149 -13.216  0.00  0.00    +0.000 A 
ATOM     15  C   UNL     1       4.812 -10.813 -12.629  0.00  0.00    +0.000 A 
ATOM     16  C   UNL     1       4.805 -11.813 -13.598  0.00  0.00    +0.000 A 
ENDBRANCH  10  11
ENDBRANCH   1  10
TORSDOF 2
ENDMDL
MODEL 5
REMARK VINA RESULT:    -5.270     21.243     22.288
REMARK INTER + INTRA:          -6.068
REMARK INTER:                  -5.936
REMARK INTRA:                  -0.132
REMARK UNBOUND:                -0.182
REMARK  Name = 1550473
REMARK  2 active torsions:
REMARK  status: ('A' for Active; 'I' for Inactive)
REMARK    1  A    between atoms: N_1  and  C_4
REMARK    2  A    between atoms: C_4  and  C_5
REMARK                            x       y       z     vdW  Elec       q    Type
REMARK                         _______ _______ _______ _____ _____    ______ ____
ROOT
ATOM      1  N   UNL     1       5.105 -14.447  -9.651  0.00  0.00    -0.354 N 
ATOM      2  N   UNL     1       5.303 -16.712  -9.211  0.00  0.00    -0.372 N 
ATOM      3  N   UNL     1       7.200 -15.423  -9.268  0.00  0.00    -0.372 N 
ATOM      4  C   UNL     1       5.871 -15.512  -9.379  0.00  0.00    +0.166 C 
ATOM      5  H   UNL     1       4.106 -14.585  -9.752  0.00  0.00    +0.163 HD
ATOM      6  H   UNL     1       5.854 -17.533  -9.002  0.00  0.00    +0.159 HD
ATOM      7  H   UNL     1       4.300 -16.839  -9.268  0.00  0.00    +0.159 HD
ATOM      8  H   UNL     1       7.691 -14.548  -9.389  0.00  0.00    +0.159 HD
ATOM      9  H   UNL     1       7.771 -16.236  -9.071  0.00  0.00    +0.159 HD
ENDROOT
BRANCH   1  10
ATOM     10  C   UNL     1       5.619 -13.086  -9.799  0.00  0.00    +0.151 C 
BRANCH  10  11
ATOM     11  C   UNL     1       5.221 -12.555 -11.148  0.00  0.00    -0.028 A 
ATOM     12  C   UNL     1       5.014 -11.181 -11.340  0.00  0.00    +0.005 A 
ATOM     13  C   UNL     1       5.056 -13.420 -12.241  0.00  0.00    +0.005 A 
ATOM     14  C   UNL     1       4.674 -10.684 -12.600  0.00  0.00    +0.000 A 
ATOM     15  C   UNL     1       4.715 -12.919 -13.497  0.00  0.00    +0.000 A 
ATOM     16  C   UNL     1       4.527 -11.551 -13.677  0.00  0.00    +0.000 A 
ENDBRANCH  10  11
ENDBRANCH   1  10
TORSDOF 2
ENDMDL
MODEL 6
REMARK VINA RESULT:    -5.256     20.935     21.907
REMARK INTER + INTRA:          -6.053
REMARK INTER:                  -5.883
REMARK INTRA:                  -0.170
REMARK UNBOUND:                -0.182
REMARK  Name = 1550473
REMARK  2 active torsions:
REMARK  status: ('A' for Active; 'I' for Inactive)
REMARK    1  A    between atoms: N_1  and  C_4
REMARK    2  A    between atoms: C_4  and  C_5
REMARK                            x       y       z     vdW  Elec       q    Type
REMARK                         _______ _______ _______ _____ _____    ______ ____
ROOT
ATOM      1  N   UNL     1       4.968 -14.571  -9.928  0.00  0.00    -0.354 N 
ATOM      2  N   UNL     1       3.394 -15.281  -8.385  0.00  0.00    -0.372 N 
ATOM      3  N   UNL     1       3.136 -15.875 -10.586  0.00  0.00    -0.372 N 
ATOM      4  C   UNL     1       3.842 -15.239  -9.646  0.00  0.00    +0.166 C 
ATOM      5  H   UNL     1       5.441 -14.084  -9.175  0.00  0.00    +0.163 HD
ATOM      6  H   UNL     1       2.549 -15.780  -8.141  0.00  0.00    +0.159 HD
ATOM      7  H   UNL     1       3.893 -14.832  -7.627  0.00  0.00    +0.159 HD
ATOM      8  H   UNL     1       3.417 -15.877 -11.558  0.00  0.00    +0.159 HD
ATOM      9  H   UNL     1       2.281 -16.370 -10.364  0.00  0.00    +0.159 HD
ENDROOT
BRANCH   1  10
ATOM     10  C   UNL     1       5.570 -14.509 -11.259  0.00  0.00    +0.151 C 
BRANCH  10  11
ATOM     11  C   UNL     1       5.231 -13.187 -11.890  0.00  0.00    -0.028 A 
ATOM     12  C   UNL     1       4.816 -13.122 -13.228  0.00  0.00    +0.005 A 
ATOM     13  C   UNL     1       5.316 -11.995 -11.153  0.00  0.00    +0.005 A 
ATOM     14  C   UNL     1       4.472 -11.897 -13.806  0.00  0.00    +0.000 A 
ATOM     15  C   UNL     1       4.973 -10.775 -11.734  0.00  0.00    +0.000 A 
ATOM     16  C   UNL     1       4.549 -10.726 -13.059  0.00  0.00    +0.000 A 
ENDBRANCH  10  11
ENDBRANCH   1  10
TORSDOF 2
ENDMDL
MODEL 7
REMARK VINA RESULT:    -5.187     22.696     24.024
REMARK INTER + INTRA:          -5.976
REMARK INTER:                  -5.809
REMARK INTRA:                  -0.166
REMARK UNBOUND:                -0.182
REMARK  Name = 1550473
REMARK  2 active torsions:
REMARK  status: ('A' for Active; 'I' for Inactive)
REMARK    1  A    between atoms: N_1  and  C_4
REMARK    2  A    between atoms: C_4  and  C_5
REMARK                            x       y       z     vdW  Elec       q    Type
REMARK                         _______ _______ _______ _____ _____    ______ ____
ROOT
ATOM      1  N   UNL     1       6.170 -15.327 -13.660  0.00  0.00    -0.354 N 
ATOM      2  N   UNL     1       7.210 -16.487 -15.373  0.00  0.00    -0.372 N 
ATOM      3  N   UNL     1       8.507 -15.407 -13.818  0.00  0.00    -0.372 N 
ATOM      4  C   UNL     1       7.291 -15.731 -14.271  0.00  0.00    +0.166 C 
ATOM      5  H   UNL     1       5.279 -15.581 -14.070  0.00  0.00    +0.163 HD
ATOM      6  H   UNL     1       8.039 -16.810 -15.854  0.00  0.00    +0.159 HD
ATOM      7  H   UNL     1       6.319 -16.778 -15.755  0.00  0.00    +0.159 HD
ATOM      8  H   UNL     1       8.636 -14.834 -12.995  0.00  0.00    +0.159 HD
ATOM      9  H   UNL     1       9.348 -15.711 -14.292  0.00  0.00    +0.159 HD
ENDROOT
BRANCH   1  10
ATOM     10  C   UNL     1       6.149 -14.546 -12.424  0.00  0.00    +0.151 C 
BRANCH  10  11
ATOM     11  C   UNL     1       5.779 -13.125 -12.747  0.00  0.00    -0.028 A 
ATOM     12  C   UNL     1       6.532 -12.059 -12.235  0.00  0.00    +0.005 A 
ATOM     13  C   UNL     1       4.678 -12.838 -13.568  0.00  0.00    +0.005 A 
ATOM     14  C   UNL     1       6.207 -10.739 -12.559  0.00  0.00    +0.000 A 
ATOM     15  C   UNL     1       4.355 -11.519 -13.889  0.00  0.00    +0.000 A 
ATOM     16  C   UNL     1       5.121 -10.471 -13.386  0.00  0.00    +0.000 A 
ENDBRANCH  10  11
ENDBRANCH   1  10
TORSDOF 2
ENDMDL
MODEL 8
REMARK VINA RESULT:    -5.111     20.648     22.163
REMARK INTER + INTRA:          -5.891
REMARK INTER:                  -5.776
REMARK INTRA:                  -0.115
REMARK UNBOUND:                -0.182
REMARK  Name = 1550473
REMARK  2 active torsions:
REMARK  status: ('A' for Active; 'I' for Inactive)
REMARK    1  A    between atoms: N_1  and  C_4
REMARK    2  A    between atoms: C_4  and  C_5
REMARK                            x       y       z     vdW  Elec       q    Type
REMARK                         _______ _______ _______ _____ _____    ______ ____
ROOT
ATOM      1  N   UNL     1       6.979 -14.804  -9.294  0.00  0.00    -0.354 N 
ATOM      2  N   UNL     1       8.902 -14.584  -8.022  0.00  0.00    -0.372 N 
ATOM      3  N   UNL     1       8.887 -13.756 -10.162  0.00  0.00    -0.372 N 
ATOM      4  C   UNL     1       8.244 -14.382  -9.170  0.00  0.00    +0.166 C 
ATOM      5  H   UNL     1       6.558 -15.298  -8.515  0.00  0.00    +0.163 HD
ATOM      6  H   UNL     1       9.857 -14.274  -7.898  0.00  0.00    +0.159 HD
ATOM      7  H   UNL     1       8.464 -15.038  -7.230  0.00  0.00    +0.159 HD
ATOM      8  H   UNL     1       8.448 -13.578 -11.056  0.00  0.00    +0.159 HD
ATOM      9  H   UNL     1       9.846 -13.449 -10.062  0.00  0.00    +0.159 HD
ENDROOT
BRANCH   1  10
ATOM     10  C   UNL     1       6.156 -14.585 -10.482  0.00  0.00    +0.151 C 
BRANCH  10  11
ATOM     11  C   UNL     1       5.544 -13.213 -10.411  0.00  0.00    -0.028 A 
ATOM     12  C   UNL     1       4.880 -12.790  -9.250  0.00  0.00    +0.005 A 
ATOM     13  C   UNL     1       5.629 -12.330 -11.498  0.00  0.00    +0.005 A 
ATOM     14  C   UNL     1       4.338 -11.505  -9.172  0.00  0.00    +0.000 A 
ATOM     15  C   UNL     1       5.085 -11.049 -11.416  0.00  0.00    +0.000 A 
ATOM     16  C   UNL     1       4.442 -10.635 -10.252  0.00  0.00    +0.000 A 
ENDBRANCH  10  11
ENDBRANCH   1  10
TORSDOF 2
ENDMDL
MODEL 9
REMARK VINA RESULT:    -5.054     22.020     23.333
REMARK INTER + INTRA:          -5.826
REMARK INTER:                  -5.676
REMARK INTRA:                  -0.151
REMARK UNBOUND:                -0.182
REMARK  Name = 1550473
REMARK  2 active torsions:
REMARK  status: ('A' for Active; 'I' for Inactive)
REMARK    1  A    between atoms: N_1  and  C_4
REMARK    2  A    between atoms: C_4  and  C_5
REMARK                            x       y       z     vdW  Elec       q    Type
REMARK                         _______ _______ _______ _____ _____    ______ ____
ROOT
ATOM      1  N   UNL     1       8.179 -14.131 -10.501  0.00  0.00    -0.354 N 
ATOM      2  N   UNL     1       8.886 -14.562  -8.338  0.00  0.00    -0.372 N 
ATOM      3  N   UNL     1      10.220 -13.294  -9.708  0.00  0.00    -0.372 N 
ATOM      4  C   UNL     1       9.093 -13.992  -9.531  0.00  0.00    +0.166 C 
ATOM      5  H   UNL     1       7.360 -14.697 -10.313  0.00  0.00    +0.163 HD
ATOM      6  H   UNL     1       9.555 -14.471  -7.585  0.00  0.00    +0.159 HD
ATOM      7  H   UNL     1       8.044 -15.089  -8.138  0.00  0.00    +0.159 HD
ATOM      8  H   UNL     1      10.438 -12.844 -10.587  0.00  0.00    +0.159 HD
ATOM      9  H   UNL     1      10.907 -13.202  -8.971  0.00  0.00    +0.159 HD
ENDROOT
BRANCH   1  10
ATOM     10  C   UNL     1       8.284 -13.505 -11.818  0.00  0.00    +0.151 C 
BRANCH  10  11
ATOM     11  C   UNL     1       7.140 -12.545 -11.997  0.00  0.00    -0.028 A 
ATOM     12  C   UNL     1       5.979 -12.667 -11.219  0.00  0.00    +0.005 A 
ATOM     13  C   UNL     1       7.213 -11.508 -12.940  0.00  0.00    +0.005 A 
ATOM     14  C   UNL     1       4.929 -11.758 -11.365  0.00  0.00    +0.000 A 
ATOM     15  C   UNL     1       6.162 -10.603 -13.083  0.00  0.00    +0.000 A 
ATOM     16  C   UNL     1       5.021 -10.726 -12.293  0.00  0.00    +0.000 A 
ENDBRANCH  10  11
ENDBRANCH   1  10
TORSDOF 2
ENDMDL
