MODEL 1
REMARK VINA RESULT:    -6.330      0.000      0.000
REMARK INTER + INTRA:          -7.189
REMARK INTER:                  -7.070
REMARK INTRA:                  -0.119
REMARK UNBOUND:                -0.119
REMARK  Name = 1550473
REMARK  2 active torsions:
REMARK  status: ('A' for Active; 'I' for Inactive)
REMARK    1  A    between atoms: N_1  and  C_4
REMARK    2  A    between atoms: C_4  and  C_5
REMARK                            x       y       z     vdW  Elec       q    Type
REMARK                         _______ _______ _______ _____ _____    ______ ____
ROOT
ATOM      1  N   UNL     1     -13.324  -2.465  -3.528  0.00  0.00    -0.354 N 
ATOM      2  N   UNL     1     -14.925  -1.050  -2.635  0.00  0.00    -0.372 N 
ATOM      3  N   UNL     1     -12.707  -0.567  -2.299  0.00  0.00    -0.372 N 
ATOM      4  C   UNL     1     -13.639  -1.369  -2.826  0.00  0.00    +0.166 C 
ATOM      5  H   UNL     1     -14.077  -3.047  -3.875  0.00  0.00    +0.163 HD
ATOM      6  H   UNL     1     -15.193  -0.227  -2.112  0.00  0.00    +0.159 HD
ATOM      7  H   UNL     1     -15.675  -1.609  -3.022  0.00  0.00    +0.159 HD
ATOM      8  H   UNL     1     -11.718  -0.756  -2.402  0.00  0.00    +0.159 HD
ATOM      9  H   UNL     1     -12.956   0.255  -1.763  0.00  0.00    +0.159 HD
ENDROOT
BRANCH   1  10
ATOM     10  C   UNL     1     -11.954  -2.871  -3.839  0.00  0.00    +0.151 C 
BRANCH  10  11
ATOM     11  C   UNL     1     -11.947  -4.328  -4.211  0.00  0.00    -0.028 A 
ATOM     12  C   UNL     1     -12.749  -5.245  -3.516  0.00  0.00    +0.005 A 
ATOM     13  C   UNL     1     -11.144  -4.798  -5.262  0.00  0.00    +0.005 A 
ATOM     14  C   UNL     1     -12.765  -6.593  -3.881  0.00  0.00    +0.000 A 
ATOM     15  C   UNL     1     -11.163  -6.145  -5.623  0.00  0.00    +0.000 A 
ATOM     16  C   UNL     1     -11.975  -7.042  -4.933  0.00  0.00    +0.000 A 
ENDBRANCH  10  11
ENDBRANCH   1  10
TORSDOF 2
ENDMDL
MODEL 2
REMARK VINA RESULT:    -6.057      1.156      2.222
REMARK INTER + INTRA:          -6.885
REMARK INTER:                  -6.769
REMARK INTRA:                  -0.116
REMARK UNBOUND:                -0.119
REMARK  Name = 1550473
REMARK  2 active torsions:
REMARK  status: ('A' for Active; 'I' for Inactive)
REMARK    1  A    between atoms: N_1  and  C_4
REMARK    2  A    between atoms: C_4  and  C_5
REMARK                            x       y       z     vdW  Elec       q    Type
REMARK                         _______ _______ _______ _____ _____    ______ ____
ROOT
ATOM      1  N   UNL     1     -12.778  -1.355  -2.720  0.00  0.00    -0.354 N 
ATOM      2  N   UNL     1     -13.000  -0.251  -0.696  0.00  0.00    -0.372 N 
ATOM      3  N   UNL     1     -14.871  -1.136  -1.688  0.00  0.00    -0.372 N 
ATOM      4  C   UNL     1     -13.551  -0.922  -1.715  0.00  0.00    +0.166 C 
ATOM      5  H   UNL     1     -11.789  -1.134  -2.697  0.00  0.00    +0.163 HD
ATOM      6  H   UNL     1     -13.558   0.085   0.078  0.00  0.00    +0.159 HD
ATOM      7  H   UNL     1     -12.005  -0.072  -0.652  0.00  0.00    +0.159 HD
ATOM      8  H   UNL     1     -15.348  -1.630  -2.430  0.00  0.00    +0.159 HD
ATOM      9  H   UNL     1     -15.447  -0.797  -0.928  0.00  0.00    +0.159 HD
ENDROOT
BRANCH   1  10
ATOM     10  C   UNL     1     -13.271  -2.140  -3.851  0.00  0.00    +0.151 C 
BRANCH  10  11
ATOM     11  C   UNL     1     -12.352  -3.309  -4.074  0.00  0.00    -0.028 A 
ATOM     12  C   UNL     1     -11.006  -3.103  -4.410  0.00  0.00    +0.005 A 
ATOM     13  C   UNL     1     -12.819  -4.626  -3.944  0.00  0.00    +0.005 A 
ATOM     14  C   UNL     1     -10.144  -4.188  -4.588  0.00  0.00    +0.000 A 
ATOM     15  C   UNL     1     -11.956  -5.707  -4.124  0.00  0.00    +0.000 A 
ATOM     16  C   UNL     1     -10.618  -5.488  -4.443  0.00  0.00    +0.000 A 
ENDBRANCH  10  11
ENDBRANCH   1  10
TORSDOF 2
ENDMDL
MODEL 3
REMARK VINA RESULT:    -5.649      8.862     10.519
REMARK INTER + INTRA:          -6.429
REMARK INTER:                  -6.259
REMARK INTRA:                  -0.170
REMARK UNBOUND:                -0.119
REMARK  Name = 1550473
REMARK  2 active torsions:
REMARK  status: ('A' for Active; 'I' for Inactive)
REMARK    1  A    between atoms: N_1  and  C_4
REMARK    2  A    between atoms: C_4  and  C_5
REMARK                            x       y       z     vdW  Elec       q    Type
REMARK                         _______ _______ _______ _____ _____    ______ ____
ROOT
ATOM      1  N   UNL     1      -4.489   3.346  -4.519  0.00  0.00    -0.354 N 
ATOM      2  N   UNL     1      -3.031   4.845  -3.523  0.00  0.00    -0.372 N 
ATOM      3  N   UNL     1      -3.672   5.200  -5.697  0.00  0.00    -0.372 N 
ATOM      4  C   UNL     1      -3.740   4.455  -4.589  0.00  0.00    +0.166 C 
ATOM      5  H   UNL     1      -4.474   2.809  -3.660  0.00  0.00    +0.163 HD
ATOM      6  H   UNL     1      -2.460   5.679  -3.545  0.00  0.00    +0.159 HD
ATOM      7  H   UNL     1      -3.054   4.331  -2.650  0.00  0.00    +0.159 HD
ATOM      8  H   UNL     1      -4.179   4.957  -6.538  0.00  0.00    +0.159 HD
ATOM      9  H   UNL     1      -3.097   6.032  -5.742  0.00  0.00    +0.159 HD
ENDROOT
BRANCH   1  10
ATOM     10  C   UNL     1      -5.341   2.865  -5.605  0.00  0.00    +0.151 C 
BRANCH  10  11
ATOM     11  C   UNL     1      -6.782   3.052  -5.219  0.00  0.00    -0.028 A 
ATOM     12  C   UNL     1      -7.440   2.091  -4.437  0.00  0.00    +0.005 A 
ATOM     13  C   UNL     1      -7.494   4.191  -5.626  0.00  0.00    +0.005 A 
ATOM     14  C   UNL     1      -8.770   2.278  -4.053  0.00  0.00    +0.000 A 
ATOM     15  C   UNL     1      -8.822   4.374  -5.241  0.00  0.00    +0.000 A 
ATOM     16  C   UNL     1      -9.459   3.419  -4.453  0.00  0.00    +0.000 A 
ENDBRANCH  10  11
ENDBRANCH   1  10
TORSDOF 2
ENDMDL
MODEL 4
REMARK VINA RESULT:    -5.335      5.631      6.461
REMARK INTER + INTRA:          -6.078
REMARK INTER:                  -5.966
REMARK INTRA:                  -0.112
REMARK UNBOUND:                -0.119
REMARK  Name = 1550473
REMARK  2 active torsions:
REMARK  status: ('A' for Active; 'I' for Inactive)
REMARK    1  A    between atoms: N_1  and  C_4
REMARK    2  A    between atoms: C_4  and  C_5
REMARK                            x       y       z     vdW  Elec       q    Type
REMARK                         _______ _______ _______ _____ _____    ______ ____
ROOT
ATOM      1  N   UNL     1     -11.802   1.954  -2.332  0.00  0.00    -0.354 N 
ATOM      2  N   UNL     1      -9.770   3.059  -2.218  0.00  0.00    -0.372 N 
ATOM      3  N   UNL     1     -10.591   2.456  -4.275  0.00  0.00    -0.372 N 
ATOM      4  C   UNL     1     -10.735   2.482  -2.945  0.00  0.00    +0.166 C 
ATOM      5  H   UNL     1     -11.837   1.979  -1.320  0.00  0.00    +0.163 HD
ATOM      6  H   UNL     1      -8.955   3.469  -2.653  0.00  0.00    +0.159 HD
ATOM      7  H   UNL     1      -9.830   3.124  -1.209  0.00  0.00    +0.159 HD
ATOM      8  H   UNL     1     -11.280   2.030  -4.879  0.00  0.00    +0.159 HD
ATOM      9  H   UNL     1      -9.776   2.851  -4.727  0.00  0.00    +0.159 HD
ENDROOT
BRANCH   1  10
ATOM     10  C   UNL     1     -12.933   1.350  -3.035  0.00  0.00    +0.151 C 
BRANCH  10  11
ATOM     11  C   UNL     1     -13.812   0.646  -2.039  0.00  0.00    -0.028 A 
ATOM     12  C   UNL     1     -13.251  -0.182  -1.055  0.00  0.00    +0.005 A 
ATOM     13  C   UNL     1     -15.206   0.807  -2.069  0.00  0.00    +0.005 A 
ATOM     14  C   UNL     1     -14.064  -0.812  -0.110  0.00  0.00    +0.000 A 
ATOM     15  C   UNL     1     -16.014   0.176  -1.124  0.00  0.00    +0.000 A 
ATOM     16  C   UNL     1     -15.443  -0.632  -0.144  0.00  0.00    +0.000 A 
ENDBRANCH  10  11
ENDBRANCH   1  10
TORSDOF 2
ENDMDL
MODEL 5
REMARK VINA RESULT:    -5.268     14.011     14.980
REMARK INTER + INTRA:          -6.003
REMARK INTER:                  -5.864
REMARK INTRA:                  -0.139
REMARK UNBOUND:                -0.119
REMARK  Name = 1550473
REMARK  2 active torsions:
REMARK  status: ('A' for Active; 'I' for Inactive)
REMARK    1  A    between atoms: N_1  and  C_4
REMARK    2  A    between atoms: C_4  and  C_5
REMARK                            x       y       z     vdW  Elec       q    Type
REMARK                         _______ _______ _______ _____ _____    ______ ____
ROOT
ATOM      1  N   UNL     1     -20.854 -16.883  -0.705  0.00  0.00    -0.354 N 
ATOM      2  N   UNL     1     -22.432 -15.479   0.245  0.00  0.00    -0.372 N 
ATOM      3  N   UNL     1     -20.699 -16.239   1.543  0.00  0.00    -0.372 N 
ATOM      4  C   UNL     1     -21.316 -16.210   0.357  0.00  0.00    +0.166 C 
ATOM      5  H   UNL     1     -21.385 -16.844  -1.568  0.00  0.00    +0.163 HD
ATOM      6  H   UNL     1     -22.803 -14.958   1.029  0.00  0.00    +0.159 HD
ATOM      7  H   UNL     1     -22.935 -15.406  -0.630  0.00  0.00    +0.159 HD
ATOM      8  H   UNL     1     -19.856 -16.777   1.694  0.00  0.00    +0.159 HD
ATOM      9  H   UNL     1     -21.061 -15.734   2.342  0.00  0.00    +0.159 HD
ENDROOT
BRANCH   1  10
ATOM     10  C   UNL     1     -19.619 -17.665  -0.704  0.00  0.00    +0.151 C 
BRANCH  10  11
ATOM     11  C   UNL     1     -18.799 -17.291  -1.908  0.00  0.00    -0.028 A 
ATOM     12  C   UNL     1     -17.805 -18.156  -2.389  0.00  0.00    +0.005 A 
ATOM     13  C   UNL     1     -19.015 -16.075  -2.575  0.00  0.00    +0.005 A 
ATOM     14  C   UNL     1     -17.064 -17.822  -3.525  0.00  0.00    +0.000 A 
ATOM     15  C   UNL     1     -18.272 -15.746  -3.709  0.00  0.00    +0.000 A 
ATOM     16  C   UNL     1     -17.299 -16.620  -4.185  0.00  0.00    +0.000 A 
ENDBRANCH  10  11
ENDBRANCH   1  10
TORSDOF 2
ENDMDL
MODEL 6
REMARK VINA RESULT:    -5.093      9.245     10.845
REMARK INTER + INTRA:          -5.807
REMARK INTER:                  -5.662
REMARK INTRA:                  -0.145
REMARK UNBOUND:                -0.119
REMARK  Name = 1550473
REMARK  2 active torsions:
REMARK  status: ('A' for Active; 'I' for Inactive)
REMARK    1  A    between atoms: N_1  and  C_4
REMARK    2  A    between atoms: C_4  and  C_5
REMARK                            x       y       z     vdW  Elec       q    Type
REMARK                         _______ _______ _______ _____ _____    ______ ____
ROOT
ATOM      1  N   UNL     1      -5.874   6.357  -3.516  0.00  0.00    -0.354 N 
ATOM      2  N   UNL     1      -4.595   6.520  -1.592  0.00  0.00    -0.372 N 
ATOM      3  N   UNL     1      -3.803   5.275  -3.349  0.00  0.00    -0.372 N 
ATOM      4  C   UNL     1      -4.764   6.047  -2.833  0.00  0.00    +0.166 C 
ATOM      5  H   UNL     1      -6.580   6.922  -3.058  0.00  0.00    +0.163 HD
ATOM      6  H   UNL     1      -3.767   6.306  -1.054  0.00  0.00    +0.159 HD
ATOM      7  H   UNL     1      -5.281   7.122  -1.154  0.00  0.00    +0.159 HD
ATOM      8  H   UNL     1      -3.872   4.882  -4.278  0.00  0.00    +0.159 HD
ATOM      9  H   UNL     1      -2.971   5.040  -2.821  0.00  0.00    +0.159 HD
ENDROOT
BRANCH   1  10
ATOM     10  C   UNL     1      -6.131   5.938  -4.893  0.00  0.00    +0.151 C 
BRANCH  10  11
ATOM     11  C   UNL     1      -6.831   4.608  -4.880  0.00  0.00    -0.028 A 
ATOM     12  C   UNL     1      -6.247   3.489  -5.492  0.00  0.00    +0.005 A 
ATOM     13  C   UNL     1      -8.077   4.457  -4.251  0.00  0.00    +0.005 A 
ATOM     14  C   UNL     1      -6.883   2.246  -5.454  0.00  0.00    +0.000 A 
ATOM     15  C   UNL     1      -8.709   3.215  -4.216  0.00  0.00    +0.000 A 
ATOM     16  C   UNL     1      -8.111   2.109  -4.815  0.00  0.00    +0.000 A 
ENDBRANCH  10  11
ENDBRANCH   1  10
TORSDOF 2
ENDMDL
MODEL 7
REMARK VINA RESULT:    -5.024     11.779     13.351
REMARK INTER + INTRA:          -5.731
REMARK INTER:                  -5.597
REMARK INTRA:                  -0.134
REMARK UNBOUND:                -0.119
REMARK  Name = 1550473
REMARK  2 active torsions:
REMARK  status: ('A' for Active; 'I' for Inactive)
REMARK    1  A    between atoms: N_1  and  C_4
REMARK    2  A    between atoms: C_4  and  C_5
REMARK                            x       y       z     vdW  Elec       q    Type
REMARK                         _______ _______ _______ _____ _____    ______ ____
ROOT
ATOM      1  N   UNL     1      -4.924   5.598  -4.433  0.00  0.00    -0.354 N 
ATOM      2  N   UNL     1      -2.945   4.702  -3.629  0.00  0.00    -0.372 N 
ATOM      3  N   UNL     1      -4.405   3.336  -4.755  0.00  0.00    -0.372 N 
ATOM      4  C   UNL     1      -4.106   4.549  -4.279  0.00  0.00    +0.166 C 
ATOM      5  H   UNL     1      -4.653   6.484  -4.023  0.00  0.00    +0.163 HD
ATOM      6  H   UNL     1      -2.306   3.930  -3.500  0.00  0.00    +0.159 HD
ATOM      7  H   UNL     1      -2.656   5.600  -3.260  0.00  0.00    +0.159 HD
ATOM      8  H   UNL     1      -5.268   3.152  -5.249  0.00  0.00    +0.159 HD
ATOM      9  H   UNL     1      -3.783   2.547  -4.625  0.00  0.00    +0.159 HD
ENDROOT
BRANCH   1  10
ATOM     10  C   UNL     1      -6.185   5.550  -5.171  0.00  0.00    +0.151 C 
BRANCH  10  11
ATOM     11  C   UNL     1      -6.153   6.578  -6.268  0.00  0.00    -0.028 A 
ATOM     12  C   UNL     1      -7.275   7.380  -6.525  0.00  0.00    +0.005 A 
ATOM     13  C   UNL     1      -5.001   6.760  -7.049  0.00  0.00    +0.005 A 
ATOM     14  C   UNL     1      -7.235   8.356  -7.524  0.00  0.00    +0.000 A 
ATOM     15  C   UNL     1      -4.966   7.735  -8.046  0.00  0.00    +0.000 A 
ATOM     16  C   UNL     1      -6.082   8.534  -8.281  0.00  0.00    +0.000 A 
ENDBRANCH  10  11
ENDBRANCH   1  10
TORSDOF 2
ENDMDL
MODEL 8
REMARK VINA RESULT:    -5.013     26.224     26.742
REMARK INTER + INTRA:          -5.718
REMARK INTER:                  -5.603
REMARK INTRA:                  -0.115
REMARK UNBOUND:                -0.119
REMARK  Name = 1550473
REMARK  2 active torsions:
REMARK  status: ('A' for Active; 'I' for Inactive)
REMARK    1  A    between atoms: N_1  and  C_4
REMARK    2  A    between atoms: C_4  and  C_5
REMARK                            x       y       z     vdW  Elec       q    Type
REMARK                         _______ _______ _______ _____ _____    ______ ____
ROOT
ATOM      1  N   UNL     1       6.718 -13.791  11.769  0.00  0.00    -0.354 N 
ATOM      2  N   UNL     1       7.586 -15.931  11.934  0.00  0.00    -0.372 N 
ATOM      3  N   UNL     1       6.382 -15.364  10.065  0.00  0.00    -0.372 N 
ATOM      4  C   UNL     1       6.888 -15.015  11.253  0.00  0.00    +0.166 C 
ATOM      5  H   UNL     1       7.101 -13.598  12.688  0.00  0.00    +0.163 HD
ATOM      6  H   UNL     1       7.734 -16.862  11.568  0.00  0.00    +0.159 HD
ATOM      7  H   UNL     1       8.007 -15.722  12.831  0.00  0.00    +0.159 HD
ATOM      8  H   UNL     1       5.841 -14.720   9.504  0.00  0.00    +0.159 HD
ATOM      9  H   UNL     1       6.510 -16.294   9.687  0.00  0.00    +0.159 HD
ENDROOT
BRANCH   1  10
ATOM     10  C   UNL     1       6.020 -12.704  11.084  0.00  0.00    +0.151 C 
BRANCH  10  11
ATOM     11  C   UNL     1       6.795 -11.429  11.270  0.00  0.00    -0.028 A 
ATOM     12  C   UNL     1       7.811 -11.075  10.371  0.00  0.00    +0.005 A 
ATOM     13  C   UNL     1       6.514 -10.566  12.341  0.00  0.00    +0.005 A 
ATOM     14  C   UNL     1       8.511  -9.876  10.526  0.00  0.00    +0.000 A 
ATOM     15  C   UNL     1       7.216  -9.370  12.493  0.00  0.00    +0.000 A 
ATOM     16  C   UNL     1       8.212  -9.025  11.584  0.00  0.00    +0.000 A 
ENDBRANCH  10  11
ENDBRANCH   1  10
TORSDOF 2
ENDMDL
MODEL 9
REMARK VINA RESULT:    -4.962     29.985     30.917
REMARK INTER + INTRA:          -5.661
REMARK INTER:                  -5.558
REMARK INTRA:                  -0.103
REMARK UNBOUND:                -0.119
REMARK  Name = 1550473
REMARK  2 active torsions:
REMARK  status: ('A' for Active; 'I' for Inactive)
REMARK    1  A    between atoms: N_1  and  C_4
REMARK    2  A    between atoms: C_4  and  C_5
REMARK                            x       y       z     vdW  Elec       q    Type
REMARK                         _______ _______ _______ _____ _____    ______ ____
ROOT
ATOM      1  N   UNL     1      15.967  -0.001   2.388  0.00  0.00    -0.354 N 
ATOM      2  N   UNL     1      15.377  -1.979   1.336  0.00  0.00    -0.372 N 
ATOM      3  N   UNL     1      14.499  -1.519   3.405  0.00  0.00    -0.372 N 
ATOM      4  C   UNL     1      15.284  -1.154   2.386  0.00  0.00    +0.166 C 
ATOM      5  H   UNL     1      16.568   0.203   1.598  0.00  0.00    +0.163 HD
ATOM      6  H   UNL     1      14.871  -2.854   1.304  0.00  0.00    +0.159 HD
ATOM      7  H   UNL     1      15.943  -1.750   0.527  0.00  0.00    +0.159 HD
ATOM      8  H   UNL     1      14.390  -0.944   4.230  0.00  0.00    +0.159 HD
ATOM      9  H   UNL     1      13.993  -2.396   3.397  0.00  0.00    +0.159 HD
ENDROOT
BRANCH   1  10
ATOM     10  C   UNL     1      15.891   0.991   3.458  0.00  0.00    +0.151 C 
BRANCH  10  11
ATOM     11  C   UNL     1      16.952   2.035   3.236  0.00  0.00    -0.028 A 
ATOM     12  C   UNL     1      17.066   2.681   1.996  0.00  0.00    +0.005 A 
ATOM     13  C   UNL     1      17.841   2.386   4.263  0.00  0.00    +0.005 A 
ATOM     14  C   UNL     1      18.031   3.671   1.798  0.00  0.00    +0.000 A 
ATOM     15  C   UNL     1      18.804   3.375   4.061  0.00  0.00    +0.000 A 
ATOM     16  C   UNL     1      18.897   4.019   2.830  0.00  0.00    +0.000 A 
ENDBRANCH  10  11
ENDBRANCH   1  10
TORSDOF 2
ENDMDL
