MODEL 1
REMARK VINA RESULT:    -5.341      0.000      0.000
REMARK INTER + INTRA:          -6.107
REMARK INTER:                  -5.966
REMARK INTRA:                  -0.141
REMARK UNBOUND:                -0.141
REMARK  Name = 1550473
REMARK  2 active torsions:
REMARK  status: ('A' for Active; 'I' for Inactive)
REMARK    1  A    between atoms: N_1  and  C_4
REMARK    2  A    between atoms: C_4  and  C_5
REMARK                            x       y       z     vdW  Elec       q    Type
REMARK                         _______ _______ _______ _____ _____    ______ ____
ROOT
ATOM      1  N   UNL     1       6.212   3.298   4.825  0.00  0.00    -0.354 N 
ATOM      2  N   UNL     1       7.760   4.784   5.698  0.00  0.00    -0.372 N 
ATOM      3  N   UNL     1       5.607   5.500   5.354  0.00  0.00    -0.372 N 
ATOM      4  C   UNL     1       6.514   4.520   5.286  0.00  0.00    +0.166 C 
ATOM      5  H   UNL     1       6.952   2.608   4.771  0.00  0.00    +0.163 HD
ATOM      6  H   UNL     1       8.016   5.695   6.053  0.00  0.00    +0.159 HD
ATOM      7  H   UNL     1       8.486   4.079   5.685  0.00  0.00    +0.159 HD
ATOM      8  H   UNL     1       4.650   5.366   5.054  0.00  0.00    +0.159 HD
ATOM      9  H   UNL     1       5.847   6.422   5.696  0.00  0.00    +0.159 HD
ENDROOT
BRANCH   1  10
ATOM     10  C   UNL     1       4.873   2.892   4.404  0.00  0.00    +0.151 C 
BRANCH  10  11
ATOM     11  C   UNL     1       4.966   2.198   3.072  0.00  0.00    -0.028 A 
ATOM     12  C   UNL     1       3.891   1.439   2.588  0.00  0.00    +0.005 A 
ATOM     13  C   UNL     1       6.125   2.302   2.288  0.00  0.00    +0.005 A 
ATOM     14  C   UNL     1       3.967   0.819   1.338  0.00  0.00    +0.000 A 
ATOM     15  C   UNL     1       6.197   1.681   1.041  0.00  0.00    +0.000 A 
ATOM     16  C   UNL     1       5.116   0.942   0.565  0.00  0.00    +0.000 A 
ENDBRANCH  10  11
ENDBRANCH   1  10
TORSDOF 2
ENDMDL
MODEL 2
REMARK VINA RESULT:    -5.081      3.205      4.918
REMARK INTER + INTRA:          -5.816
REMARK INTER:                  -5.671
REMARK INTRA:                  -0.145
REMARK UNBOUND:                -0.141
REMARK  Name = 1550473
REMARK  2 active torsions:
REMARK  status: ('A' for Active; 'I' for Inactive)
REMARK    1  A    between atoms: N_1  and  C_4
REMARK    2  A    between atoms: C_4  and  C_5
REMARK                            x       y       z     vdW  Elec       q    Type
REMARK                         _______ _______ _______ _____ _____    ______ ____
ROOT
ATOM      1  N   UNL     1       3.731   0.378   2.741  0.00  0.00    -0.354 N 
ATOM      2  N   UNL     1       1.511  -0.101   2.285  0.00  0.00    -0.372 N 
ATOM      3  N   UNL     1       2.816   0.793   0.623  0.00  0.00    -0.372 N 
ATOM      4  C   UNL     1       2.701   0.361   1.884  0.00  0.00    +0.166 C 
ATOM      5  H   UNL     1       3.571   0.065   3.691  0.00  0.00    +0.163 HD
ATOM      6  H   UNL     1       0.717  -0.129   1.660  0.00  0.00    +0.159 HD
ATOM      7  H   UNL     1       1.366  -0.456   3.222  0.00  0.00    +0.159 HD
ATOM      8  H   UNL     1       3.686   1.159   0.260  0.00  0.00    +0.159 HD
ATOM      9  H   UNL     1       2.030   0.784  -0.014  0.00  0.00    +0.159 HD
ENDROOT
BRANCH   1  10
ATOM     10  C   UNL     1       5.082   0.811   2.388  0.00  0.00    +0.151 C 
BRANCH  10  11
ATOM     11  C   UNL     1       5.415   2.058   3.159  0.00  0.00    -0.028 A 
ATOM     12  C   UNL     1       4.606   2.473   4.227  0.00  0.00    +0.005 A 
ATOM     13  C   UNL     1       6.542   2.827   2.829  0.00  0.00    +0.005 A 
ATOM     14  C   UNL     1       4.932   3.615   4.962  0.00  0.00    +0.000 A 
ATOM     15  C   UNL     1       6.863   3.968   3.566  0.00  0.00    +0.000 A 
ATOM     16  C   UNL     1       6.059   4.360   4.633  0.00  0.00    +0.000 A 
ENDBRANCH  10  11
ENDBRANCH   1  10
TORSDOF 2
ENDMDL
MODEL 3
REMARK VINA RESULT:    -4.799     12.462     13.765
REMARK INTER + INTRA:          -5.500
REMARK INTER:                  -5.360
REMARK INTRA:                  -0.141
REMARK UNBOUND:                -0.141
REMARK  Name = 1550473
REMARK  2 active torsions:
REMARK  status: ('A' for Active; 'I' for Inactive)
REMARK    1  A    between atoms: N_1  and  C_4
REMARK    2  A    between atoms: C_4  and  C_5
REMARK                            x       y       z     vdW  Elec       q    Type
REMARK                         _______ _______ _______ _____ _____    ______ ____
ROOT
ATOM      1  N   UNL     1      -5.586   2.315  10.344  0.00  0.00    -0.354 N 
ATOM      2  N   UNL     1      -5.292   4.351   9.280  0.00  0.00    -0.372 N 
ATOM      3  N   UNL     1      -4.887   2.419   8.110  0.00  0.00    -0.372 N 
ATOM      4  C   UNL     1      -5.256   3.013   9.250  0.00  0.00    +0.166 C 
ATOM      5  H   UNL     1      -5.828   2.825  11.186  0.00  0.00    +0.163 HD
ATOM      6  H   UNL     1      -5.051   4.905   8.469  0.00  0.00    +0.159 HD
ATOM      7  H   UNL     1      -5.578   4.857  10.109  0.00  0.00    +0.159 HD
ATOM      8  H   UNL     1      -4.834   1.413   8.023  0.00  0.00    +0.159 HD
ATOM      9  H   UNL     1      -4.631   2.956   7.291  0.00  0.00    +0.159 HD
ENDROOT
BRANCH   1  10
ATOM     10  C   UNL     1      -5.632   0.855  10.400  0.00  0.00    +0.151 C 
BRANCH  10  11
ATOM     11  C   UNL     1      -4.970   0.391  11.668  0.00  0.00    -0.028 A 
ATOM     12  C   UNL     1      -5.089  -0.943  12.086  0.00  0.00    +0.005 A 
ATOM     13  C   UNL     1      -4.218   1.278  12.453  0.00  0.00    +0.005 A 
ATOM     14  C   UNL     1      -4.450  -1.382  13.248  0.00  0.00    +0.000 A 
ATOM     15  C   UNL     1      -3.582   0.836  13.613  0.00  0.00    +0.000 A 
ATOM     16  C   UNL     1      -3.696  -0.494  14.008  0.00  0.00    +0.000 A 
ENDBRANCH  10  11
ENDBRANCH   1  10
TORSDOF 2
ENDMDL
MODEL 4
REMARK VINA RESULT:    -4.504     13.371     14.513
REMARK INTER + INTRA:          -5.171
REMARK INTER:                  -5.070
REMARK INTRA:                  -0.101
REMARK UNBOUND:                -0.141
REMARK  Name = 1550473
REMARK  2 active torsions:
REMARK  status: ('A' for Active; 'I' for Inactive)
REMARK    1  A    between atoms: N_1  and  C_4
REMARK    2  A    between atoms: C_4  and  C_5
REMARK                            x       y       z     vdW  Elec       q    Type
REMARK                         _______ _______ _______ _____ _____    ______ ____
ROOT
ATOM      1  N   UNL     1       3.314 -11.129   1.394  0.00  0.00    -0.354 N 
ATOM      2  N   UNL     1       5.613 -11.379   1.265  0.00  0.00    -0.372 N 
ATOM      3  N   UNL     1       4.755  -9.564   2.376  0.00  0.00    -0.372 N 
ATOM      4  C   UNL     1       4.545 -10.686   1.680  0.00  0.00    +0.166 C 
ATOM      5  H   UNL     1       3.223 -11.971   0.837  0.00  0.00    +0.163 HD
ATOM      6  H   UNL     1       6.554 -11.071   1.469  0.00  0.00    +0.159 HD
ATOM      7  H   UNL     1       5.518 -12.245   0.748  0.00  0.00    +0.159 HD
ATOM      8  H   UNL     1       3.992  -8.992   2.713  0.00  0.00    +0.159 HD
ATOM      9  H   UNL     1       5.690  -9.233   2.580  0.00  0.00    +0.159 HD
ENDROOT
BRANCH   1  10
ATOM     10  C   UNL     1       2.085 -10.478   1.845  0.00  0.00    +0.151 C 
BRANCH  10  11
ATOM     11  C   UNL     1       1.012 -10.684   0.812  0.00  0.00    -0.028 A 
ATOM     12  C   UNL     1       0.645  -9.641  -0.051  0.00  0.00    +0.005 A 
ATOM     13  C   UNL     1       0.362 -11.922   0.687  0.00  0.00    +0.005 A 
ATOM     14  C   UNL     1      -0.330  -9.840  -1.031  0.00  0.00    +0.000 A 
ATOM     15  C   UNL     1      -0.612 -12.117  -0.292  0.00  0.00    +0.000 A 
ATOM     16  C   UNL     1      -0.956 -11.077  -1.153  0.00  0.00    +0.000 A 
ENDBRANCH  10  11
ENDBRANCH   1  10
TORSDOF 2
ENDMDL
MODEL 5
REMARK VINA RESULT:    -4.500     30.843     31.790
REMARK INTER + INTRA:          -5.167
REMARK INTER:                  -5.055
REMARK INTRA:                  -0.111
REMARK UNBOUND:                -0.141
REMARK  Name = 1550473
REMARK  2 active torsions:
REMARK  status: ('A' for Active; 'I' for Inactive)
REMARK    1  A    between atoms: N_1  and  C_4
REMARK    2  A    between atoms: C_4  and  C_5
REMARK                            x       y       z     vdW  Elec       q    Type
REMARK                         _______ _______ _______ _____ _____    ______ ____
ROOT
ATOM      1  N   UNL     1      -5.296  29.547  -8.121  0.00  0.00    -0.354 N 
ATOM      2  N   UNL     1      -6.859  27.959  -7.491  0.00  0.00    -0.372 N 
ATOM      3  N   UNL     1      -7.590  30.022  -8.181  0.00  0.00    -0.372 N 
ATOM      4  C   UNL     1      -6.573  29.188  -7.936  0.00  0.00    +0.166 C 
ATOM      5  H   UNL     1      -4.570  28.879  -7.888  0.00  0.00    +0.163 HD
ATOM      6  H   UNL     1      -7.814  27.658  -7.345  0.00  0.00    +0.159 HD
ATOM      7  H   UNL     1      -6.134  27.278  -7.303  0.00  0.00    +0.159 HD
ATOM      8  H   UNL     1      -7.441  30.965  -8.512  0.00  0.00    +0.159 HD
ATOM      9  H   UNL     1      -8.551  29.744  -8.029  0.00  0.00    +0.159 HD
ENDROOT
BRANCH   1  10
ATOM     10  C   UNL     1      -4.879  30.843  -8.653  0.00  0.00    +0.151 C 
BRANCH  10  11
ATOM     11  C   UNL     1      -3.492  31.153  -8.161  0.00  0.00    -0.028 A 
ATOM     12  C   UNL     1      -2.507  30.155  -8.136  0.00  0.00    +0.005 A 
ATOM     13  C   UNL     1      -3.155  32.444  -7.726  0.00  0.00    +0.005 A 
ATOM     14  C   UNL     1      -1.210  30.450  -7.708  0.00  0.00    +0.000 A 
ATOM     15  C   UNL     1      -1.860  32.734  -7.298  0.00  0.00    +0.000 A 
ATOM     16  C   UNL     1      -0.887  31.737  -7.292  0.00  0.00    +0.000 A 
ENDBRANCH  10  11
ENDBRANCH   1  10
TORSDOF 2
ENDMDL
MODEL 6
REMARK VINA RESULT:    -4.398     38.914     40.804
REMARK INTER + INTRA:          -5.053
REMARK INTER:                  -4.926
REMARK INTRA:                  -0.126
REMARK UNBOUND:                -0.141
REMARK  Name = 1550473
REMARK  2 active torsions:
REMARK  status: ('A' for Active; 'I' for Inactive)
REMARK    1  A    between atoms: N_1  and  C_4
REMARK    2  A    between atoms: C_4  and  C_5
REMARK                            x       y       z     vdW  Elec       q    Type
REMARK                         _______ _______ _______ _____ _____    ______ ____
ROOT
ATOM      1  N   UNL     1      16.135  -6.803  39.928  0.00  0.00    -0.354 N 
ATOM      2  N   UNL     1      17.717  -6.080  38.399  0.00  0.00    -0.372 N 
ATOM      3  N   UNL     1      15.530  -5.446  38.117  0.00  0.00    -0.372 N 
ATOM      4  C   UNL     1      16.448  -6.113  38.823  0.00  0.00    +0.166 C 
ATOM      5  H   UNL     1      16.872  -7.313  40.402  0.00  0.00    +0.163 HD
ATOM      6  H   UNL     1      17.984  -5.566  37.570  0.00  0.00    +0.159 HD
ATOM      7  H   UNL     1      18.459  -6.553  38.900  0.00  0.00    +0.159 HD
ATOM      8  H   UNL     1      14.554  -5.436  38.380  0.00  0.00    +0.159 HD
ATOM      9  H   UNL     1      15.776  -4.934  37.278  0.00  0.00    +0.159 HD
ENDROOT
BRANCH   1  10
ATOM     10  C   UNL     1      14.793  -6.859  40.505  0.00  0.00    +0.151 C 
BRANCH  10  11
ATOM     11  C   UNL     1      14.892  -7.304  41.938  0.00  0.00    -0.028 A 
ATOM     12  C   UNL     1      16.139  -7.606  42.505  0.00  0.00    +0.005 A 
ATOM     13  C   UNL     1      13.743  -7.422  42.735  0.00  0.00    +0.005 A 
ATOM     14  C   UNL     1      16.234  -7.991  43.845  0.00  0.00    +0.000 A 
ATOM     15  C   UNL     1      13.843  -7.808  44.072  0.00  0.00    +0.000 A 
ATOM     16  C   UNL     1      15.089  -8.090  44.627  0.00  0.00    +0.000 A 
ENDBRANCH  10  11
ENDBRANCH   1  10
TORSDOF 2
ENDMDL
MODEL 7
REMARK VINA RESULT:    -4.315      4.061      5.108
REMARK INTER + INTRA:          -4.960
REMARK INTER:                  -4.783
REMARK INTRA:                  -0.177
REMARK UNBOUND:                -0.141
REMARK  Name = 1550473
REMARK  2 active torsions:
REMARK  status: ('A' for Active; 'I' for Inactive)
REMARK    1  A    between atoms: N_1  and  C_4
REMARK    2  A    between atoms: C_4  and  C_5
REMARK                            x       y       z     vdW  Elec       q    Type
REMARK                         _______ _______ _______ _____ _____    ______ ____
ROOT
ATOM      1  N   UNL     1       4.178   0.457   2.560  0.00  0.00    -0.354 N 
ATOM      2  N   UNL     1       2.113   0.349   1.518  0.00  0.00    -0.372 N 
ATOM      3  N   UNL     1       3.876   1.291   0.391  0.00  0.00    -0.372 N 
ATOM      4  C   UNL     1       3.404   0.701   1.494  0.00  0.00    +0.166 C 
ATOM      5  H   UNL     1       3.753   0.034   3.377  0.00  0.00    +0.163 HD
ATOM      6  H   UNL     1       1.505   0.517   0.727  0.00  0.00    +0.159 HD
ATOM      7  H   UNL     1       1.702  -0.116   2.318  0.00  0.00    +0.159 HD
ATOM      8  H   UNL     1       4.840   1.587   0.312  0.00  0.00    +0.159 HD
ATOM      9  H   UNL     1       3.280   1.479  -0.406  0.00  0.00    +0.159 HD
ENDROOT
BRANCH   1  10
ATOM     10  C   UNL     1       5.609   0.752   2.616  0.00  0.00    +0.151 C 
BRANCH  10  11
ATOM     11  C   UNL     1       6.381  -0.533   2.500  0.00  0.00    -0.028 A 
ATOM     12  C   UNL     1       6.697  -1.280   3.644  0.00  0.00    +0.005 A 
ATOM     13  C   UNL     1       6.794  -1.013   1.247  0.00  0.00    +0.005 A 
ATOM     14  C   UNL     1       7.388  -2.489   3.534  0.00  0.00    +0.000 A 
ATOM     15  C   UNL     1       7.484  -2.220   1.141  0.00  0.00    +0.000 A 
ATOM     16  C   UNL     1       7.779  -2.959   2.284  0.00  0.00    +0.000 A 
ENDBRANCH  10  11
ENDBRANCH   1  10
TORSDOF 2
ENDMDL
MODEL 8
REMARK VINA RESULT:    -4.269      4.147      5.571
REMARK INTER + INTRA:          -4.909
REMARK INTER:                  -4.772
REMARK INTRA:                  -0.137
REMARK UNBOUND:                -0.141
REMARK  Name = 1550473
REMARK  2 active torsions:
REMARK  status: ('A' for Active; 'I' for Inactive)
REMARK    1  A    between atoms: N_1  and  C_4
REMARK    2  A    between atoms: C_4  and  C_5
REMARK                            x       y       z     vdW  Elec       q    Type
REMARK                         _______ _______ _______ _____ _____    ______ ____
ROOT
ATOM      1  N   UNL     1       7.631  -0.710   0.208  0.00  0.00    -0.354 N 
ATOM      2  N   UNL     1       9.669  -1.775   0.483  0.00  0.00    -0.372 N 
ATOM      3  N   UNL     1       7.766  -3.047   0.320  0.00  0.00    -0.372 N 
ATOM      4  C   UNL     1       8.340  -1.840   0.335  0.00  0.00    +0.166 C 
ATOM      5  H   UNL     1       8.122   0.175   0.258  0.00  0.00    +0.163 HD
ATOM      6  H   UNL     1      10.231  -2.611   0.578  0.00  0.00    +0.159 HD
ATOM      7  H   UNL     1      10.163  -0.891   0.486  0.00  0.00    +0.159 HD
ATOM      8  H   UNL     1       6.767  -3.164   0.218  0.00  0.00    +0.159 HD
ATOM      9  H   UNL     1       8.311  -3.894   0.425  0.00  0.00    +0.159 HD
ENDROOT
BRANCH   1  10
ATOM     10  C   UNL     1       6.186  -0.673  -0.012  0.00  0.00    +0.151 C 
BRANCH  10  11
ATOM     11  C   UNL     1       5.582   0.379   0.877  0.00  0.00    -0.028 A 
ATOM     12  C   UNL     1       4.196   0.421   1.089  0.00  0.00    +0.005 A 
ATOM     13  C   UNL     1       6.390   1.333   1.514  0.00  0.00    +0.005 A 
ATOM     14  C   UNL     1       3.637   1.379   1.938  0.00  0.00    +0.000 A 
ATOM     15  C   UNL     1       5.828   2.289   2.360  0.00  0.00    +0.000 A 
ATOM     16  C   UNL     1       4.452   2.310   2.574  0.00  0.00    +0.000 A 
ENDBRANCH  10  11
ENDBRANCH   1  10
TORSDOF 2
ENDMDL
MODEL 9
REMARK VINA RESULT:    -4.173     39.143     41.025
REMARK INTER + INTRA:          -4.802
REMARK INTER:                  -4.683
REMARK INTRA:                  -0.119
REMARK UNBOUND:                -0.141
REMARK  Name = 1550473
REMARK  2 active torsions:
REMARK  status: ('A' for Active; 'I' for Inactive)
REMARK    1  A    between atoms: N_1  and  C_4
REMARK    2  A    between atoms: C_4  and  C_5
REMARK                            x       y       z     vdW  Elec       q    Type
REMARK                         _______ _______ _______ _____ _____    ______ ____
ROOT
ATOM      1  N   UNL     1      15.790  -6.700  40.089  0.00  0.00    -0.354 N 
ATOM      2  N   UNL     1      15.662  -5.531  38.094  0.00  0.00    -0.372 N 
ATOM      3  N   UNL     1      17.654  -6.508  38.681  0.00  0.00    -0.372 N 
ATOM      4  C   UNL     1      16.372  -6.254  38.968  0.00  0.00    +0.166 C 
ATOM      5  H   UNL     1      14.824  -6.448  40.263  0.00  0.00    +0.163 HD
ATOM      6  H   UNL     1      16.073  -5.184  37.238  0.00  0.00    +0.159 HD
ATOM      7  H   UNL     1      14.684  -5.319  38.248  0.00  0.00    +0.159 HD
ATOM      8  H   UNL     1      18.246  -7.043  39.302  0.00  0.00    +0.159 HD
ATOM      9  H   UNL     1      18.086  -6.160  37.834  0.00  0.00    +0.159 HD
ENDROOT
BRANCH   1  10
ATOM     10  C   UNL     1      16.460  -7.541  41.079  0.00  0.00    +0.151 C 
BRANCH  10  11
ATOM     11  C   UNL     1      15.609  -7.616  42.317  0.00  0.00    -0.028 A 
ATOM     12  C   UNL     1      14.225  -7.400  42.243  0.00  0.00    +0.005 A 
ATOM     13  C   UNL     1      16.179  -7.908  43.565  0.00  0.00    +0.005 A 
ATOM     14  C   UNL     1      13.429  -7.500  43.387  0.00  0.00    +0.000 A 
ATOM     15  C   UNL     1      15.381  -8.005  44.705  0.00  0.00    +0.000 A 
ATOM     16  C   UNL     1      14.006  -7.803  44.615  0.00  0.00    +0.000 A 
ENDBRANCH  10  11
ENDBRANCH   1  10
TORSDOF 2
ENDMDL
