MODEL 1
REMARK VINA RESULT:    -5.958      0.000      0.000
REMARK INTER + INTRA:          -6.781
REMARK INTER:                  -6.655
REMARK INTRA:                  -0.127
REMARK UNBOUND:                -0.127
REMARK  Name = 1550473
REMARK  2 active torsions:
REMARK  status: ('A' for Active; 'I' for Inactive)
REMARK    1  A    between atoms: N_1  and  C_4
REMARK    2  A    between atoms: C_4  and  C_5
REMARK                            x       y       z     vdW  Elec       q    Type
REMARK                         _______ _______ _______ _____ _____    ______ ____
ROOT
ATOM      1  N   UNL     1       5.843   9.159   1.589  0.00  0.00    -0.354 N 
ATOM      2  N   UNL     1       6.511  11.239   0.821  0.00  0.00    -0.372 N 
ATOM      3  N   UNL     1       6.633   9.440  -0.599  0.00  0.00    -0.372 N 
ATOM      4  C   UNL     1       6.325   9.931   0.607  0.00  0.00    +0.166 C 
ATOM      5  H   UNL     1       5.658   9.586   2.490  0.00  0.00    +0.163 HD
ATOM      6  H   UNL     1       6.871  11.847   0.097  0.00  0.00    +0.159 HD
ATOM      7  H   UNL     1       6.282  11.671   1.707  0.00  0.00    +0.159 HD
ATOM      8  H   UNL     1       6.522   8.460  -0.822  0.00  0.00    +0.159 HD
ATOM      9  H   UNL     1       7.005  10.030  -1.332  0.00  0.00    +0.159 HD
ENDROOT
BRANCH   1  10
ATOM     10  C   UNL     1       5.553   7.733   1.442  0.00  0.00    +0.151 C 
BRANCH  10  11
ATOM     11  C   UNL     1       5.912   7.025   2.719  0.00  0.00    -0.028 A 
ATOM     12  C   UNL     1       6.277   5.671   2.704  0.00  0.00    +0.005 A 
ATOM     13  C   UNL     1       5.895   7.704   3.947  0.00  0.00    +0.005 A 
ATOM     14  C   UNL     1       6.640   5.020   3.886  0.00  0.00    +0.000 A 
ATOM     15  C   UNL     1       6.257   7.050   5.125  0.00  0.00    +0.000 A 
ATOM     16  C   UNL     1       6.632   5.709   5.094  0.00  0.00    +0.000 A 
ENDBRANCH  10  11
ENDBRANCH   1  10
TORSDOF 2
ENDMDL
MODEL 2
REMARK VINA RESULT:    -5.913     11.535     13.286
REMARK INTER + INTRA:          -6.731
REMARK INTER:                  -6.609
REMARK INTRA:                  -0.122
REMARK UNBOUND:                -0.127
REMARK  Name = 1550473
REMARK  2 active torsions:
REMARK  status: ('A' for Active; 'I' for Inactive)
REMARK    1  A    between atoms: N_1  and  C_4
REMARK    2  A    between atoms: C_4  and  C_5
REMARK                            x       y       z     vdW  Elec       q    Type
REMARK                         _______ _______ _______ _____ _____    ______ ____
ROOT
ATOM      1  N   UNL     1       2.537  -4.768   6.269  0.00  0.00    -0.354 N 
ATOM      2  N   UNL     1       3.012  -5.930   8.216  0.00  0.00    -0.372 N 
ATOM      3  N   UNL     1       1.029  -6.337   7.137  0.00  0.00    -0.372 N 
ATOM      4  C   UNL     1       2.187  -5.672   7.194  0.00  0.00    +0.166 C 
ATOM      5  H   UNL     1       3.415  -4.276   6.385  0.00  0.00    +0.163 HD
ATOM      6  H   UNL     1       2.777  -6.609   8.927  0.00  0.00    +0.159 HD
ATOM      7  H   UNL     1       3.910  -5.469   8.305  0.00  0.00    +0.159 HD
ATOM      8  H   UNL     1       0.359  -6.185   6.395  0.00  0.00    +0.159 HD
ATOM      9  H   UNL     1       0.770  -7.012   7.846  0.00  0.00    +0.159 HD
ENDROOT
BRANCH   1  10
ATOM     10  C   UNL     1       1.735  -4.453   5.088  0.00  0.00    +0.151 C 
BRANCH  10  11
ATOM     11  C   UNL     1       2.310  -3.239   4.413  0.00  0.00    -0.028 A 
ATOM     12  C   UNL     1       3.602  -2.794   4.729  0.00  0.00    +0.005 A 
ATOM     13  C   UNL     1       1.571  -2.534   3.451  0.00  0.00    +0.005 A 
ATOM     14  C   UNL     1       4.148  -1.684   4.079  0.00  0.00    +0.000 A 
ATOM     15  C   UNL     1       2.120  -1.426   2.806  0.00  0.00    +0.000 A 
ATOM     16  C   UNL     1       3.409  -1.003   3.118  0.00  0.00    +0.000 A 
ENDBRANCH  10  11
ENDBRANCH   1  10
TORSDOF 2
ENDMDL
MODEL 3
REMARK VINA RESULT:    -5.825     10.239     11.648
REMARK INTER + INTRA:          -6.632
REMARK INTER:                  -6.454
REMARK INTRA:                  -0.178
REMARK UNBOUND:                -0.127
REMARK  Name = 1550473
REMARK  2 active torsions:
REMARK  status: ('A' for Active; 'I' for Inactive)
REMARK    1  A    between atoms: N_1  and  C_4
REMARK    2  A    between atoms: C_4  and  C_5
REMARK                            x       y       z     vdW  Elec       q    Type
REMARK                         _______ _______ _______ _____ _____    ______ ____
ROOT
ATOM      1  N   UNL     1       4.288  -2.473   4.439  0.00  0.00    -0.354 N 
ATOM      2  N   UNL     1       3.892  -3.855   6.254  0.00  0.00    -0.372 N 
ATOM      3  N   UNL     1       2.595  -1.982   5.982  0.00  0.00    -0.372 N 
ATOM      4  C   UNL     1       3.592  -2.759   5.547  0.00  0.00    +0.166 C 
ATOM      5  H   UNL     1       5.053  -3.086   4.179  0.00  0.00    +0.163 HD
ATOM      6  H   UNL     1       3.382  -4.099   7.093  0.00  0.00    +0.159 HD
ATOM      7  H   UNL     1       4.626  -4.491   5.967  0.00  0.00    +0.159 HD
ATOM      8  H   UNL     1       2.323  -1.137   5.497  0.00  0.00    +0.159 HD
ATOM      9  H   UNL     1       2.080  -2.202   6.826  0.00  0.00    +0.159 HD
ENDROOT
BRANCH   1  10
ATOM     10  C   UNL     1       4.008  -1.332   3.568  0.00  0.00    +0.151 C 
BRANCH  10  11
ATOM     11  C   UNL     1       3.187  -1.799   2.397  0.00  0.00    -0.028 A 
ATOM     12  C   UNL     1       1.792  -1.659   2.405  0.00  0.00    +0.005 A 
ATOM     13  C   UNL     1       3.800  -2.376   1.275  0.00  0.00    +0.005 A 
ATOM     14  C   UNL     1       1.032  -2.064   1.305  0.00  0.00    +0.000 A 
ATOM     15  C   UNL     1       3.038  -2.780   0.179  0.00  0.00    +0.000 A 
ATOM     16  C   UNL     1       1.654  -2.622   0.193  0.00  0.00    +0.000 A 
ENDBRANCH  10  11
ENDBRANCH   1  10
TORSDOF 2
ENDMDL
MODEL 4
REMARK VINA RESULT:    -5.670      3.730      5.130
REMARK INTER + INTRA:          -6.459
REMARK INTER:                  -6.305
REMARK INTRA:                  -0.154
REMARK UNBOUND:                -0.127
REMARK  Name = 1550473
REMARK  2 active torsions:
REMARK  status: ('A' for Active; 'I' for Inactive)
REMARK    1  A    between atoms: N_1  and  C_4
REMARK    2  A    between atoms: C_4  and  C_5
REMARK                            x       y       z     vdW  Elec       q    Type
REMARK                         _______ _______ _______ _____ _____    ______ ____
ROOT
ATOM      1  N   UNL     1       4.036   4.596   3.954  0.00  0.00    -0.354 N 
ATOM      2  N   UNL     1       2.334   3.195   3.246  0.00  0.00    -0.372 N 
ATOM      3  N   UNL     1       4.504   2.647   2.740  0.00  0.00    -0.372 N 
ATOM      4  C   UNL     1       3.638   3.487   3.317  0.00  0.00    +0.166 C 
ATOM      5  H   UNL     1       3.328   5.208   4.344  0.00  0.00    +0.163 HD
ATOM      6  H   UNL     1       2.003   2.363   2.775  0.00  0.00    +0.159 HD
ATOM      7  H   UNL     1       1.631   3.784   3.676  0.00  0.00    +0.159 HD
ATOM      8  H   UNL     1       5.501   2.814   2.753  0.00  0.00    +0.159 HD
ATOM      9  H   UNL     1       4.192   1.816   2.254  0.00  0.00    +0.159 HD
ENDROOT
BRANCH   1  10
ATOM     10  C   UNL     1       5.436   4.978   4.134  0.00  0.00    +0.151 C 
BRANCH  10  11
ATOM     11  C   UNL     1       5.651   6.347   3.552  0.00  0.00    -0.028 A 
ATOM     12  C   UNL     1       5.537   6.559   2.170  0.00  0.00    +0.005 A 
ATOM     13  C   UNL     1       5.963   7.439   4.377  0.00  0.00    +0.005 A 
ATOM     14  C   UNL     1       5.707   7.837   1.632  0.00  0.00    +0.000 A 
ATOM     15  C   UNL     1       6.133   8.713   3.835  0.00  0.00    +0.000 A 
ATOM     16  C   UNL     1       6.002   8.912   2.463  0.00  0.00    +0.000 A 
ENDBRANCH  10  11
ENDBRANCH   1  10
TORSDOF 2
ENDMDL
MODEL 5
REMARK VINA RESULT:    -5.660     10.920     11.837
REMARK INTER + INTRA:          -6.448
REMARK INTER:                  -6.336
REMARK INTRA:                  -0.112
REMARK UNBOUND:                -0.127
REMARK  Name = 1550473
REMARK  2 active torsions:
REMARK  status: ('A' for Active; 'I' for Inactive)
REMARK    1  A    between atoms: N_1  and  C_4
REMARK    2  A    between atoms: C_4  and  C_5
REMARK                            x       y       z     vdW  Elec       q    Type
REMARK                         _______ _______ _______ _____ _____    ______ ____
ROOT
ATOM      1  N   UNL     1       3.893  -2.135   5.509  0.00  0.00    -0.354 N 
ATOM      2  N   UNL     1       5.634  -3.135   6.664  0.00  0.00    -0.372 N 
ATOM      3  N   UNL     1       3.587  -4.171   6.628  0.00  0.00    -0.372 N 
ATOM      4  C   UNL     1       4.358  -3.142   6.260  0.00  0.00    +0.166 C 
ATOM      5  H   UNL     1       4.520  -1.369   5.290  0.00  0.00    +0.163 HD
ATOM      6  H   UNL     1       6.014  -3.883   7.228  0.00  0.00    +0.159 HD
ATOM      7  H   UNL     1       6.270  -2.391   6.404  0.00  0.00    +0.159 HD
ATOM      8  H   UNL     1       2.613  -4.234   6.361  0.00  0.00    +0.159 HD
ATOM      9  H   UNL     1       3.946  -4.924   7.202  0.00  0.00    +0.159 HD
ENDROOT
BRANCH   1  10
ATOM     10  C   UNL     1       2.534  -2.074   4.974  0.00  0.00    +0.151 C 
BRANCH  10  11
ATOM     11  C   UNL     1       2.591  -2.192   3.475  0.00  0.00    -0.028 A 
ATOM     12  C   UNL     1       3.818  -2.382   2.823  0.00  0.00    +0.005 A 
ATOM     13  C   UNL     1       1.421  -2.121   2.704  0.00  0.00    +0.005 A 
ATOM     14  C   UNL     1       3.868  -2.522   1.433  0.00  0.00    +0.000 A 
ATOM     15  C   UNL     1       1.476  -2.260   1.317  0.00  0.00    +0.000 A 
ATOM     16  C   UNL     1       2.699  -2.463   0.682  0.00  0.00    +0.000 A 
ENDBRANCH  10  11
ENDBRANCH   1  10
TORSDOF 2
ENDMDL
MODEL 6
REMARK VINA RESULT:    -5.589      2.206      3.200
REMARK INTER + INTRA:          -6.369
REMARK INTER:                  -6.259
REMARK INTRA:                  -0.110
REMARK UNBOUND:                -0.127
REMARK  Name = 1550473
REMARK  2 active torsions:
REMARK  status: ('A' for Active; 'I' for Inactive)
REMARK    1  A    between atoms: N_1  and  C_4
REMARK    2  A    between atoms: C_4  and  C_5
REMARK                            x       y       z     vdW  Elec       q    Type
REMARK                         _______ _______ _______ _____ _____    ______ ____
ROOT
ATOM      1  N   UNL     1       6.065   6.422   0.694  0.00  0.00    -0.354 N 
ATOM      2  N   UNL     1       7.456   7.559  -0.768  0.00  0.00    -0.372 N 
ATOM      3  N   UNL     1       6.659   8.655   1.084  0.00  0.00    -0.372 N 
ATOM      4  C   UNL     1       6.717   7.540   0.348  0.00  0.00    +0.166 C 
ATOM      5  H   UNL     1       6.125   5.620   0.077  0.00  0.00    +0.163 HD
ATOM      6  H   UNL     1       7.962   8.387  -1.052  0.00  0.00    +0.159 HD
ATOM      7  H   UNL     1       7.551   6.742  -1.358  0.00  0.00    +0.159 HD
ATOM      8  H   UNL     1       6.114   8.708   1.934  0.00  0.00    +0.159 HD
ATOM      9  H   UNL     1       7.149   9.498   0.809  0.00  0.00    +0.159 HD
ENDROOT
BRANCH   1  10
ATOM     10  C   UNL     1       5.277   6.280   1.917  0.00  0.00    +0.151 C 
BRANCH  10  11
ATOM     11  C   UNL     1       5.360   4.856   2.392  0.00  0.00    -0.028 A 
ATOM     12  C   UNL     1       6.530   4.376   2.999  0.00  0.00    +0.005 A 
ATOM     13  C   UNL     1       4.271   3.984   2.245  0.00  0.00    +0.005 A 
ATOM     14  C   UNL     1       6.597   3.061   3.468  0.00  0.00    +0.000 A 
ATOM     15  C   UNL     1       4.342   2.673   2.714  0.00  0.00    +0.000 A 
ATOM     16  C   UNL     1       5.505   2.212   3.328  0.00  0.00    +0.000 A 
ENDBRANCH  10  11
ENDBRANCH   1  10
TORSDOF 2
ENDMDL
MODEL 7
REMARK VINA RESULT:    -5.451      1.875      2.806
REMARK INTER + INTRA:          -6.215
REMARK INTER:                  -6.063
REMARK INTRA:                  -0.152
REMARK UNBOUND:                -0.127
REMARK  Name = 1550473
REMARK  2 active torsions:
REMARK  status: ('A' for Active; 'I' for Inactive)
REMARK    1  A    between atoms: N_1  and  C_4
REMARK    2  A    between atoms: C_4  and  C_5
REMARK                            x       y       z     vdW  Elec       q    Type
REMARK                         _______ _______ _______ _____ _____    ______ ____
ROOT
ATOM      1  N   UNL     1       6.233   6.006   0.324  0.00  0.00    -0.354 N 
ATOM      2  N   UNL     1       7.857   5.882  -1.323  0.00  0.00    -0.372 N 
ATOM      3  N   UNL     1       7.097   7.946  -0.667  0.00  0.00    -0.372 N 
ATOM      4  C   UNL     1       7.051   6.615  -0.545  0.00  0.00    +0.166 C 
ATOM      5  H   UNL     1       6.223   4.993   0.347  0.00  0.00    +0.163 HD
ATOM      6  H   UNL     1       8.488   6.313  -1.985  0.00  0.00    +0.159 HD
ATOM      7  H   UNL     1       7.879   4.871  -1.265  0.00  0.00    +0.159 HD
ATOM      8  H   UNL     1       6.510   8.555  -0.114  0.00  0.00    +0.159 HD
ATOM      9  H   UNL     1       7.714   8.396  -1.333  0.00  0.00    +0.159 HD
ENDROOT
BRANCH   1  10
ATOM     10  C   UNL     1       5.355   6.714   1.254  0.00  0.00    +0.151 C 
BRANCH  10  11
ATOM     11  C   UNL     1       5.838   6.482   2.659  0.00  0.00    -0.028 A 
ATOM     12  C   UNL     1       5.716   7.488   3.629  0.00  0.00    +0.005 A 
ATOM     13  C   UNL     1       6.414   5.257   3.028  0.00  0.00    +0.005 A 
ATOM     14  C   UNL     1       6.138   7.263   4.941  0.00  0.00    +0.000 A 
ATOM     15  C   UNL     1       6.835   5.037   4.339  0.00  0.00    +0.000 A 
ATOM     16  C   UNL     1       6.694   6.039   5.296  0.00  0.00    +0.000 A 
ENDBRANCH  10  11
ENDBRANCH   1  10
TORSDOF 2
ENDMDL
MODEL 8
REMARK VINA RESULT:    -5.390     15.939     16.783
REMARK INTER + INTRA:          -6.147
REMARK INTER:                  -6.050
REMARK INTRA:                  -0.097
REMARK UNBOUND:                -0.127
REMARK  Name = 1550473
REMARK  2 active torsions:
REMARK  status: ('A' for Active; 'I' for Inactive)
REMARK    1  A    between atoms: N_1  and  C_4
REMARK    2  A    between atoms: C_4  and  C_5
REMARK                            x       y       z     vdW  Elec       q    Type
REMARK                         _______ _______ _______ _____ _____    ______ ____
ROOT
ATOM      1  N   UNL     1      -3.687  -5.046  -1.592  0.00  0.00    -0.354 N 
ATOM      2  N   UNL     1      -2.630  -4.479  -3.573  0.00  0.00    -0.372 N 
ATOM      3  N   UNL     1      -2.934  -6.698  -3.073  0.00  0.00    -0.372 N 
ATOM      4  C   UNL     1      -3.090  -5.414  -2.733  0.00  0.00    +0.166 C 
ATOM      5  H   UNL     1      -3.748  -4.057  -1.377  0.00  0.00    +0.163 HD
ATOM      6  H   UNL     1      -2.178  -4.727  -4.443  0.00  0.00    +0.159 HD
ATOM      7  H   UNL     1      -2.732  -3.491  -3.378  0.00  0.00    +0.159 HD
ATOM      8  H   UNL     1      -3.254  -7.452  -2.480  0.00  0.00    +0.159 HD
ATOM      9  H   UNL     1      -2.474  -6.966  -3.934  0.00  0.00    +0.159 HD
ENDROOT
BRANCH   1  10
ATOM     10  C   UNL     1      -4.271  -5.984  -0.635  0.00  0.00    +0.151 C 
BRANCH  10  11
ATOM     11  C   UNL     1      -4.326  -5.334   0.720  0.00  0.00    -0.028 A 
ATOM     12  C   UNL     1      -5.478  -4.648   1.135  0.00  0.00    +0.005 A 
ATOM     13  C   UNL     1      -3.232  -5.403   1.596  0.00  0.00    +0.005 A 
ATOM     14  C   UNL     1      -5.541  -4.070   2.404  0.00  0.00    +0.000 A 
ATOM     15  C   UNL     1      -3.299  -4.823   2.863  0.00  0.00    +0.000 A 
ATOM     16  C   UNL     1      -4.454  -4.159   3.268  0.00  0.00    +0.000 A 
ENDBRANCH  10  11
ENDBRANCH   1  10
TORSDOF 2
ENDMDL
MODEL 9
REMARK VINA RESULT:    -5.378     13.621     15.259
REMARK INTER + INTRA:          -6.133
REMARK INTER:                  -6.017
REMARK INTRA:                  -0.116
REMARK UNBOUND:                -0.127
REMARK  Name = 1550473
REMARK  2 active torsions:
REMARK  status: ('A' for Active; 'I' for Inactive)
REMARK    1  A    between atoms: N_1  and  C_4
REMARK    2  A    between atoms: C_4  and  C_5
REMARK                            x       y       z     vdW  Elec       q    Type
REMARK                         _______ _______ _______ _____ _____    ______ ____
ROOT
ATOM      1  N   UNL     1       9.890  10.212  15.891  0.00  0.00    -0.354 N 
ATOM      2  N   UNL     1      10.983   8.581  14.663  0.00  0.00    -0.372 N 
ATOM      3  N   UNL     1      10.839  10.704  13.805  0.00  0.00    -0.372 N 
ATOM      4  C   UNL     1      10.564   9.845  14.792  0.00  0.00    +0.166 C 
ATOM      5  H   UNL     1       9.687   9.506  16.589  0.00  0.00    +0.163 HD
ATOM      6  H   UNL     1      11.497   8.276  13.847  0.00  0.00    +0.159 HD
ATOM      7  H   UNL     1      10.819   7.888  15.383  0.00  0.00    +0.159 HD
ATOM      8  H   UNL     1      10.545  11.671  13.839  0.00  0.00    +0.159 HD
ATOM      9  H   UNL     1      11.342  10.415  12.976  0.00  0.00    +0.159 HD
ENDROOT
BRANCH   1  10
ATOM     10  C   UNL     1       9.436  11.577  16.154  0.00  0.00    +0.151 C 
BRANCH  10  11
ATOM     11  C   UNL     1       8.393  11.547  17.237  0.00  0.00    -0.028 A 
ATOM     12  C   UNL     1       8.395  12.513  18.253  0.00  0.00    +0.005 A 
ATOM     13  C   UNL     1       7.397  10.559  17.249  0.00  0.00    +0.005 A 
ATOM     14  C   UNL     1       7.408  12.504  19.243  0.00  0.00    +0.000 A 
ATOM     15  C   UNL     1       6.414  10.552  18.239  0.00  0.00    +0.000 A 
ATOM     16  C   UNL     1       6.419  11.526  19.234  0.00  0.00    +0.000 A 
ENDBRANCH  10  11
ENDBRANCH   1  10
TORSDOF 2
ENDMDL
