MODEL 1
REMARK VINA RESULT:    -5.329      0.000      0.000
REMARK INTER + INTRA:          -6.118
REMARK INTER:                  -5.952
REMARK INTRA:                  -0.166
REMARK UNBOUND:                -0.166
REMARK  Name = 1550473
REMARK  2 active torsions:
REMARK  status: ('A' for Active; 'I' for Inactive)
REMARK    1  A    between atoms: N_1  and  C_4
REMARK    2  A    between atoms: C_4  and  C_5
REMARK                            x       y       z     vdW  Elec       q    Type
REMARK                         _______ _______ _______ _____ _____    ______ ____
ROOT
ATOM      1  N   UNL     1       2.560   9.258  22.104  0.00  0.00    -0.354 N 
ATOM      2  N   UNL     1       4.140  10.855  21.543  0.00  0.00    -0.372 N 
ATOM      3  N   UNL     1       3.856  10.303  23.752  0.00  0.00    -0.372 N 
ATOM      4  C   UNL     1       3.508  10.128  22.473  0.00  0.00    +0.166 C 
ATOM      5  H   UNL     1       2.321   9.194  21.121  0.00  0.00    +0.163 HD
ATOM      6  H   UNL     1       4.863  11.518  21.792  0.00  0.00    +0.159 HD
ATOM      7  H   UNL     1       3.932  10.756  20.557  0.00  0.00    +0.159 HD
ATOM      8  H   UNL     1       3.414   9.789  24.503  0.00  0.00    +0.159 HD
ATOM      9  H   UNL     1       4.569  10.969  24.022  0.00  0.00    +0.159 HD
ENDROOT
BRANCH   1  10
ATOM     10  C   UNL     1       1.850   8.379  23.032  0.00  0.00    +0.151 C 
BRANCH  10  11
ATOM     11  C   UNL     1       2.384   6.981  22.891  0.00  0.00    -0.028 A 
ATOM     12  C   UNL     1       3.555   6.595  23.559  0.00  0.00    +0.005 A 
ATOM     13  C   UNL     1       1.720   6.034  22.095  0.00  0.00    +0.005 A 
ATOM     14  C   UNL     1       4.035   5.288  23.452  0.00  0.00    +0.000 A 
ATOM     15  C   UNL     1       2.203   4.730  21.991  0.00  0.00    +0.000 A 
ATOM     16  C   UNL     1       3.359   4.357  22.671  0.00  0.00    +0.000 A 
ENDBRANCH  10  11
ENDBRANCH   1  10
TORSDOF 2
ENDMDL
MODEL 2
REMARK VINA RESULT:    -5.286      1.875      2.511
REMARK INTER + INTRA:          -6.071
REMARK INTER:                  -5.911
REMARK INTRA:                  -0.160
REMARK UNBOUND:                -0.166
REMARK  Name = 1550473
REMARK  2 active torsions:
REMARK  status: ('A' for Active; 'I' for Inactive)
REMARK    1  A    between atoms: N_1  and  C_4
REMARK    2  A    between atoms: C_4  and  C_5
REMARK                            x       y       z     vdW  Elec       q    Type
REMARK                         _______ _______ _______ _____ _____    ______ ____
ROOT
ATOM      1  N   UNL     1       0.095   8.388  22.669  0.00  0.00    -0.354 N 
ATOM      2  N   UNL     1      -0.312   9.391  20.621  0.00  0.00    -0.372 N 
ATOM      3  N   UNL     1       1.840   9.318  21.411  0.00  0.00    -0.372 N 
ATOM      4  C   UNL     1       0.546   9.026  21.581  0.00  0.00    +0.166 C 
ATOM      5  H   UNL     1      -0.902   8.224  22.751  0.00  0.00    +0.163 HD
ATOM      6  H   UNL     1      -0.000   9.870  19.787  0.00  0.00    +0.159 HD
ATOM      7  H   UNL     1      -1.302   9.184  20.685  0.00  0.00    +0.159 HD
ATOM      8  H   UNL     1       2.539   9.075  22.102  0.00  0.00    +0.159 HD
ATOM      9  H   UNL     1       2.170   9.807  20.589  0.00  0.00    +0.159 HD
ENDROOT
BRANCH   1  10
ATOM     10  C   UNL     1       0.954   7.901  23.746  0.00  0.00    +0.151 C 
BRANCH  10  11
ATOM     11  C   UNL     1       1.325   6.470  23.470  0.00  0.00    -0.028 A 
ATOM     12  C   UNL     1       2.596   6.148  22.973  0.00  0.00    +0.005 A 
ATOM     13  C   UNL     1       0.411   5.432  23.708  0.00  0.00    +0.005 A 
ATOM     14  C   UNL     1       2.952   4.816  22.745  0.00  0.00    +0.000 A 
ATOM     15  C   UNL     1       0.770   4.104  23.478  0.00  0.00    +0.000 A 
ATOM     16  C   UNL     1       2.041   3.796  22.998  0.00  0.00    +0.000 A 
ENDBRANCH  10  11
ENDBRANCH   1  10
TORSDOF 2
ENDMDL
MODEL 3
REMARK VINA RESULT:    -4.792     17.592     19.096
REMARK INTER + INTRA:          -5.518
REMARK INTER:                  -5.383
REMARK INTRA:                  -0.135
REMARK UNBOUND:                -0.166
REMARK  Name = 1550473
REMARK  2 active torsions:
REMARK  status: ('A' for Active; 'I' for Inactive)
REMARK    1  A    between atoms: N_1  and  C_4
REMARK    2  A    between atoms: C_4  and  C_5
REMARK                            x       y       z     vdW  Elec       q    Type
REMARK                         _______ _______ _______ _____ _____    ______ ____
ROOT
ATOM      1  N   UNL     1     -13.402  -1.810  16.392  0.00  0.00    -0.354 N 
ATOM      2  N   UNL     1     -13.614  -1.507  14.106  0.00  0.00    -0.372 N 
ATOM      3  N   UNL     1     -15.460  -1.223  15.438  0.00  0.00    -0.372 N 
ATOM      4  C   UNL     1     -14.160  -1.515  15.328  0.00  0.00    +0.166 C 
ATOM      5  H   UNL     1     -12.430  -2.052  16.239  0.00  0.00    +0.163 HD
ATOM      6  H   UNL     1     -14.160  -1.285  13.284  0.00  0.00    +0.159 HD
ATOM      7  H   UNL     1     -12.631  -1.705  13.960  0.00  0.00    +0.159 HD
ATOM      8  H   UNL     1     -15.934  -1.217  16.331  0.00  0.00    +0.159 HD
ATOM      9  H   UNL     1     -16.026  -1.009  14.626  0.00  0.00    +0.159 HD
ENDROOT
BRANCH   1  10
ATOM     10  C   UNL     1     -13.887  -1.794  17.771  0.00  0.00    +0.151 C 
BRANCH  10  11
ATOM     11  C   UNL     1     -12.814  -1.231  18.662  0.00  0.00    -0.028 A 
ATOM     12  C   UNL     1     -12.766  -1.573  20.022  0.00  0.00    +0.005 A 
ATOM     13  C   UNL     1     -11.840  -0.359  18.152  0.00  0.00    +0.005 A 
ATOM     14  C   UNL     1     -11.752  -1.074  20.843  0.00  0.00    +0.000 A 
ATOM     15  C   UNL     1     -10.830   0.138  18.976  0.00  0.00    +0.000 A 
ATOM     16  C   UNL     1     -10.785  -0.222  20.321  0.00  0.00    +0.000 A 
ENDBRANCH  10  11
ENDBRANCH   1  10
TORSDOF 2
ENDMDL
MODEL 4
REMARK VINA RESULT:    -4.752     27.456     28.329
REMARK INTER + INTRA:          -5.473
REMARK INTER:                  -5.337
REMARK INTRA:                  -0.136
REMARK UNBOUND:                -0.166
REMARK  Name = 1550473
REMARK  2 active torsions:
REMARK  status: ('A' for Active; 'I' for Inactive)
REMARK    1  A    between atoms: N_1  and  C_4
REMARK    2  A    between atoms: C_4  and  C_5
REMARK                            x       y       z     vdW  Elec       q    Type
REMARK                         _______ _______ _______ _____ _____    ______ ____
ROOT
ATOM      1  N   UNL     1       8.930   0.959  -5.123  0.00  0.00    -0.354 N 
ATOM      2  N   UNL     1       6.823   0.347  -5.864  0.00  0.00    -0.372 N 
ATOM      3  N   UNL     1       7.669  -0.651  -3.978  0.00  0.00    -0.372 N 
ATOM      4  C   UNL     1       7.822   0.221  -4.981  0.00  0.00    +0.166 C 
ATOM      5  H   UNL     1       8.996   1.580  -5.922  0.00  0.00    +0.163 HD
ATOM      6  H   UNL     1       5.973  -0.195  -5.781  0.00  0.00    +0.159 HD
ATOM      7  H   UNL     1       6.873   1.001  -6.635  0.00  0.00    +0.159 HD
ATOM      8  H   UNL     1       8.388  -0.797  -3.283  0.00  0.00    +0.159 HD
ATOM      9  H   UNL     1       6.831  -1.211  -3.885  0.00  0.00    +0.159 HD
ENDROOT
BRANCH   1  10
ATOM     10  C   UNL     1      10.053   0.937  -4.187  0.00  0.00    +0.151 C 
BRANCH  10  11
ATOM     11  C   UNL     1      10.313   2.335  -3.699  0.00  0.00    -0.028 A 
ATOM     12  C   UNL     1       9.698   2.807  -2.530  0.00  0.00    +0.005 A 
ATOM     13  C   UNL     1      11.179   3.191  -4.397  0.00  0.00    +0.005 A 
ATOM     14  C   UNL     1       9.963   4.096  -2.060  0.00  0.00    +0.000 A 
ATOM     15  C   UNL     1      11.440   4.477  -3.924  0.00  0.00    +0.000 A 
ATOM     16  C   UNL     1      10.834   4.928  -2.754  0.00  0.00    +0.000 A 
ENDBRANCH  10  11
ENDBRANCH   1  10
TORSDOF 2
ENDMDL
MODEL 5
REMARK VINA RESULT:    -4.647      6.064      7.334
REMARK INTER + INTRA:          -5.357
REMARK INTER:                  -5.220
REMARK INTRA:                  -0.136
REMARK UNBOUND:                -0.166
REMARK  Name = 1550473
REMARK  2 active torsions:
REMARK  status: ('A' for Active; 'I' for Inactive)
REMARK    1  A    between atoms: N_1  and  C_4
REMARK    2  A    between atoms: C_4  and  C_5
REMARK                            x       y       z     vdW  Elec       q    Type
REMARK                         _______ _______ _______ _____ _____    ______ ____
ROOT
ATOM      1  N   UNL     1       5.222   3.411  19.057  0.00  0.00    -0.354 N 
ATOM      2  N   UNL     1       7.410   3.506  18.303  0.00  0.00    -0.372 N 
ATOM      3  N   UNL     1       5.807   4.734  17.213  0.00  0.00    -0.372 N 
ATOM      4  C   UNL     1       6.131   3.884  18.194  0.00  0.00    +0.166 C 
ATOM      5  H   UNL     1       5.526   2.746  19.759  0.00  0.00    +0.163 HD
ATOM      6  H   UNL     1       8.119   3.849  17.668  0.00  0.00    +0.159 HD
ATOM      7  H   UNL     1       7.719   2.877  19.034  0.00  0.00    +0.159 HD
ATOM      8  H   UNL     1       4.858   5.054  17.073  0.00  0.00    +0.159 HD
ATOM      9  H   UNL     1       6.500   5.079  16.561  0.00  0.00    +0.159 HD
ENDROOT
BRANCH   1  10
ATOM     10  C   UNL     1       3.814   3.802  19.057  0.00  0.00    +0.151 C 
BRANCH  10  11
ATOM     11  C   UNL     1       3.044   2.867  18.166  0.00  0.00    -0.028 A 
ATOM     12  C   UNL     1       2.495   3.325  16.959  0.00  0.00    +0.005 A 
ATOM     13  C   UNL     1       2.863   1.521  18.520  0.00  0.00    +0.005 A 
ATOM     14  C   UNL     1       1.806   2.450  16.116  0.00  0.00    +0.000 A 
ATOM     15  C   UNL     1       2.173   0.651  17.676  0.00  0.00    +0.000 A 
ATOM     16  C   UNL     1       1.647   1.115  16.473  0.00  0.00    +0.000 A 
ENDBRANCH  10  11
ENDBRANCH   1  10
TORSDOF 2
ENDMDL
MODEL 6
REMARK VINA RESULT:    -4.638      4.133      5.372
REMARK INTER + INTRA:          -5.346
REMARK INTER:                  -5.248
REMARK INTRA:                  -0.098
REMARK UNBOUND:                -0.166
REMARK  Name = 1550473
REMARK  2 active torsions:
REMARK  status: ('A' for Active; 'I' for Inactive)
REMARK    1  A    between atoms: N_1  and  C_4
REMARK    2  A    between atoms: C_4  and  C_5
REMARK                            x       y       z     vdW  Elec       q    Type
REMARK                         _______ _______ _______ _____ _____    ______ ____
ROOT
ATOM      1  N   UNL     1       3.229   3.324  20.754  0.00  0.00    -0.354 N 
ATOM      2  N   UNL     1       3.653   2.043  18.871  0.00  0.00    -0.372 N 
ATOM      3  N   UNL     1       5.240   3.546  19.572  0.00  0.00    -0.372 N 
ATOM      4  C   UNL     1       4.040   2.981  19.745  0.00  0.00    +0.166 C 
ATOM      5  H   UNL     1       2.319   2.880  20.812  0.00  0.00    +0.163 HD
ATOM      6  H   UNL     1       4.246   1.762  18.102  0.00  0.00    +0.159 HD
ATOM      7  H   UNL     1       2.763   1.569  18.959  0.00  0.00    +0.159 HD
ATOM      8  H   UNL     1       5.588   4.264  20.192  0.00  0.00    +0.159 HD
ATOM      9  H   UNL     1       5.842   3.286  18.801  0.00  0.00    +0.159 HD
ENDROOT
BRANCH   1  10
ATOM     10  C   UNL     1       3.577   4.295  21.790  0.00  0.00    +0.151 C 
BRANCH  10  11
ATOM     11  C   UNL     1       2.319   4.940  22.302  0.00  0.00    -0.028 A 
ATOM     12  C   UNL     1       1.490   4.262  23.209  0.00  0.00    +0.005 A 
ATOM     13  C   UNL     1       1.952   6.230  21.889  0.00  0.00    +0.005 A 
ATOM     14  C   UNL     1       0.337   4.873  23.709  0.00  0.00    +0.000 A 
ATOM     15  C   UNL     1       0.800   6.835  22.389  0.00  0.00    +0.000 A 
ATOM     16  C   UNL     1      -0.006   6.157  23.301  0.00  0.00    +0.000 A 
ENDBRANCH  10  11
ENDBRANCH   1  10
TORSDOF 2
ENDMDL
MODEL 7
REMARK VINA RESULT:    -4.529      2.574      3.645
REMARK INTER + INTRA:          -5.224
REMARK INTER:                  -5.112
REMARK INTRA:                  -0.112
REMARK UNBOUND:                -0.166
REMARK  Name = 1550473
REMARK  2 active torsions:
REMARK  status: ('A' for Active; 'I' for Inactive)
REMARK    1  A    between atoms: N_1  and  C_4
REMARK    2  A    between atoms: C_4  and  C_5
REMARK                            x       y       z     vdW  Elec       q    Type
REMARK                         _______ _______ _______ _____ _____    ______ ____
ROOT
ATOM      1  N   UNL     1       1.166   6.260  22.273  0.00  0.00    -0.354 N 
ATOM      2  N   UNL     1      -0.045   8.176  22.749  0.00  0.00    -0.372 N 
ATOM      3  N   UNL     1       1.953   7.832  23.823  0.00  0.00    -0.372 N 
ATOM      4  C   UNL     1       1.035   7.410  22.947  0.00  0.00    +0.166 C 
ATOM      5  H   UNL     1       0.420   5.982  21.646  0.00  0.00    +0.163 HD
ATOM      6  H   UNL     1      -0.169   9.051  23.240  0.00  0.00    +0.159 HD
ATOM      7  H   UNL     1      -0.767   7.918  22.087  0.00  0.00    +0.159 HD
ATOM      8  H   UNL     1       2.788   7.297  24.023  0.00  0.00    +0.159 HD
ATOM      9  H   UNL     1       1.841   8.699  24.333  0.00  0.00    +0.159 HD
ENDROOT
BRANCH   1  10
ATOM     10  C   UNL     1       2.329   5.380  22.377  0.00  0.00    +0.151 C 
BRANCH  10  11
ATOM     11  C   UNL     1       1.893   4.055  22.939  0.00  0.00    -0.028 A 
ATOM     12  C   UNL     1       2.619   2.888  22.657  0.00  0.00    +0.005 A 
ATOM     13  C   UNL     1       0.758   3.960  23.759  0.00  0.00    +0.005 A 
ATOM     14  C   UNL     1       2.233   1.662  23.203  0.00  0.00    +0.000 A 
ATOM     15  C   UNL     1       0.375   2.733  24.301  0.00  0.00    +0.000 A 
ATOM     16  C   UNL     1       1.114   1.585  24.025  0.00  0.00    +0.000 A 
ENDBRANCH  10  11
ENDBRANCH   1  10
TORSDOF 2
ENDMDL
MODEL 8
REMARK VINA RESULT:    -4.459      3.172      4.901
REMARK INTER + INTRA:          -5.147
REMARK INTER:                  -4.967
REMARK INTRA:                  -0.180
REMARK UNBOUND:                -0.166
REMARK  Name = 1550473
REMARK  2 active torsions:
REMARK  status: ('A' for Active; 'I' for Inactive)
REMARK    1  A    between atoms: N_1  and  C_4
REMARK    2  A    between atoms: C_4  and  C_5
REMARK                            x       y       z     vdW  Elec       q    Type
REMARK                         _______ _______ _______ _____ _____    ______ ____
ROOT
ATOM      1  N   UNL     1       1.990   6.439  23.404  0.00  0.00    -0.354 N 
ATOM      2  N   UNL     1       0.326   4.828  23.440  0.00  0.00    -0.372 N 
ATOM      3  N   UNL     1      -0.219   6.973  22.833  0.00  0.00    -0.372 N 
ATOM      4  C   UNL     1       0.708   6.093  23.225  0.00  0.00    +0.166 C 
ATOM      5  H   UNL     1       2.638   5.731  23.731  0.00  0.00    +0.163 HD
ATOM      6  H   UNL     1      -0.634   4.537  23.309  0.00  0.00    +0.159 HD
ATOM      7  H   UNL     1       0.985   4.113  23.722  0.00  0.00    +0.159 HD
ATOM      8  H   UNL     1       0.004   7.945  22.660  0.00  0.00    +0.159 HD
ATOM      9  H   UNL     1      -1.187   6.704  22.709  0.00  0.00    +0.159 HD
ENDROOT
BRANCH   1  10
ATOM     10  C   UNL     1       2.520   7.776  23.146  0.00  0.00    +0.151 C 
BRANCH  10  11
ATOM     11  C   UNL     1       2.733   8.482  24.457  0.00  0.00    -0.028 A 
ATOM     12  C   UNL     1       3.816   8.143  25.281  0.00  0.00    +0.005 A 
ATOM     13  C   UNL     1       1.857   9.495  24.877  0.00  0.00    +0.005 A 
ATOM     14  C   UNL     1       4.030   8.819  26.484  0.00  0.00    +0.000 A 
ATOM     15  C   UNL     1       2.075  10.167  26.080  0.00  0.00    +0.000 A 
ATOM     16  C   UNL     1       3.163   9.831  26.882  0.00  0.00    +0.000 A 
ENDBRANCH  10  11
ENDBRANCH   1  10
TORSDOF 2
ENDMDL
MODEL 9
REMARK VINA RESULT:    -4.350      6.966      8.431
REMARK INTER + INTRA:          -5.025
REMARK INTER:                  -4.875
REMARK INTRA:                  -0.150
REMARK UNBOUND:                -0.166
REMARK  Name = 1550473
REMARK  2 active torsions:
REMARK  status: ('A' for Active; 'I' for Inactive)
REMARK    1  A    between atoms: N_1  and  C_4
REMARK    2  A    between atoms: C_4  and  C_5
REMARK                            x       y       z     vdW  Elec       q    Type
REMARK                         _______ _______ _______ _____ _____    ______ ____
ROOT
ATOM      1  N   UNL     1       1.985   2.160  17.203  0.00  0.00    -0.354 N 
ATOM      2  N   UNL     1       1.008   0.078  17.476  0.00  0.00    -0.372 N 
ATOM      3  N   UNL     1       2.186   0.507  15.554  0.00  0.00    -0.372 N 
ATOM      4  C   UNL     1       1.734   0.929  16.740  0.00  0.00    +0.166 C 
ATOM      5  H   UNL     1       1.588   2.429  18.096  0.00  0.00    +0.163 HD
ATOM      6  H   UNL     1       0.805  -0.859  17.154  0.00  0.00    +0.159 HD
ATOM      7  H   UNL     1       0.651   0.334  18.389  0.00  0.00    +0.159 HD
ATOM      8  H   UNL     1       2.734   1.103  14.948  0.00  0.00    +0.159 HD
ATOM      9  H   UNL     1       1.984  -0.423  15.210  0.00  0.00    +0.159 HD
ENDROOT
BRANCH   1  10
ATOM     10  C   UNL     1       2.809   3.144  16.504  0.00  0.00    +0.151 C 
BRANCH  10  11
ATOM     11  C   UNL     1       4.026   3.445  17.335  0.00  0.00    -0.028 A 
ATOM     12  C   UNL     1       4.056   3.116  18.698  0.00  0.00    +0.005 A 
ATOM     13  C   UNL     1       5.154   4.054  16.764  0.00  0.00    +0.005 A 
ATOM     14  C   UNL     1       5.197   3.368  19.464  0.00  0.00    +0.000 A 
ATOM     15  C   UNL     1       6.291   4.305  17.532  0.00  0.00    +0.000 A 
ATOM     16  C   UNL     1       6.313   3.959  18.881  0.00  0.00    +0.000 A 
ENDBRANCH  10  11
ENDBRANCH   1  10
TORSDOF 2
ENDMDL
