MODEL 1
REMARK VINA RESULT:    -6.444      0.000      0.000
REMARK INTER + INTRA:          -7.348
REMARK INTER:                  -7.198
REMARK INTRA:                  -0.151
REMARK UNBOUND:                -0.151
REMARK  Name = 1550473
REMARK  2 active torsions:
REMARK  status: ('A' for Active; 'I' for Inactive)
REMARK    1  A    between atoms: N_1  and  C_4
REMARK    2  A    between atoms: C_4  and  C_5
REMARK                            x       y       z     vdW  Elec       q    Type
REMARK                         _______ _______ _______ _____ _____    ______ ____
ROOT
ATOM      1  N   UNL     1      -2.404   6.335  14.531  0.00  0.00    -0.354 N 
ATOM      2  N   UNL     1      -1.907   4.131  15.039  0.00  0.00    -0.372 N 
ATOM      3  N   UNL     1      -3.284   5.310  16.446  0.00  0.00    -0.372 N 
ATOM      4  C   UNL     1      -2.536   5.274  15.338  0.00  0.00    +0.166 C 
ATOM      5  H   UNL     1      -1.799   6.253  13.723  0.00  0.00    +0.163 HD
ATOM      6  H   UNL     1      -1.991   3.312  15.627  0.00  0.00    +0.159 HD
ATOM      7  H   UNL     1      -1.340   4.037  14.205  0.00  0.00    +0.159 HD
ATOM      8  H   UNL     1      -3.780   6.144  16.731  0.00  0.00    +0.159 HD
ATOM      9  H   UNL     1      -3.371   4.504  17.053  0.00  0.00    +0.159 HD
ENDROOT
BRANCH   1  10
ATOM     10  C   UNL     1      -3.090   7.610  14.738  0.00  0.00    +0.151 C 
BRANCH  10  11
ATOM     11  C   UNL     1      -4.025   7.856  13.587  0.00  0.00    -0.028 A 
ATOM     12  C   UNL     1      -5.067   8.788  13.703  0.00  0.00    +0.005 A 
ATOM     13  C   UNL     1      -3.871   7.166  12.375  0.00  0.00    +0.005 A 
ATOM     14  C   UNL     1      -5.918   9.039  12.624  0.00  0.00    +0.000 A 
ATOM     15  C   UNL     1      -4.723   7.419  11.300  0.00  0.00    +0.000 A 
ATOM     16  C   UNL     1      -5.745   8.357  11.424  0.00  0.00    +0.000 A 
ENDBRANCH  10  11
ENDBRANCH   1  10
TORSDOF 2
ENDMDL
MODEL 2
REMARK VINA RESULT:    -6.168      0.960      2.059
REMARK INTER + INTRA:          -7.040
REMARK INTER:                  -6.898
REMARK INTRA:                  -0.142
REMARK UNBOUND:                -0.151
REMARK  Name = 1550473
REMARK  2 active torsions:
REMARK  status: ('A' for Active; 'I' for Inactive)
REMARK    1  A    between atoms: N_1  and  C_4
REMARK    2  A    between atoms: C_4  and  C_5
REMARK                            x       y       z     vdW  Elec       q    Type
REMARK                         _______ _______ _______ _____ _____    ______ ____
ROOT
ATOM      1  N   UNL     1      -2.489   5.731  13.526  0.00  0.00    -0.354 N 
ATOM      2  N   UNL     1      -1.995   4.332  15.304  0.00  0.00    -0.372 N 
ATOM      3  N   UNL     1      -3.388   3.570  13.648  0.00  0.00    -0.372 N 
ATOM      4  C   UNL     1      -2.629   4.552  14.146  0.00  0.00    +0.166 C 
ATOM      5  H   UNL     1      -1.923   6.444  13.971  0.00  0.00    +0.163 HD
ATOM      6  H   UNL     1      -2.079   3.451  15.794  0.00  0.00    +0.159 HD
ATOM      7  H   UNL     1      -1.393   5.030  15.724  0.00  0.00    +0.159 HD
ATOM      8  H   UNL     1      -3.898   3.675  12.781  0.00  0.00    +0.159 HD
ATOM      9  H   UNL     1      -3.494   2.686  14.129  0.00  0.00    +0.159 HD
ENDROOT
BRANCH   1  10
ATOM     10  C   UNL     1      -3.093   6.052  12.234  0.00  0.00    +0.151 C 
BRANCH  10  11
ATOM     11  C   UNL     1      -4.084   7.168  12.420  0.00  0.00    -0.028 A 
ATOM     12  C   UNL     1      -4.923   7.558  11.366  0.00  0.00    +0.005 A 
ATOM     13  C   UNL     1      -4.193   7.836  13.649  0.00  0.00    +0.005 A 
ATOM     14  C   UNL     1      -5.864   8.574  11.547  0.00  0.00    +0.000 A 
ATOM     15  C   UNL     1      -5.133   8.851  13.826  0.00  0.00    +0.000 A 
ATOM     16  C   UNL     1      -5.971   9.218  12.775  0.00  0.00    +0.000 A 
ENDBRANCH  10  11
ENDBRANCH   1  10
TORSDOF 2
ENDMDL
MODEL 3
REMARK VINA RESULT:    -5.851      2.609      3.225
REMARK INTER + INTRA:          -6.686
REMARK INTER:                  -6.567
REMARK INTRA:                  -0.119
REMARK UNBOUND:                -0.151
REMARK  Name = 1550473
REMARK  2 active torsions:
REMARK  status: ('A' for Active; 'I' for Inactive)
REMARK    1  A    between atoms: N_1  and  C_4
REMARK    2  A    between atoms: C_4  and  C_5
REMARK                            x       y       z     vdW  Elec       q    Type
REMARK                         _______ _______ _______ _____ _____    ______ ____
ROOT
ATOM      1  N   UNL     1      -3.052   9.122  16.147  0.00  0.00    -0.354 N 
ATOM      2  N   UNL     1      -3.031  10.801  17.742  0.00  0.00    -0.372 N 
ATOM      3  N   UNL     1      -2.222   8.728  18.302  0.00  0.00    -0.372 N 
ATOM      4  C   UNL     1      -2.768   9.537  17.388  0.00  0.00    +0.166 C 
ATOM      5  H   UNL     1      -3.493   9.776  15.510  0.00  0.00    +0.163 HD
ATOM      6  H   UNL     1      -2.824  11.144  18.670  0.00  0.00    +0.159 HD
ATOM      7  H   UNL     1      -3.429  11.465  17.089  0.00  0.00    +0.159 HD
ATOM      8  H   UNL     1      -2.005   7.762  18.100  0.00  0.00    +0.159 HD
ATOM      9  H   UNL     1      -2.018   9.050  19.240  0.00  0.00    +0.159 HD
ENDROOT
BRANCH   1  10
ATOM     10  C   UNL     1      -2.756   7.782  15.645  0.00  0.00    +0.151 C 
BRANCH  10  11
ATOM     11  C   UNL     1      -3.366   7.622  14.279  0.00  0.00    -0.028 A 
ATOM     12  C   UNL     1      -4.518   8.341  13.926  0.00  0.00    +0.005 A 
ATOM     13  C   UNL     1      -2.795   6.758  13.333  0.00  0.00    +0.005 A 
ATOM     14  C   UNL     1      -5.068   8.217  12.648  0.00  0.00    +0.000 A 
ATOM     15  C   UNL     1      -3.348   6.636  12.058  0.00  0.00    +0.000 A 
ATOM     16  C   UNL     1      -4.482   7.367  11.715  0.00  0.00    +0.000 A 
ENDBRANCH  10  11
ENDBRANCH   1  10
TORSDOF 2
ENDMDL
MODEL 4
REMARK VINA RESULT:    -5.796      1.781      2.809
REMARK INTER + INTRA:          -6.624
REMARK INTER:                  -6.452
REMARK INTRA:                  -0.172
REMARK UNBOUND:                -0.151
REMARK  Name = 1550473
REMARK  2 active torsions:
REMARK  status: ('A' for Active; 'I' for Inactive)
REMARK    1  A    between atoms: N_1  and  C_4
REMARK    2  A    between atoms: C_4  and  C_5
REMARK                            x       y       z     vdW  Elec       q    Type
REMARK                         _______ _______ _______ _____ _____    ______ ____
ROOT
ATOM      1  N   UNL     1      -3.034   6.162  14.412  0.00  0.00    -0.354 N 
ATOM      2  N   UNL     1      -3.021   5.352  16.582  0.00  0.00    -0.372 N 
ATOM      3  N   UNL     1      -1.924   4.169  14.950  0.00  0.00    -0.372 N 
ATOM      4  C   UNL     1      -2.659   5.231  15.299  0.00  0.00    +0.166 C 
ATOM      5  H   UNL     1      -3.616   6.927  14.734  0.00  0.00    +0.163 HD
ATOM      6  H   UNL     1      -2.750   4.667  17.274  0.00  0.00    +0.159 HD
ATOM      7  H   UNL     1      -3.564   6.142  16.910  0.00  0.00    +0.159 HD
ATOM      8  H   UNL     1      -1.623   4.017  13.996  0.00  0.00    +0.159 HD
ATOM      9  H   UNL     1      -1.653   3.467  15.626  0.00  0.00    +0.159 HD
ENDROOT
BRANCH   1  10
ATOM     10  C   UNL     1      -2.647   6.152  13.002  0.00  0.00    +0.151 C 
BRANCH  10  11
ATOM     11  C   UNL     1      -3.843   5.787  12.167  0.00  0.00    -0.028 A 
ATOM     12  C   UNL     1      -4.199   4.443  11.981  0.00  0.00    +0.005 A 
ATOM     13  C   UNL     1      -4.628   6.781  11.563  0.00  0.00    +0.005 A 
ATOM     14  C   UNL     1      -5.327   4.105  11.230  0.00  0.00    +0.000 A 
ATOM     15  C   UNL     1      -5.753   6.440  10.813  0.00  0.00    +0.000 A 
ATOM     16  C   UNL     1      -6.104   5.102  10.649  0.00  0.00    +0.000 A 
ENDBRANCH  10  11
ENDBRANCH   1  10
TORSDOF 2
ENDMDL
MODEL 5
REMARK VINA RESULT:    -5.307      2.454      3.276
REMARK INTER + INTRA:          -6.078
REMARK INTER:                  -5.894
REMARK INTRA:                  -0.184
REMARK UNBOUND:                -0.151
REMARK  Name = 1550473
REMARK  2 active torsions:
REMARK  status: ('A' for Active; 'I' for Inactive)
REMARK    1  A    between atoms: N_1  and  C_4
REMARK    2  A    between atoms: C_4  and  C_5
REMARK                            x       y       z     vdW  Elec       q    Type
REMARK                         _______ _______ _______ _____ _____    ______ ____
ROOT
ATOM      1  N   UNL     1      -4.650   3.183  12.533  0.00  0.00    -0.354 N 
ATOM      2  N   UNL     1      -4.646   2.422  14.720  0.00  0.00    -0.372 N 
ATOM      3  N   UNL     1      -2.898   3.718  13.994  0.00  0.00    -0.372 N 
ATOM      4  C   UNL     1      -4.062   3.114  13.735  0.00  0.00    +0.166 C 
ATOM      5  H   UNL     1      -5.517   2.677  12.391  0.00  0.00    +0.163 HD
ATOM      6  H   UNL     1      -4.228   2.355  15.638  0.00  0.00    +0.159 HD
ATOM      7  H   UNL     1      -5.536   1.956  14.589  0.00  0.00    +0.159 HD
ATOM      8  H   UNL     1      -2.403   4.251  13.292  0.00  0.00    +0.159 HD
ATOM      9  H   UNL     1      -2.458   3.653  14.904  0.00  0.00    +0.159 HD
ENDROOT
BRANCH   1  10
ATOM     10  C   UNL     1      -4.124   3.955  11.408  0.00  0.00    +0.151 C 
BRANCH  10  11
ATOM     11  C   UNL     1      -4.841   5.275  11.340  0.00  0.00    -0.028 A 
ATOM     12  C   UNL     1      -6.195   5.332  10.981  0.00  0.00    +0.005 A 
ATOM     13  C   UNL     1      -4.173   6.472  11.640  0.00  0.00    +0.005 A 
ATOM     14  C   UNL     1      -6.870   6.555  10.947  0.00  0.00    +0.000 A 
ATOM     15  C   UNL     1      -4.849   7.691  11.604  0.00  0.00    +0.000 A 
ATOM     16  C   UNL     1      -6.198   7.732  11.260  0.00  0.00    +0.000 A 
ENDBRANCH  10  11
ENDBRANCH   1  10
TORSDOF 2
ENDMDL
MODEL 6
REMARK VINA RESULT:    -5.057      2.853      3.842
REMARK INTER + INTRA:          -5.799
REMARK INTER:                  -5.669
REMARK INTRA:                  -0.130
REMARK UNBOUND:                -0.151
REMARK  Name = 1550473
REMARK  2 active torsions:
REMARK  status: ('A' for Active; 'I' for Inactive)
REMARK    1  A    between atoms: N_1  and  C_4
REMARK    2  A    between atoms: C_4  and  C_5
REMARK                            x       y       z     vdW  Elec       q    Type
REMARK                         _______ _______ _______ _____ _____    ______ ____
ROOT
ATOM      1  N   UNL     1      -5.223   3.806  12.214  0.00  0.00    -0.354 N 
ATOM      2  N   UNL     1      -3.324   2.879  13.160  0.00  0.00    -0.372 N 
ATOM      3  N   UNL     1      -3.412   3.145  10.882  0.00  0.00    -0.372 N 
ATOM      4  C   UNL     1      -3.998   3.283  12.076  0.00  0.00    +0.166 C 
ATOM      5  H   UNL     1      -5.624   3.855  13.143  0.00  0.00    +0.163 HD
ATOM      6  H   UNL     1      -2.396   2.483  13.087  0.00  0.00    +0.159 HD
ATOM      7  H   UNL     1      -3.708   2.972  14.092  0.00  0.00    +0.159 HD
ATOM      8  H   UNL     1      -3.870   3.425  10.025  0.00  0.00    +0.159 HD
ATOM      9  H   UNL     1      -2.488   2.740  10.788  0.00  0.00    +0.159 HD
ENDROOT
BRANCH   1  10
ATOM     10  C   UNL     1      -6.020   4.326  11.103  0.00  0.00    +0.151 C 
BRANCH  10  11
ATOM     11  C   UNL     1      -6.152   5.816  11.249  0.00  0.00    -0.028 A 
ATOM     12  C   UNL     1      -5.012   6.633  11.278  0.00  0.00    +0.005 A 
ATOM     13  C   UNL     1      -7.415   6.419  11.352  0.00  0.00    +0.005 A 
ATOM     14  C   UNL     1      -5.136   8.021  11.383  0.00  0.00    +0.000 A 
ATOM     15  C   UNL     1      -7.534   7.805  11.457  0.00  0.00    +0.000 A 
ATOM     16  C   UNL     1      -6.395   8.605  11.470  0.00  0.00    +0.000 A 
ENDBRANCH  10  11
ENDBRANCH   1  10
TORSDOF 2
ENDMDL
MODEL 7
REMARK VINA RESULT:    -4.913      1.467      2.305
REMARK INTER + INTRA:          -5.638
REMARK INTER:                  -5.504
REMARK INTRA:                  -0.134
REMARK UNBOUND:                -0.151
REMARK  Name = 1550473
REMARK  2 active torsions:
REMARK  status: ('A' for Active; 'I' for Inactive)
REMARK    1  A    between atoms: N_1  and  C_4
REMARK    2  A    between atoms: C_4  and  C_5
REMARK                            x       y       z     vdW  Elec       q    Type
REMARK                         _______ _______ _______ _____ _____    ______ ____
ROOT
ATOM      1  N   UNL     1      -3.218   8.165  14.429  0.00  0.00    -0.354 N 
ATOM      2  N   UNL     1      -1.764   8.268  16.229  0.00  0.00    -0.372 N 
ATOM      3  N   UNL     1      -3.003   6.363  15.911  0.00  0.00    -0.372 N 
ATOM      4  C   UNL     1      -2.672   7.595  15.512  0.00  0.00    +0.166 C 
ATOM      5  H   UNL     1      -2.947   9.114  14.196  0.00  0.00    +0.163 HD
ATOM      6  H   UNL     1      -1.333   7.862  17.049  0.00  0.00    +0.159 HD
ATOM      7  H   UNL     1      -1.461   9.198  15.968  0.00  0.00    +0.159 HD
ATOM      8  H   UNL     1      -3.687   5.805  15.417  0.00  0.00    +0.159 HD
ATOM      9  H   UNL     1      -2.591   5.944  16.736  0.00  0.00    +0.159 HD
ENDROOT
BRANCH   1  10
ATOM     10  C   UNL     1      -4.175   7.498  13.549  0.00  0.00    +0.151 C 
BRANCH  10  11
ATOM     11  C   UNL     1      -5.217   8.492  13.113  0.00  0.00    -0.028 A 
ATOM     12  C   UNL     1      -5.678   9.475  14.000  0.00  0.00    +0.005 A 
ATOM     13  C   UNL     1      -5.742   8.459  11.812  0.00  0.00    +0.005 A 
ATOM     14  C   UNL     1      -6.623  10.417  13.587  0.00  0.00    +0.000 A 
ATOM     15  C   UNL     1      -6.686   9.400  11.403  0.00  0.00    +0.000 A 
ATOM     16  C   UNL     1      -7.125  10.381  12.290  0.00  0.00    +0.000 A 
ENDBRANCH  10  11
ENDBRANCH   1  10
TORSDOF 2
ENDMDL
MODEL 8
REMARK VINA RESULT:    -4.866      2.691      3.836
REMARK INTER + INTRA:          -5.585
REMARK INTER:                  -5.448
REMARK INTRA:                  -0.137
REMARK UNBOUND:                -0.151
REMARK  Name = 1550473
REMARK  2 active torsions:
REMARK  status: ('A' for Active; 'I' for Inactive)
REMARK    1  A    between atoms: N_1  and  C_4
REMARK    2  A    between atoms: C_4  and  C_5
REMARK                            x       y       z     vdW  Elec       q    Type
REMARK                         _______ _______ _______ _____ _____    ______ ____
ROOT
ATOM      1  N   UNL     1      -4.949   8.890  15.126  0.00  0.00    -0.354 N 
ATOM      2  N   UNL     1      -4.242   9.729  17.166  0.00  0.00    -0.372 N 
ATOM      3  N   UNL     1      -5.196  11.161  15.649  0.00  0.00    -0.372 N 
ATOM      4  C   UNL     1      -4.801   9.924  15.966  0.00  0.00    +0.166 C 
ATOM      5  H   UNL     1      -4.601   7.983  15.414  0.00  0.00    +0.163 HD
ATOM      6  H   UNL     1      -4.120  10.489  17.822  0.00  0.00    +0.159 HD
ATOM      7  H   UNL     1      -3.937   8.812  17.469  0.00  0.00    +0.159 HD
ATOM      8  H   UNL     1      -5.620  11.376  14.756  0.00  0.00    +0.159 HD
ATOM      9  H   UNL     1      -5.072  11.937  16.287  0.00  0.00    +0.159 HD
ENDROOT
BRANCH   1  10
ATOM     10  C   UNL     1      -5.594   8.985  13.818  0.00  0.00    +0.151 C 
BRANCH  10  11
ATOM     11  C   UNL     1      -4.841   8.131  12.836  0.00  0.00    -0.028 A 
ATOM     12  C   UNL     1      -3.697   7.425  13.236  0.00  0.00    +0.005 A 
ATOM     13  C   UNL     1      -5.269   8.019  11.504  0.00  0.00    +0.005 A 
ATOM     14  C   UNL     1      -3.015   6.608  12.332  0.00  0.00    +0.000 A 
ATOM     15  C   UNL     1      -4.584   7.203  10.604  0.00  0.00    +0.000 A 
ATOM     16  C   UNL     1      -3.459   6.495  11.019  0.00  0.00    +0.000 A 
ENDBRANCH  10  11
ENDBRANCH   1  10
TORSDOF 2
ENDMDL
MODEL 9
REMARK VINA RESULT:    -4.729      2.138      3.339
REMARK INTER + INTRA:          -5.433
REMARK INTER:                  -5.322
REMARK INTRA:                  -0.110
REMARK UNBOUND:                -0.151
REMARK  Name = 1550473
REMARK  2 active torsions:
REMARK  status: ('A' for Active; 'I' for Inactive)
REMARK    1  A    between atoms: N_1  and  C_4
REMARK    2  A    between atoms: C_4  and  C_5
REMARK                            x       y       z     vdW  Elec       q    Type
REMARK                         _______ _______ _______ _____ _____    ______ ____
ROOT
ATOM      1  N   UNL     1      -3.955   5.555  13.104  0.00  0.00    -0.354 N 
ATOM      2  N   UNL     1      -3.473   3.302  12.868  0.00  0.00    -0.372 N 
ATOM      3  N   UNL     1      -4.040   4.516  11.005  0.00  0.00    -0.372 N 
ATOM      4  C   UNL     1      -3.827   4.473  12.324  0.00  0.00    +0.166 C 
ATOM      5  H   UNL     1      -3.808   5.450  14.101  0.00  0.00    +0.163 HD
ATOM      6  H   UNL     1      -3.364   2.470  12.304  0.00  0.00    +0.159 HD
ATOM      7  H   UNL     1      -3.282   3.210  13.858  0.00  0.00    +0.159 HD
ATOM      8  H   UNL     1      -4.316   5.368  10.535  0.00  0.00    +0.159 HD
ATOM      9  H   UNL     1      -3.949   3.691  10.426  0.00  0.00    +0.159 HD
ENDROOT
BRANCH   1  10
ATOM     10  C   UNL     1      -4.284   6.889  12.604  0.00  0.00    +0.151 C 
BRANCH  10  11
ATOM     11  C   UNL     1      -4.231   7.868  13.744  0.00  0.00    -0.028 A 
ATOM     12  C   UNL     1      -5.236   8.833  13.901  0.00  0.00    +0.005 A 
ATOM     13  C   UNL     1      -3.180   7.832  14.674  0.00  0.00    +0.005 A 
ATOM     14  C   UNL     1      -5.203   9.723  14.978  0.00  0.00    +0.000 A 
ATOM     15  C   UNL     1      -3.150   8.723  15.746  0.00  0.00    +0.000 A 
ATOM     16  C   UNL     1      -4.163   9.667  15.899  0.00  0.00    +0.000 A 
ENDBRANCH  10  11
ENDBRANCH   1  10
TORSDOF 2
ENDMDL
