MODEL 1
REMARK VINA RESULT:    -5.645      0.000      0.000
REMARK INTER + INTRA:          -6.450
REMARK INTER:                  -6.304
REMARK INTRA:                  -0.145
REMARK UNBOUND:                -0.145
REMARK  Name = 1550473
REMARK  2 active torsions:
REMARK  status: ('A' for Active; 'I' for Inactive)
REMARK    1  A    between atoms: N_1  and  C_4
REMARK    2  A    between atoms: C_4  and  C_5
REMARK                            x       y       z     vdW  Elec       q    Type
REMARK                         _______ _______ _______ _____ _____    ______ ____
ROOT
ATOM      1  N   UNL     1       2.447   2.199   0.663  0.00  0.00    -0.354 N 
ATOM      2  N   UNL     1       4.080   2.099   2.302  0.00  0.00    -0.372 N 
ATOM      3  N   UNL     1       4.706   1.934   0.101  0.00  0.00    -0.372 N 
ATOM      4  C   UNL     1       3.735   2.078   1.009  0.00  0.00    +0.166 C 
ATOM      5  H   UNL     1       1.755   2.274   1.400  0.00  0.00    +0.163 HD
ATOM      6  H   UNL     1       5.045   2.014   2.593  0.00  0.00    +0.159 HD
ATOM      7  H   UNL     1       3.392   2.221   3.035  0.00  0.00    +0.159 HD
ATOM      8  H   UNL     1       4.512   1.904  -0.891  0.00  0.00    +0.159 HD
ATOM      9  H   UNL     1       5.676   1.835   0.373  0.00  0.00    +0.159 HD
ENDROOT
BRANCH   1  10
ATOM     10  C   UNL     1       1.971   2.241  -0.719  0.00  0.00    +0.151 C 
BRANCH  10  11
ATOM     11  C   UNL     1       1.270   0.950  -1.037  0.00  0.00    -0.028 A 
ATOM     12  C   UNL     1       1.066   0.559  -2.369  0.00  0.00    +0.005 A 
ATOM     13  C   UNL     1       0.811   0.109  -0.011  0.00  0.00    +0.005 A 
ATOM     14  C   UNL     1       0.442  -0.655  -2.665  0.00  0.00    +0.000 A 
ATOM     15  C   UNL     1       0.187  -1.102  -0.311  0.00  0.00    +0.000 A 
ATOM     16  C   UNL     1       0.005  -1.485  -1.638  0.00  0.00    +0.000 A 
ENDBRANCH  10  11
ENDBRANCH   1  10
TORSDOF 2
ENDMDL
MODEL 2
REMARK VINA RESULT:    -5.618      2.715      4.256
REMARK INTER + INTRA:          -6.421
REMARK INTER:                  -6.273
REMARK INTRA:                  -0.148
REMARK UNBOUND:                -0.145
REMARK  Name = 1550473
REMARK  2 active torsions:
REMARK  status: ('A' for Active; 'I' for Inactive)
REMARK    1  A    between atoms: N_1  and  C_4
REMARK    2  A    between atoms: C_4  and  C_5
REMARK                            x       y       z     vdW  Elec       q    Type
REMARK                         _______ _______ _______ _____ _____    ______ ____
ROOT
ATOM      1  N   UNL     1       1.850   0.601   0.387  0.00  0.00    -0.354 N 
ATOM      2  N   UNL     1       0.606  -1.323   0.727  0.00  0.00    -0.372 N 
ATOM      3  N   UNL     1      -0.316   0.395  -0.483  0.00  0.00    -0.372 N 
ATOM      4  C   UNL     1       0.719  -0.095   0.207  0.00  0.00    +0.166 C 
ATOM      5  H   UNL     1       2.587   0.185   0.946  0.00  0.00    +0.163 HD
ATOM      6  H   UNL     1      -0.234  -1.874   0.605  0.00  0.00    +0.159 HD
ATOM      7  H   UNL     1       1.362  -1.754   1.246  0.00  0.00    +0.159 HD
ATOM      8  H   UNL     1      -0.297   1.317  -0.895  0.00  0.00    +0.159 HD
ATOM      9  H   UNL     1      -1.170  -0.136  -0.606  0.00  0.00    +0.159 HD
ENDROOT
BRANCH   1  10
ATOM     10  C   UNL     1       2.095   1.924  -0.183  0.00  0.00    +0.151 C 
BRANCH  10  11
ATOM     11  C   UNL     1       3.242   1.837  -1.151  0.00  0.00    -0.028 A 
ATOM     12  C   UNL     1       3.014   1.912  -2.533  0.00  0.00    +0.005 A 
ATOM     13  C   UNL     1       4.560   1.685  -0.694  0.00  0.00    +0.005 A 
ATOM     14  C   UNL     1       4.082   1.861  -3.432  0.00  0.00    +0.000 A 
ATOM     15  C   UNL     1       5.623   1.634  -1.595  0.00  0.00    +0.000 A 
ATOM     16  C   UNL     1       5.384   1.725  -2.964  0.00  0.00    +0.000 A 
ENDBRANCH  10  11
ENDBRANCH   1  10
TORSDOF 2
ENDMDL
MODEL 3
REMARK VINA RESULT:    -5.125     21.019     21.533
REMARK INTER + INTRA:          -5.869
REMARK INTER:                  -5.731
REMARK INTRA:                  -0.139
REMARK UNBOUND:                -0.145
REMARK  Name = 1550473
REMARK  2 active torsions:
REMARK  status: ('A' for Active; 'I' for Inactive)
REMARK    1  A    between atoms: N_1  and  C_4
REMARK    2  A    between atoms: C_4  and  C_5
REMARK                            x       y       z     vdW  Elec       q    Type
REMARK                         _______ _______ _______ _____ _____    ______ ____
ROOT
ATOM      1  N   UNL     1     -12.501 -15.217  -2.871  0.00  0.00    -0.354 N 
ATOM      2  N   UNL     1     -10.621 -16.328  -3.644  0.00  0.00    -0.372 N 
ATOM      3  N   UNL     1     -10.523 -15.261  -1.615  0.00  0.00    -0.372 N 
ATOM      4  C   UNL     1     -11.226 -15.593  -2.702  0.00  0.00    +0.166 C 
ATOM      5  H   UNL     1     -12.969 -15.476  -3.732  0.00  0.00    +0.163 HD
ATOM      6  H   UNL     1      -9.661 -16.629  -3.543  0.00  0.00    +0.159 HD
ATOM      7  H   UNL     1     -11.105 -16.624  -4.482  0.00  0.00    +0.159 HD
ATOM      8  H   UNL     1     -10.920 -14.703  -0.870  0.00  0.00    +0.159 HD
ATOM      9  H   UNL     1      -9.558 -15.544  -1.500  0.00  0.00    +0.159 HD
ENDROOT
BRANCH   1  10
ATOM     10  C   UNL     1     -13.268 -14.462  -1.882  0.00  0.00    +0.151 C 
BRANCH  10  11
ATOM     11  C   UNL     1     -14.099 -13.428  -2.591  0.00  0.00    -0.028 A 
ATOM     12  C   UNL     1     -13.881 -13.146  -3.947  0.00  0.00    +0.005 A 
ATOM     13  C   UNL     1     -15.111 -12.731  -1.912  0.00  0.00    +0.005 A 
ATOM     14  C   UNL     1     -14.672 -12.207  -4.613  0.00  0.00    +0.000 A 
ATOM     15  C   UNL     1     -15.899 -11.794  -2.581  0.00  0.00    +0.000 A 
ATOM     16  C   UNL     1     -15.681 -11.534  -3.932  0.00  0.00    +0.000 A 
ENDBRANCH  10  11
ENDBRANCH   1  10
TORSDOF 2
ENDMDL
MODEL 4
REMARK VINA RESULT:    -5.024     20.543     21.160
REMARK INTER + INTRA:          -5.756
REMARK INTER:                  -5.620
REMARK INTRA:                  -0.136
REMARK UNBOUND:                -0.145
REMARK  Name = 1550473
REMARK  2 active torsions:
REMARK  status: ('A' for Active; 'I' for Inactive)
REMARK    1  A    between atoms: N_1  and  C_4
REMARK    2  A    between atoms: C_4  and  C_5
REMARK                            x       y       z     vdW  Elec       q    Type
REMARK                         _______ _______ _______ _____ _____    ______ ____
ROOT
ATOM      1  N   UNL     1     -12.089 -13.620  -1.533  0.00  0.00    -0.354 N 
ATOM      2  N   UNL     1     -10.438 -15.242  -1.610  0.00  0.00    -0.372 N 
ATOM      3  N   UNL     1     -11.961 -15.290   0.105  0.00  0.00    -0.372 N 
ATOM      4  C   UNL     1     -11.508 -14.707  -1.010  0.00  0.00    +0.166 C 
ATOM      5  H   UNL     1     -11.679 -13.207  -2.364  0.00  0.00    +0.163 HD
ATOM      6  H   UNL     1      -9.980 -16.065  -1.241  0.00  0.00    +0.159 HD
ATOM      7  H   UNL     1     -10.058 -14.855  -2.466  0.00  0.00    +0.159 HD
ATOM      8  H   UNL     1     -12.761 -14.932   0.609  0.00  0.00    +0.159 HD
ATOM      9  H   UNL     1     -11.509 -16.107   0.497  0.00  0.00    +0.159 HD
ENDROOT
BRANCH   1  10
ATOM     10  C   UNL     1     -13.290 -12.991  -0.987  0.00  0.00    +0.151 C 
BRANCH  10  11
ATOM     11  C   UNL     1     -14.193 -12.589  -2.121  0.00  0.00    -0.028 A 
ATOM     12  C   UNL     1     -15.464 -12.056  -1.863  0.00  0.00    +0.005 A 
ATOM     13  C   UNL     1     -13.781 -12.734  -3.454  0.00  0.00    +0.005 A 
ATOM     14  C   UNL     1     -16.291 -11.654  -2.915  0.00  0.00    +0.000 A 
ATOM     15  C   UNL     1     -14.610 -12.333  -4.502  0.00  0.00    +0.000 A 
ATOM     16  C   UNL     1     -15.864 -11.791  -4.232  0.00  0.00    +0.000 A 
ENDBRANCH  10  11
ENDBRANCH   1  10
TORSDOF 2
ENDMDL
MODEL 5
REMARK VINA RESULT:    -4.961      3.479      4.787
REMARK INTER + INTRA:          -5.686
REMARK INTER:                  -5.560
REMARK INTRA:                  -0.126
REMARK UNBOUND:                -0.145
REMARK  Name = 1550473
REMARK  2 active torsions:
REMARK  status: ('A' for Active; 'I' for Inactive)
REMARK    1  A    between atoms: N_1  and  C_4
REMARK    2  A    between atoms: C_4  and  C_5
REMARK                            x       y       z     vdW  Elec       q    Type
REMARK                         _______ _______ _______ _____ _____    ______ ____
ROOT
ATOM      1  N   UNL     1      -0.999   2.575  -2.324  0.00  0.00    -0.354 N 
ATOM      2  N   UNL     1      -2.641   4.088  -1.708  0.00  0.00    -0.372 N 
ATOM      3  N   UNL     1      -2.955   1.862  -1.248  0.00  0.00    -0.372 N 
ATOM      4  C   UNL     1      -2.189   2.829  -1.763  0.00  0.00    +0.166 C 
ATOM      5  H   UNL     1      -0.480   3.348  -2.724  0.00  0.00    +0.163 HD
ATOM      6  H   UNL     1      -3.533   4.311  -1.288  0.00  0.00    +0.159 HD
ATOM      7  H   UNL     1      -2.099   4.865  -2.067  0.00  0.00    +0.159 HD
ATOM      8  H   UNL     1      -2.674   0.891  -1.263  0.00  0.00    +0.159 HD
ATOM      9  H   UNL     1      -3.856   2.064  -0.833  0.00  0.00    +0.159 HD
ENDROOT
BRANCH   1  10
ATOM     10  C   UNL     1      -0.392   1.247  -2.386  0.00  0.00    +0.151 C 
BRANCH  10  11
ATOM     11  C   UNL     1       1.007   1.320  -1.840  0.00  0.00    -0.028 A 
ATOM     12  C   UNL     1       2.070   1.732  -2.657  0.00  0.00    +0.005 A 
ATOM     13  C   UNL     1       1.276   0.985  -0.504  0.00  0.00    +0.005 A 
ATOM     14  C   UNL     1       3.365   1.829  -2.142  0.00  0.00    +0.000 A 
ATOM     15  C   UNL     1       2.570   1.082   0.007  0.00  0.00    +0.000 A 
ATOM     16  C   UNL     1       3.614   1.507  -0.812  0.00  0.00    +0.000 A 
ENDBRANCH  10  11
ENDBRANCH   1  10
TORSDOF 2
ENDMDL
MODEL 6
REMARK VINA RESULT:    -4.875      3.391      4.374
REMARK INTER + INTRA:          -5.591
REMARK INTER:                  -5.488
REMARK INTRA:                  -0.103
REMARK UNBOUND:                -0.145
REMARK  Name = 1550473
REMARK  2 active torsions:
REMARK  status: ('A' for Active; 'I' for Inactive)
REMARK    1  A    between atoms: N_1  and  C_4
REMARK    2  A    between atoms: C_4  and  C_5
REMARK                            x       y       z     vdW  Elec       q    Type
REMARK                         _______ _______ _______ _____ _____    ______ ____
ROOT
ATOM      1  N   UNL     1       6.294   1.228  -2.493  0.00  0.00    -0.354 N 
ATOM      2  N   UNL     1       7.898   0.114  -3.738  0.00  0.00    -0.372 N 
ATOM      3  N   UNL     1       7.294   2.240  -4.355  0.00  0.00    -0.372 N 
ATOM      4  C   UNL     1       7.151   1.203  -3.522  0.00  0.00    +0.166 C 
ATOM      5  H   UNL     1       6.211   0.398  -1.916  0.00  0.00    +0.163 HD
ATOM      6  H   UNL     1       8.556   0.067  -4.505  0.00  0.00    +0.159 HD
ATOM      7  H   UNL     1       7.846  -0.697  -3.133  0.00  0.00    +0.159 HD
ATOM      8  H   UNL     1       6.756   3.089  -4.250  0.00  0.00    +0.159 HD
ATOM      9  H   UNL     1       7.939   2.208  -5.135  0.00  0.00    +0.159 HD
ENDROOT
BRANCH   1  10
ATOM     10  C   UNL     1       5.474   2.385  -2.139  0.00  0.00    +0.151 C 
BRANCH  10  11
ATOM     11  C   UNL     1       4.159   1.906  -1.590  0.00  0.00    -0.028 A 
ATOM     12  C   UNL     1       3.029   1.825  -2.417  0.00  0.00    +0.005 A 
ATOM     13  C   UNL     1       4.037   1.525  -0.245  0.00  0.00    +0.005 A 
ATOM     14  C   UNL     1       1.814   1.352  -1.916  0.00  0.00    +0.000 A 
ATOM     15  C   UNL     1       2.822   1.053   0.252  0.00  0.00    +0.000 A 
ATOM     16  C   UNL     1       1.712   0.965  -0.584  0.00  0.00    +0.000 A 
ENDBRANCH  10  11
ENDBRANCH   1  10
TORSDOF 2
ENDMDL
MODEL 7
REMARK VINA RESULT:    -4.847     21.155     22.233
REMARK INTER + INTRA:          -5.559
REMARK INTER:                  -5.381
REMARK INTRA:                  -0.178
REMARK UNBOUND:                -0.145
REMARK  Name = 1550473
REMARK  2 active torsions:
REMARK  status: ('A' for Active; 'I' for Inactive)
REMARK    1  A    between atoms: N_1  and  C_4
REMARK    2  A    between atoms: C_4  and  C_5
REMARK                            x       y       z     vdW  Elec       q    Type
REMARK                         _______ _______ _______ _____ _____    ______ ____
ROOT
ATOM      1  N   UNL     1     -13.790 -15.414  -1.769  0.00  0.00    -0.354 N 
ATOM      2  N   UNL     1     -13.162 -15.342   0.459  0.00  0.00    -0.372 N 
ATOM      3  N   UNL     1     -11.943 -14.148  -1.076  0.00  0.00    -0.372 N 
ATOM      4  C   UNL     1     -12.967 -14.967  -0.811  0.00  0.00    +0.166 C 
ATOM      5  H   UNL     1     -14.529 -16.057  -1.508  0.00  0.00    +0.163 HD
ATOM      6  H   UNL     1     -12.559 -15.018   1.204  0.00  0.00    +0.159 HD
ATOM      7  H   UNL     1     -13.929 -15.948   0.724  0.00  0.00    +0.159 HD
ATOM      8  H   UNL     1     -11.739 -13.833  -2.015  0.00  0.00    +0.159 HD
ATOM      9  H   UNL     1     -11.322 -13.823  -0.346  0.00  0.00    +0.159 HD
ENDROOT
BRANCH   1  10
ATOM     10  C   UNL     1     -13.697 -15.023  -3.175  0.00  0.00    +0.151 C 
BRANCH  10  11
ATOM     11  C   UNL     1     -14.670 -13.907  -3.439  0.00  0.00    -0.028 A 
ATOM     12  C   UNL     1     -16.021 -14.043  -3.089  0.00  0.00    +0.005 A 
ATOM     13  C   UNL     1     -14.245 -12.709  -4.034  0.00  0.00    +0.005 A 
ATOM     14  C   UNL     1     -16.919 -12.995  -3.307  0.00  0.00    +0.000 A 
ATOM     15  C   UNL     1     -15.145 -11.666  -4.250  0.00  0.00    +0.000 A 
ATOM     16  C   UNL     1     -16.482 -11.808  -3.885  0.00  0.00    +0.000 A 
ENDBRANCH  10  11
ENDBRANCH   1  10
TORSDOF 2
ENDMDL
MODEL 8
REMARK VINA RESULT:    -4.753     21.620     22.769
REMARK INTER + INTRA:          -5.454
REMARK INTER:                  -5.313
REMARK INTRA:                  -0.141
REMARK UNBOUND:                -0.145
REMARK  Name = 1550473
REMARK  2 active torsions:
REMARK  status: ('A' for Active; 'I' for Inactive)
REMARK    1  A    between atoms: N_1  and  C_4
REMARK    2  A    between atoms: C_4  and  C_5
REMARK                            x       y       z     vdW  Elec       q    Type
REMARK                         _______ _______ _______ _____ _____    ______ ____
ROOT
ATOM      1  N   UNL     1     -16.704 -12.995  -1.836  0.00  0.00    -0.354 N 
ATOM      2  N   UNL     1     -17.472 -11.147  -0.671  0.00  0.00    -0.372 N 
ATOM      3  N   UNL     1     -17.929 -11.313  -2.913  0.00  0.00    -0.372 N 
ATOM      4  C   UNL     1     -17.364 -11.830  -1.817  0.00  0.00    +0.166 C 
ATOM      5  H   UNL     1     -16.272 -13.318  -0.977  0.00  0.00    +0.163 HD
ATOM      6  H   UNL     1     -17.968 -10.267  -0.625  0.00  0.00    +0.159 HD
ATOM      7  H   UNL     1     -17.080 -11.495   0.196  0.00  0.00    +0.159 HD
ATOM      8  H   UNL     1     -17.878 -11.776  -3.811  0.00  0.00    +0.159 HD
ATOM      9  H   UNL     1     -18.419 -10.427  -2.890  0.00  0.00    +0.159 HD
ENDROOT
BRANCH   1  10
ATOM     10  C   UNL     1     -16.574 -13.843  -3.020  0.00  0.00    +0.151 C 
BRANCH  10  11
ATOM     11  C   UNL     1     -15.117 -14.115  -3.272  0.00  0.00    -0.028 A 
ATOM     12  C   UNL     1     -14.520 -15.292  -2.797  0.00  0.00    +0.005 A 
ATOM     13  C   UNL     1     -14.329 -13.202  -3.991  0.00  0.00    +0.005 A 
ATOM     14  C   UNL     1     -13.173 -15.559  -3.057  0.00  0.00    +0.000 A 
ATOM     15  C   UNL     1     -12.985 -13.472  -4.248  0.00  0.00    +0.000 A 
ATOM     16  C   UNL     1     -12.408 -14.652  -3.783  0.00  0.00    +0.000 A 
ENDBRANCH  10  11
ENDBRANCH   1  10
TORSDOF 2
ENDMDL
MODEL 9
REMARK VINA RESULT:    -4.530      2.136      2.710
REMARK INTER + INTRA:          -5.205
REMARK INTER:                  -5.039
REMARK INTRA:                  -0.165
REMARK UNBOUND:                -0.145
REMARK  Name = 1550473
REMARK  2 active torsions:
REMARK  status: ('A' for Active; 'I' for Inactive)
REMARK    1  A    between atoms: N_1  and  C_4
REMARK    2  A    between atoms: C_4  and  C_5
REMARK                            x       y       z     vdW  Elec       q    Type
REMARK                         _______ _______ _______ _____ _____    ______ ____
ROOT
ATOM      1  N   UNL     1       2.765   2.005  -1.040  0.00  0.00    -0.354 N 
ATOM      2  N   UNL     1       3.327   2.401   1.172  0.00  0.00    -0.372 N 
ATOM      3  N   UNL     1       2.251   0.447   0.633  0.00  0.00    -0.372 N 
ATOM      4  C   UNL     1       2.776   1.613   0.241  0.00  0.00    +0.166 C 
ATOM      5  H   UNL     1       3.153   2.913  -1.269  0.00  0.00    +0.163 HD
ATOM      6  H   UNL     1       3.352   2.130   2.146  0.00  0.00    +0.159 HD
ATOM      7  H   UNL     1       3.754   3.288   0.934  0.00  0.00    +0.159 HD
ATOM      8  H   UNL     1       1.814  -0.190  -0.019  0.00  0.00    +0.159 HD
ATOM      9  H   UNL     1       2.256   0.164   1.605  0.00  0.00    +0.159 HD
ENDROOT
BRANCH   1  10
ATOM     10  C   UNL     1       2.238   1.197  -2.138  0.00  0.00    +0.151 C 
BRANCH  10  11
ATOM     11  C   UNL     1       0.816   1.604  -2.410  0.00  0.00    -0.028 A 
ATOM     12  C   UNL     1       0.535   2.801  -3.086  0.00  0.00    +0.005 A 
ATOM     13  C   UNL     1      -0.254   0.795  -1.998  0.00  0.00    +0.005 A 
ATOM     14  C   UNL     1      -0.785   3.165  -3.364  0.00  0.00    +0.000 A 
ATOM     15  C   UNL     1      -1.570   1.163  -2.277  0.00  0.00    +0.000 A 
ATOM     16  C   UNL     1      -1.835   2.346  -2.963  0.00  0.00    +0.000 A 
ENDBRANCH  10  11
ENDBRANCH   1  10
TORSDOF 2
ENDMDL
