MODEL 1
REMARK VINA RESULT:    -5.577      0.000      0.000
REMARK INTER + INTRA:          -6.410
REMARK INTER:                  -6.229
REMARK INTRA:                  -0.180
REMARK UNBOUND:                -0.180
REMARK  Name = 1550473
REMARK  2 active torsions:
REMARK  status: ('A' for Active; 'I' for Inactive)
REMARK    1  A    between atoms: N_1  and  C_4
REMARK    2  A    between atoms: C_4  and  C_5
REMARK                            x       y       z     vdW  Elec       q    Type
REMARK                         _______ _______ _______ _____ _____    ______ ____
ROOT
ATOM      1  N   UNL     1      -1.957 -15.923 -14.327  0.00  0.00    -0.354 N 
ATOM      2  N   UNL     1      -1.371 -16.811 -12.270  0.00  0.00    -0.372 N 
ATOM      3  N   UNL     1       0.170 -16.839 -13.970  0.00  0.00    -0.372 N 
ATOM      4  C   UNL     1      -1.054 -16.519 -13.537  0.00  0.00    +0.166 C 
ATOM      5  H   UNL     1      -2.878 -15.734 -13.948  0.00  0.00    +0.163 HD
ATOM      6  H   UNL     1      -0.709 -17.258 -11.649  0.00  0.00    +0.159 HD
ATOM      7  H   UNL     1      -2.277 -16.580 -11.880  0.00  0.00    +0.159 HD
ATOM      8  H   UNL     1       0.469 -16.651 -14.918  0.00  0.00    +0.159 HD
ATOM      9  H   UNL     1       0.842 -17.297 -13.367  0.00  0.00    +0.159 HD
ENDROOT
BRANCH   1  10
ATOM     10  C   UNL     1      -1.695 -15.514 -15.706  0.00  0.00    +0.151 C 
BRANCH  10  11
ATOM     11  C   UNL     1      -1.357 -14.049 -15.728  0.00  0.00    -0.028 A 
ATOM     12  C   UNL     1      -2.250 -13.105 -15.200  0.00  0.00    +0.005 A 
ATOM     13  C   UNL     1      -0.144 -13.599 -16.270  0.00  0.00    +0.005 A 
ATOM     14  C   UNL     1      -1.924 -11.746 -15.194  0.00  0.00    +0.000 A 
ATOM     15  C   UNL     1       0.178 -12.242 -16.262  0.00  0.00    +0.000 A 
ATOM     16  C   UNL     1      -0.712 -11.316 -15.722  0.00  0.00    +0.000 A 
ENDBRANCH  10  11
ENDBRANCH   1  10
TORSDOF 2
ENDMDL
MODEL 2
REMARK VINA RESULT:    -5.482      0.748      1.789
REMARK INTER + INTRA:          -6.304
REMARK INTER:                  -6.147
REMARK INTRA:                  -0.157
REMARK UNBOUND:                -0.180
REMARK  Name = 1550473
REMARK  2 active torsions:
REMARK  status: ('A' for Active; 'I' for Inactive)
REMARK    1  A    between atoms: N_1  and  C_4
REMARK    2  A    between atoms: C_4  and  C_5
REMARK                            x       y       z     vdW  Elec       q    Type
REMARK                         _______ _______ _______ _____ _____    ______ ____
ROOT
ATOM      1  N   UNL     1      -1.585 -16.246 -14.720  0.00  0.00    -0.354 N 
ATOM      2  N   UNL     1      -0.293 -17.821 -13.619  0.00  0.00    -0.372 N 
ATOM      3  N   UNL     1      -1.490 -16.306 -12.379  0.00  0.00    -0.372 N 
ATOM      4  C   UNL     1      -1.132 -16.779 -13.578  0.00  0.00    +0.166 C 
ATOM      5  H   UNL     1      -1.253 -16.632 -15.597  0.00  0.00    +0.163 HD
ATOM      6  H   UNL     1       0.063 -18.247 -12.773  0.00  0.00    +0.159 HD
ATOM      7  H   UNL     1       0.002 -18.234 -14.495  0.00  0.00    +0.159 HD
ATOM      8  H   UNL     1      -2.116 -15.518 -12.280  0.00  0.00    +0.159 HD
ATOM      9  H   UNL     1      -1.135 -16.711 -11.522  0.00  0.00    +0.159 HD
ENDROOT
BRANCH   1  10
ATOM     10  C   UNL     1      -2.544 -15.145 -14.785  0.00  0.00    +0.151 C 
BRANCH  10  11
ATOM     11  C   UNL     1      -1.839 -13.907 -15.268  0.00  0.00    -0.028 A 
ATOM     12  C   UNL     1      -0.721 -14.008 -16.110  0.00  0.00    +0.005 A 
ATOM     13  C   UNL     1      -2.286 -12.632 -14.892  0.00  0.00    +0.005 A 
ATOM     14  C   UNL     1      -0.084 -12.858 -16.583  0.00  0.00    +0.000 A 
ATOM     15  C   UNL     1      -1.647 -11.486 -15.366  0.00  0.00    +0.000 A 
ATOM     16  C   UNL     1      -0.547 -11.600 -16.214  0.00  0.00    +0.000 A 
ENDBRANCH  10  11
ENDBRANCH   1  10
TORSDOF 2
ENDMDL
MODEL 3
REMARK VINA RESULT:    -5.381      3.550      4.613
REMARK INTER + INTRA:          -6.191
REMARK INTER:                  -6.087
REMARK INTRA:                  -0.104
REMARK UNBOUND:                -0.180
REMARK  Name = 1550473
REMARK  2 active torsions:
REMARK  status: ('A' for Active; 'I' for Inactive)
REMARK    1  A    between atoms: N_1  and  C_4
REMARK    2  A    between atoms: C_4  and  C_5
REMARK                            x       y       z     vdW  Elec       q    Type
REMARK                         _______ _______ _______ _____ _____    ______ ____
ROOT
ATOM      1  N   UNL     1       0.430 -14.010 -18.688  0.00  0.00    -0.354 N 
ATOM      2  N   UNL     1       0.697 -15.191 -20.662  0.00  0.00    -0.372 N 
ATOM      3  N   UNL     1       2.559 -14.376 -19.597  0.00  0.00    -0.372 N 
ATOM      4  C   UNL     1       1.230 -14.517 -19.635  0.00  0.00    +0.166 C 
ATOM      5  H   UNL     1      -0.571 -14.125 -18.791  0.00  0.00    +0.163 HD
ATOM      6  H   UNL     1       1.276 -15.588 -21.390  0.00  0.00    +0.159 HD
ATOM      7  H   UNL     1      -0.301 -15.344 -20.738  0.00  0.00    +0.159 HD
ATOM      8  H   UNL     1       3.023 -13.874 -18.852  0.00  0.00    +0.159 HD
ATOM      9  H   UNL     1       3.154 -14.756 -20.322  0.00  0.00    +0.159 HD
ENDROOT
BRANCH   1  10
ATOM     10  C   UNL     1       0.913 -13.307 -17.501  0.00  0.00    +0.151 C 
BRANCH  10  11
ATOM     11  C   UNL     1      -0.252 -13.010 -16.597  0.00  0.00    -0.028 A 
ATOM     12  C   UNL     1      -1.104 -14.040 -16.173  0.00  0.00    +0.005 A 
ATOM     13  C   UNL     1      -0.506 -11.702 -16.158  0.00  0.00    +0.005 A 
ATOM     14  C   UNL     1      -2.168 -13.770 -15.310  0.00  0.00    +0.000 A 
ATOM     15  C   UNL     1      -1.570 -11.436 -15.296  0.00  0.00    +0.000 A 
ATOM     16  C   UNL     1      -2.400 -12.470 -14.871  0.00  0.00    +0.000 A 
ENDBRANCH  10  11
ENDBRANCH   1  10
TORSDOF 2
ENDMDL
MODEL 4
REMARK VINA RESULT:    -5.208      1.246      1.689
REMARK INTER + INTRA:          -5.997
REMARK INTER:                  -5.864
REMARK INTRA:                  -0.133
REMARK UNBOUND:                -0.180
REMARK  Name = 1550473
REMARK  2 active torsions:
REMARK  status: ('A' for Active; 'I' for Inactive)
REMARK    1  A    between atoms: N_1  and  C_4
REMARK    2  A    between atoms: C_4  and  C_5
REMARK                            x       y       z     vdW  Elec       q    Type
REMARK                         _______ _______ _______ _____ _____    ______ ____
ROOT
ATOM      1  N   UNL     1      -0.925 -16.407 -16.106  0.00  0.00    -0.354 N 
ATOM      2  N   UNL     1       0.670 -18.086 -16.153  0.00  0.00    -0.372 N 
ATOM      3  N   UNL     1      -0.242 -17.478 -14.137  0.00  0.00    -0.372 N 
ATOM      4  C   UNL     1      -0.176 -17.313 -15.462  0.00  0.00    +0.166 C 
ATOM      5  H   UNL     1      -0.807 -16.310 -17.108  0.00  0.00    +0.163 HD
ATOM      6  H   UNL     1       1.245 -18.780 -15.695  0.00  0.00    +0.159 HD
ATOM      7  H   UNL     1       0.752 -18.018 -17.160  0.00  0.00    +0.159 HD
ATOM      8  H   UNL     1      -0.856 -16.922 -13.558  0.00  0.00    +0.159 HD
ATOM      9  H   UNL     1       0.334 -18.160 -13.659  0.00  0.00    +0.159 HD
ENDROOT
BRANCH   1  10
ATOM     10  C   UNL     1      -1.916 -15.553 -15.455  0.00  0.00    +0.151 C 
BRANCH  10  11
ATOM     11  C   UNL     1      -1.507 -14.115 -15.615  0.00  0.00    -0.028 A 
ATOM     12  C   UNL     1      -2.306 -13.085 -15.097  0.00  0.00    +0.005 A 
ATOM     13  C   UNL     1      -0.318 -13.776 -16.280  0.00  0.00    +0.005 A 
ATOM     14  C   UNL     1      -1.911 -11.751 -15.219  0.00  0.00    +0.000 A 
ATOM     15  C   UNL     1       0.072 -12.442 -16.401  0.00  0.00    +0.000 A 
ATOM     16  C   UNL     1      -0.723 -11.430 -15.868  0.00  0.00    +0.000 A 
ENDBRANCH  10  11
ENDBRANCH   1  10
TORSDOF 2
ENDMDL
MODEL 5
REMARK VINA RESULT:    -5.121     23.179     24.016
REMARK INTER + INTRA:          -5.900
REMARK INTER:                  -5.799
REMARK INTRA:                  -0.101
REMARK UNBOUND:                -0.180
REMARK  Name = 1550473
REMARK  2 active torsions:
REMARK  status: ('A' for Active; 'I' for Inactive)
REMARK    1  A    between atoms: N_1  and  C_4
REMARK    2  A    between atoms: C_4  and  C_5
REMARK                            x       y       z     vdW  Elec       q    Type
REMARK                         _______ _______ _______ _____ _____    ______ ____
ROOT
ATOM      1  N   UNL     1       8.587   4.646  -4.290  0.00  0.00    -0.354 N 
ATOM      2  N   UNL     1      10.503   4.144  -5.491  0.00  0.00    -0.372 N 
ATOM      3  N   UNL     1      10.071   6.333  -4.956  0.00  0.00    -0.372 N 
ATOM      4  C   UNL     1       9.708   5.047  -4.904  0.00  0.00    +0.166 C 
ATOM      5  H   UNL     1       8.352   3.661  -4.312  0.00  0.00    +0.163 HD
ATOM      6  H   UNL     1      11.356   4.416  -5.959  0.00  0.00    +0.159 HD
ATOM      7  H   UNL     1      10.289   3.154  -5.471  0.00  0.00    +0.159 HD
ATOM      8  H   UNL     1       9.512   7.065  -4.539  0.00  0.00    +0.159 HD
ATOM      9  H   UNL     1      10.916   6.627  -5.431  0.00  0.00    +0.159 HD
ENDROOT
BRANCH   1  10
ATOM     10  C   UNL     1       7.681   5.544  -3.575  0.00  0.00    +0.151 C 
BRANCH  10  11
ATOM     11  C   UNL     1       6.573   4.735  -2.960  0.00  0.00    -0.028 A 
ATOM     12  C   UNL     1       6.860   3.718  -2.038  0.00  0.00    +0.005 A 
ATOM     13  C   UNL     1       5.232   4.984  -3.291  0.00  0.00    +0.005 A 
ATOM     14  C   UNL     1       5.829   2.986  -1.444  0.00  0.00    +0.000 A 
ATOM     15  C   UNL     1       4.205   4.250  -2.697  0.00  0.00    +0.000 A 
ATOM     16  C   UNL     1       4.504   3.253  -1.771  0.00  0.00    +0.000 A 
ENDBRANCH  10  11
ENDBRANCH   1  10
TORSDOF 2
ENDMDL
MODEL 6
REMARK VINA RESULT:    -5.038      2.872      3.718
REMARK INTER + INTRA:          -5.807
REMARK INTER:                  -5.687
REMARK INTRA:                  -0.120
REMARK UNBOUND:                -0.180
REMARK  Name = 1550473
REMARK  2 active torsions:
REMARK  status: ('A' for Active; 'I' for Inactive)
REMARK    1  A    between atoms: N_1  and  C_4
REMARK    2  A    between atoms: C_4  and  C_5
REMARK                            x       y       z     vdW  Elec       q    Type
REMARK                         _______ _______ _______ _____ _____    ______ ____
ROOT
ATOM      1  N   UNL     1      -1.280 -15.141 -18.411  0.00  0.00    -0.354 N 
ATOM      2  N   UNL     1      -2.658 -16.417 -19.767  0.00  0.00    -0.372 N 
ATOM      3  N   UNL     1      -1.462 -17.457 -18.107  0.00  0.00    -0.372 N 
ATOM      4  C   UNL     1      -1.790 -16.332 -18.751  0.00  0.00    +0.166 C 
ATOM      5  H   UNL     1      -1.546 -14.330 -18.958  0.00  0.00    +0.163 HD
ATOM      6  H   UNL     1      -3.062 -17.302 -20.044  0.00  0.00    +0.159 HD
ATOM      7  H   UNL     1      -2.956 -15.598 -20.282  0.00  0.00    +0.159 HD
ATOM      8  H   UNL     1      -0.809 -17.462 -17.336  0.00  0.00    +0.159 HD
ATOM      9  H   UNL     1      -1.847 -18.354 -18.377  0.00  0.00    +0.159 HD
ENDROOT
BRANCH   1  10
ATOM     10  C   UNL     1      -0.370 -14.932 -17.287  0.00  0.00    +0.151 C 
BRANCH  10  11
ATOM     11  C   UNL     1      -0.769 -13.679 -16.557  0.00  0.00    -0.028 A 
ATOM     12  C   UNL     1      -0.028 -12.498 -16.711  0.00  0.00    +0.005 A 
ATOM     13  C   UNL     1      -1.891 -13.665 -15.714  0.00  0.00    +0.005 A 
ATOM     14  C   UNL     1      -0.416 -11.327 -16.057  0.00  0.00    +0.000 A 
ATOM     15  C   UNL     1      -2.275 -12.493 -15.062  0.00  0.00    +0.000 A 
ATOM     16  C   UNL     1      -1.539 -11.324 -15.236  0.00  0.00    +0.000 A 
ENDBRANCH  10  11
ENDBRANCH   1  10
TORSDOF 2
ENDMDL
MODEL 7
REMARK VINA RESULT:    -4.907     22.542     23.000
REMARK INTER + INTRA:          -5.661
REMARK INTER:                  -5.529
REMARK INTRA:                  -0.132
REMARK UNBOUND:                -0.180
REMARK  Name = 1550473
REMARK  2 active torsions:
REMARK  status: ('A' for Active; 'I' for Inactive)
REMARK    1  A    between atoms: N_1  and  C_4
REMARK    2  A    between atoms: C_4  and  C_5
REMARK                            x       y       z     vdW  Elec       q    Type
REMARK                         _______ _______ _______ _____ _____    ______ ____
ROOT
ATOM      1  N   UNL     1       8.123   1.920  -0.614  0.00  0.00    -0.354 N 
ATOM      2  N   UNL     1       8.468  -0.241   0.146  0.00  0.00    -0.372 N 
ATOM      3  N   UNL     1       8.995   0.268  -2.028  0.00  0.00    -0.372 N 
ATOM      4  C   UNL     1       8.527   0.663  -0.840  0.00  0.00    +0.166 C 
ATOM      5  H   UNL     1       7.750   2.149   0.301  0.00  0.00    +0.163 HD
ATOM      6  H   UNL     1       8.769  -1.196   0.007  0.00  0.00    +0.159 HD
ATOM      7  H   UNL     1       8.137   0.002   1.072  0.00  0.00    +0.159 HD
ATOM      8  H   UNL     1       9.060   0.899  -2.815  0.00  0.00    +0.159 HD
ATOM      9  H   UNL     1       9.290  -0.687  -2.191  0.00  0.00    +0.159 HD
ENDROOT
BRANCH   1  10
ATOM     10  C   UNL     1       8.197   2.993  -1.604  0.00  0.00    +0.151 C 
BRANCH  10  11
ATOM     11  C   UNL     1       6.802   3.412  -1.978  0.00  0.00    -0.028 A 
ATOM     12  C   UNL     1       5.693   2.867  -1.316  0.00  0.00    +0.005 A 
ATOM     13  C   UNL     1       6.584   4.359  -2.991  0.00  0.00    +0.005 A 
ATOM     14  C   UNL     1       4.398   3.278  -1.643  0.00  0.00    +0.000 A 
ATOM     15  C   UNL     1       5.290   4.766  -3.316  0.00  0.00    +0.000 A 
ATOM     16  C   UNL     1       4.198   4.228  -2.640  0.00  0.00    +0.000 A 
ENDBRANCH  10  11
ENDBRANCH   1  10
TORSDOF 2
ENDMDL
MODEL 8
REMARK VINA RESULT:    -4.737     14.173     15.635
REMARK INTER + INTRA:          -5.471
REMARK INTER:                  -5.337
REMARK INTRA:                  -0.134
REMARK UNBOUND:                -0.180
REMARK  Name = 1550473
REMARK  2 active torsions:
REMARK  status: ('A' for Active; 'I' for Inactive)
REMARK    1  A    between atoms: N_1  and  C_4
REMARK    2  A    between atoms: C_4  and  C_5
REMARK                            x       y       z     vdW  Elec       q    Type
REMARK                         _______ _______ _______ _____ _____    ______ ____
ROOT
ATOM      1  N   UNL     1       3.211 -10.492  -0.184  0.00  0.00    -0.354 N 
ATOM      2  N   UNL     1       3.422  -8.192  -0.355  0.00  0.00    -0.372 N 
ATOM      3  N   UNL     1       2.495  -9.082   1.546  0.00  0.00    -0.372 N 
ATOM      4  C   UNL     1       3.040  -9.270   0.339  0.00  0.00    +0.166 C 
ATOM      5  H   UNL     1       3.603 -10.566  -1.116  0.00  0.00    +0.163 HD
ATOM      6  H   UNL     1       3.308  -7.257   0.015  0.00  0.00    +0.159 HD
ATOM      7  H   UNL     1       3.855  -8.271  -1.267  0.00  0.00    +0.159 HD
ATOM      8  H   UNL     1       2.180  -9.854   2.118  0.00  0.00    +0.159 HD
ATOM      9  H   UNL     1       2.362  -8.154   1.928  0.00  0.00    +0.159 HD
ENDROOT
BRANCH   1  10
ATOM     10  C   UNL     1       2.879 -11.733   0.512  0.00  0.00    +0.151 C 
BRANCH  10  11
ATOM     11  C   UNL     1       2.143 -12.644  -0.431  0.00  0.00    -0.028 A 
ATOM     12  C   UNL     1       2.315 -12.521  -1.818  0.00  0.00    +0.005 A 
ATOM     13  C   UNL     1       1.277 -13.635   0.055  0.00  0.00    +0.005 A 
ATOM     14  C   UNL     1       1.655 -13.386  -2.694  0.00  0.00    +0.000 A 
ATOM     15  C   UNL     1       0.619 -14.497  -0.823  0.00  0.00    +0.000 A 
ATOM     16  C   UNL     1       0.810 -14.374  -2.197  0.00  0.00    +0.000 A 
ENDBRANCH  10  11
ENDBRANCH   1  10
TORSDOF 2
ENDMDL
MODEL 9
REMARK VINA RESULT:    -4.621     20.389     21.292
REMARK INTER + INTRA:          -5.342
REMARK INTER:                  -5.201
REMARK INTRA:                  -0.141
REMARK UNBOUND:                -0.180
REMARK  Name = 1550473
REMARK  2 active torsions:
REMARK  status: ('A' for Active; 'I' for Inactive)
REMARK    1  A    between atoms: N_1  and  C_4
REMARK    2  A    between atoms: C_4  and  C_5
REMARK                            x       y       z     vdW  Elec       q    Type
REMARK                         _______ _______ _______ _____ _____    ______ ____
ROOT
ATOM      1  N   UNL     1      11.124  -3.623  -0.721  0.00  0.00    -0.354 N 
ATOM      2  N   UNL     1      12.524  -4.529   0.887  0.00  0.00    -0.372 N 
ATOM      3  N   UNL     1      10.756  -5.777   0.125  0.00  0.00    -0.372 N 
ATOM      4  C   UNL     1      11.457  -4.639   0.086  0.00  0.00    +0.166 C 
ATOM      5  H   UNL     1      11.679  -2.776  -0.681  0.00  0.00    +0.163 HD
ATOM      6  H   UNL     1      12.801  -5.280   1.505  0.00  0.00    +0.159 HD
ATOM      7  H   UNL     1      13.103  -3.698   0.891  0.00  0.00    +0.159 HD
ATOM      8  H   UNL     1       9.936  -5.921  -0.450  0.00  0.00    +0.159 HD
ATOM      9  H   UNL     1      11.010  -6.536   0.745  0.00  0.00    +0.159 HD
ENDROOT
BRANCH   1  10
ATOM     10  C   UNL     1      10.013  -3.663  -1.670  0.00  0.00    +0.151 C 
BRANCH  10  11
ATOM     11  C   UNL     1       9.110  -2.488  -1.418  0.00  0.00    -0.028 A 
ATOM     12  C   UNL     1       9.327  -1.646  -0.317  0.00  0.00    +0.005 A 
ATOM     13  C   UNL     1       8.038  -2.207  -2.279  0.00  0.00    +0.005 A 
ATOM     14  C   UNL     1       8.506  -0.537  -0.099  0.00  0.00    +0.000 A 
ATOM     15  C   UNL     1       7.220  -1.099  -2.058  0.00  0.00    +0.000 A 
ATOM     16  C   UNL     1       7.456  -0.263  -0.969  0.00  0.00    +0.000 A 
ENDBRANCH  10  11
ENDBRANCH   1  10
TORSDOF 2
ENDMDL
