MODEL 1
REMARK VINA RESULT:    -5.524      0.000      0.000
REMARK INTER + INTRA:          -6.291
REMARK INTER:                  -6.170
REMARK INTRA:                  -0.121
REMARK UNBOUND:                -0.121
REMARK  Name = 1550473
REMARK  2 active torsions:
REMARK  status: ('A' for Active; 'I' for Inactive)
REMARK    1  A    between atoms: N_1  and  C_4
REMARK    2  A    between atoms: C_4  and  C_5
REMARK                            x       y       z     vdW  Elec       q    Type
REMARK                         _______ _______ _______ _____ _____    ______ ____
ROOT
ATOM      1  N   UNL     1       3.495   0.741 -21.644  0.00  0.00    -0.354 N 
ATOM      2  N   UNL     1       1.660   2.027 -22.232  0.00  0.00    -0.372 N 
ATOM      3  N   UNL     1       3.259   2.938 -20.861  0.00  0.00    -0.372 N 
ATOM      4  C   UNL     1       2.818   1.895 -21.573  0.00  0.00    +0.166 C 
ATOM      5  H   UNL     1       3.092  -0.021 -22.177  0.00  0.00    +0.163 HD
ATOM      6  H   UNL     1       1.129   2.887 -22.200  0.00  0.00    +0.159 HD
ATOM      7  H   UNL     1       1.283   1.279 -22.801  0.00  0.00    +0.159 HD
ATOM      8  H   UNL     1       4.123   2.900 -20.337  0.00  0.00    +0.159 HD
ATOM      9  H   UNL     1       2.736   3.803 -20.808  0.00  0.00    +0.159 HD
ENDROOT
BRANCH   1  10
ATOM     10  C   UNL     1       4.791   0.513 -21.008  0.00  0.00    +0.151 C 
BRANCH  10  11
ATOM     11  C   UNL     1       5.096  -0.959 -21.028  0.00  0.00    -0.028 A 
ATOM     12  C   UNL     1       6.423  -1.412 -20.999  0.00  0.00    +0.005 A 
ATOM     13  C   UNL     1       4.061  -1.907 -21.069  0.00  0.00    +0.005 A 
ATOM     14  C   UNL     1       6.705  -2.780 -20.987  0.00  0.00    +0.000 A 
ATOM     15  C   UNL     1       4.347  -3.272 -21.057  0.00  0.00    +0.000 A 
ATOM     16  C   UNL     1       5.669  -3.708 -21.014  0.00  0.00    +0.000 A 
ENDBRANCH  10  11
ENDBRANCH   1  10
TORSDOF 2
ENDMDL
MODEL 2
REMARK VINA RESULT:    -5.239      3.825      5.463
REMARK INTER + INTRA:          -5.972
REMARK INTER:                  -5.800
REMARK INTRA:                  -0.172
REMARK UNBOUND:                -0.121
REMARK  Name = 1550473
REMARK  2 active torsions:
REMARK  status: ('A' for Active; 'I' for Inactive)
REMARK    1  A    between atoms: N_1  and  C_4
REMARK    2  A    between atoms: C_4  and  C_5
REMARK                            x       y       z     vdW  Elec       q    Type
REMARK                         _______ _______ _______ _____ _____    ______ ____
ROOT
ATOM      1  N   UNL     1       6.635  -3.640 -21.929  0.00  0.00    -0.354 N 
ATOM      2  N   UNL     1       7.113  -5.618 -20.822  0.00  0.00    -0.372 N 
ATOM      3  N   UNL     1       5.033  -5.341 -21.750  0.00  0.00    -0.372 N 
ATOM      4  C   UNL     1       6.255  -4.854 -21.508  0.00  0.00    +0.166 C 
ATOM      5  H   UNL     1       7.565  -3.316 -21.687  0.00  0.00    +0.163 HD
ATOM      6  H   UNL     1       6.856  -6.539 -20.494  0.00  0.00    +0.159 HD
ATOM      7  H   UNL     1       8.057  -5.310 -20.621  0.00  0.00    +0.159 HD
ATOM      8  H   UNL     1       4.337  -4.813 -22.258  0.00  0.00    +0.159 HD
ATOM      9  H   UNL     1       4.753  -6.257 -21.421  0.00  0.00    +0.159 HD
ENDROOT
BRANCH   1  10
ATOM     10  C   UNL     1       5.795  -2.752 -22.730  0.00  0.00    +0.151 C 
BRANCH  10  11
ATOM     11  C   UNL     1       5.306  -1.624 -21.863  0.00  0.00    -0.028 A 
ATOM     12  C   UNL     1       3.938  -1.474 -21.595  0.00  0.00    +0.005 A 
ATOM     13  C   UNL     1       6.207  -0.707 -21.301  0.00  0.00    +0.005 A 
ATOM     14  C   UNL     1       3.486  -0.445 -20.765  0.00  0.00    +0.000 A 
ATOM     15  C   UNL     1       5.752   0.320 -20.474  0.00  0.00    +0.000 A 
ATOM     16  C   UNL     1       4.392   0.449 -20.204  0.00  0.00    +0.000 A 
ENDBRANCH  10  11
ENDBRANCH   1  10
TORSDOF 2
ENDMDL
MODEL 3
REMARK VINA RESULT:    -5.189      2.867      3.669
REMARK INTER + INTRA:          -5.916
REMARK INTER:                  -5.735
REMARK INTRA:                  -0.181
REMARK UNBOUND:                -0.121
REMARK  Name = 1550473
REMARK  2 active torsions:
REMARK  status: ('A' for Active; 'I' for Inactive)
REMARK    1  A    between atoms: N_1  and  C_4
REMARK    2  A    between atoms: C_4  and  C_5
REMARK                            x       y       z     vdW  Elec       q    Type
REMARK                         _______ _______ _______ _____ _____    ______ ____
ROOT
ATOM      1  N   UNL     1       2.489  -2.266 -24.112  0.00  0.00    -0.354 N 
ATOM      2  N   UNL     1       1.203  -1.162 -25.691  0.00  0.00    -0.372 N 
ATOM      3  N   UNL     1       0.500  -1.185 -23.507  0.00  0.00    -0.372 N 
ATOM      4  C   UNL     1       1.404  -1.545 -24.424  0.00  0.00    +0.166 C 
ATOM      5  H   UNL     1       3.121  -2.533 -24.858  0.00  0.00    +0.163 HD
ATOM      6  H   UNL     1       0.396  -0.614 -25.956  0.00  0.00    +0.159 HD
ATOM      7  H   UNL     1       1.860  -1.391 -26.427  0.00  0.00    +0.159 HD
ATOM      8  H   UNL     1       0.590  -1.446 -22.534  0.00  0.00    +0.159 HD
ATOM      9  H   UNL     1      -0.321  -0.646 -23.754  0.00  0.00    +0.159 HD
ENDROOT
BRANCH   1  10
ATOM     10  C   UNL     1       2.828  -2.687 -22.754  0.00  0.00    +0.151 C 
BRANCH  10  11
ATOM     11  C   UNL     1       3.903  -1.785 -22.214  0.00  0.00    -0.028 A 
ATOM     12  C   UNL     1       5.179  -1.770 -22.797  0.00  0.00    +0.005 A 
ATOM     13  C   UNL     1       3.651  -0.938 -21.124  0.00  0.00    +0.005 A 
ATOM     14  C   UNL     1       6.169  -0.910 -22.315  0.00  0.00    +0.000 A 
ATOM     15  C   UNL     1       4.643  -0.082 -20.645  0.00  0.00    +0.000 A 
ATOM     16  C   UNL     1       5.900  -0.066 -21.243  0.00  0.00    +0.000 A 
ENDBRANCH  10  11
ENDBRANCH   1  10
TORSDOF 2
ENDMDL
MODEL 4
REMARK VINA RESULT:    -5.121      4.398      5.673
REMARK INTER + INTRA:          -5.840
REMARK INTER:                  -5.680
REMARK INTRA:                  -0.160
REMARK UNBOUND:                -0.121
REMARK  Name = 1550473
REMARK  2 active torsions:
REMARK  status: ('A' for Active; 'I' for Inactive)
REMARK    1  A    between atoms: N_1  and  C_4
REMARK    2  A    between atoms: C_4  and  C_5
REMARK                            x       y       z     vdW  Elec       q    Type
REMARK                         _______ _______ _______ _____ _____    ______ ____
ROOT
ATOM      1  N   UNL     1       7.244  -4.423 -22.659  0.00  0.00    -0.354 N 
ATOM      2  N   UNL     1       6.429  -6.562 -22.301  0.00  0.00    -0.372 N 
ATOM      3  N   UNL     1       7.164  -5.340 -20.503  0.00  0.00    -0.372 N 
ATOM      4  C   UNL     1       6.952  -5.427 -21.821  0.00  0.00    +0.166 C 
ATOM      5  H   UNL     1       7.087  -4.563 -23.650  0.00  0.00    +0.163 HD
ATOM      6  H   UNL     1       6.195  -7.335 -21.693  0.00  0.00    +0.159 HD
ATOM      7  H   UNL     1       6.231  -6.682 -23.287  0.00  0.00    +0.159 HD
ATOM      8  H   UNL     1       7.561  -4.513 -20.079  0.00  0.00    +0.159 HD
ATOM      9  H   UNL     1       6.947  -6.108 -19.880  0.00  0.00    +0.159 HD
ENDROOT
BRANCH   1  10
ATOM     10  C   UNL     1       7.766  -3.127 -22.231  0.00  0.00    +0.151 C 
BRANCH  10  11
ATOM     11  C   UNL     1       6.617  -2.179 -22.023  0.00  0.00    -0.028 A 
ATOM     12  C   UNL     1       6.601  -1.311 -20.922  0.00  0.00    +0.005 A 
ATOM     13  C   UNL     1       5.545  -2.140 -22.928  0.00  0.00    +0.005 A 
ATOM     14  C   UNL     1       5.548  -0.409 -20.745  0.00  0.00    +0.000 A 
ATOM     15  C   UNL     1       4.496  -1.239 -22.747  0.00  0.00    +0.000 A 
ATOM     16  C   UNL     1       4.499  -0.372 -21.658  0.00  0.00    +0.000 A 
ENDBRANCH  10  11
ENDBRANCH   1  10
TORSDOF 2
ENDMDL
MODEL 5
REMARK VINA RESULT:    -5.118     19.822     20.499
REMARK INTER + INTRA:          -5.837
REMARK INTER:                  -5.706
REMARK INTRA:                  -0.131
REMARK UNBOUND:                -0.121
REMARK  Name = 1550473
REMARK  2 active torsions:
REMARK  status: ('A' for Active; 'I' for Inactive)
REMARK    1  A    between atoms: N_1  and  C_4
REMARK    2  A    between atoms: C_4  and  C_5
REMARK                            x       y       z     vdW  Elec       q    Type
REMARK                         _______ _______ _______ _____ _____    ______ ____
ROOT
ATOM      1  N   UNL     1     -10.767  -8.454 -10.192  0.00  0.00    -0.354 N 
ATOM      2  N   UNL     1     -10.195 -10.239 -11.552  0.00  0.00    -0.372 N 
ATOM      3  N   UNL     1     -11.557  -8.595 -12.394  0.00  0.00    -0.372 N 
ATOM      4  C   UNL     1     -10.845  -9.083 -11.372  0.00  0.00    +0.166 C 
ATOM      5  H   UNL     1     -10.236  -8.891  -9.448  0.00  0.00    +0.163 HD
ATOM      6  H   UNL     1     -10.232 -10.735 -12.433  0.00  0.00    +0.159 HD
ATOM      7  H   UNL     1      -9.628 -10.650 -10.821  0.00  0.00    +0.159 HD
ATOM      8  H   UNL     1     -12.075  -7.730 -12.321  0.00  0.00    +0.159 HD
ATOM      9  H   UNL     1     -11.616  -9.083 -13.279  0.00  0.00    +0.159 HD
ENDROOT
BRANCH   1  10
ATOM     10  C   UNL     1     -11.394  -7.163  -9.911  0.00  0.00    +0.151 C 
BRANCH  10  11
ATOM     11  C   UNL     1     -10.567  -6.428  -8.891  0.00  0.00    -0.028 A 
ATOM     12  C   UNL     1     -11.104  -5.336  -8.193  0.00  0.00    +0.005 A 
ATOM     13  C   UNL     1      -9.249  -6.822  -8.615  0.00  0.00    +0.005 A 
ATOM     14  C   UNL     1     -10.347  -4.672  -7.225  0.00  0.00    +0.000 A 
ATOM     15  C   UNL     1      -8.497  -6.156  -7.648  0.00  0.00    +0.000 A 
ATOM     16  C   UNL     1      -9.047  -5.083  -6.952  0.00  0.00    +0.000 A 
ENDBRANCH  10  11
ENDBRANCH   1  10
TORSDOF 2
ENDMDL
MODEL 6
REMARK VINA RESULT:    -4.847     32.409     32.963
REMARK INTER + INTRA:          -5.534
REMARK INTER:                  -5.370
REMARK INTRA:                  -0.165
REMARK UNBOUND:                -0.121
REMARK  Name = 1550473
REMARK  2 active torsions:
REMARK  status: ('A' for Active; 'I' for Inactive)
REMARK    1  A    between atoms: N_1  and  C_4
REMARK    2  A    between atoms: C_4  and  C_5
REMARK                            x       y       z     vdW  Elec       q    Type
REMARK                         _______ _______ _______ _____ _____    ______ ____
ROOT
ATOM      1  N   UNL     1     -12.640  -7.503   4.353  0.00  0.00    -0.354 N 
ATOM      2  N   UNL     1     -10.521  -8.328   3.916  0.00  0.00    -0.372 N 
ATOM      3  N   UNL     1     -10.931  -6.095   3.587  0.00  0.00    -0.372 N 
ATOM      4  C   UNL     1     -11.378  -7.301   3.954  0.00  0.00    +0.166 C 
ATOM      5  H   UNL     1     -12.925  -8.446   4.589  0.00  0.00    +0.163 HD
ATOM      6  H   UNL     1      -9.561  -8.206   3.622  0.00  0.00    +0.159 HD
ATOM      7  H   UNL     1     -10.796  -9.262   4.196  0.00  0.00    +0.159 HD
ATOM      8  H   UNL     1     -11.528  -5.279   3.587  0.00  0.00    +0.159 HD
ATOM      9  H   UNL     1      -9.977  -5.954   3.279  0.00  0.00    +0.159 HD
ENDROOT
BRANCH   1  10
ATOM     10  C   UNL     1     -13.637  -6.441   4.481  0.00  0.00    +0.151 C 
BRANCH  10  11
ATOM     11  C   UNL     1     -13.803  -6.096   5.936  0.00  0.00    -0.028 A 
ATOM     12  C   UNL     1     -13.737  -7.097   6.916  0.00  0.00    +0.005 A 
ATOM     13  C   UNL     1     -14.020  -4.770   6.340  0.00  0.00    +0.005 A 
ATOM     14  C   UNL     1     -13.861  -6.773   8.270  0.00  0.00    +0.000 A 
ATOM     15  C   UNL     1     -14.144  -4.451   7.692  0.00  0.00    +0.000 A 
ATOM     16  C   UNL     1     -14.063  -5.452   8.657  0.00  0.00    +0.000 A 
ENDBRANCH  10  11
ENDBRANCH   1  10
TORSDOF 2
ENDMDL
MODEL 7
REMARK VINA RESULT:    -4.775     30.799     32.227
REMARK INTER + INTRA:          -5.454
REMARK INTER:                  -5.331
REMARK INTRA:                  -0.123
REMARK UNBOUND:                -0.121
REMARK  Name = 1550473
REMARK  2 active torsions:
REMARK  status: ('A' for Active; 'I' for Inactive)
REMARK    1  A    between atoms: N_1  and  C_4
REMARK    2  A    between atoms: C_4  and  C_5
REMARK                            x       y       z     vdW  Elec       q    Type
REMARK                         _______ _______ _______ _____ _____    ______ ____
ROOT
ATOM      1  N   UNL     1     -14.651  10.303   4.393  0.00  0.00    -0.354 N 
ATOM      2  N   UNL     1     -15.615  12.283   5.110  0.00  0.00    -0.372 N 
ATOM      3  N   UNL     1     -13.364  11.969   5.423  0.00  0.00    -0.372 N 
ATOM      4  C   UNL     1     -14.535  11.506   4.972  0.00  0.00    +0.166 C 
ATOM      5  H   UNL     1     -15.572   9.998   4.099  0.00  0.00    +0.163 HD
ATOM      6  H   UNL     1     -15.558  13.197   5.539  0.00  0.00    +0.159 HD
ATOM      7  H   UNL     1     -16.526  11.995   4.774  0.00  0.00    +0.159 HD
ATOM      8  H   UNL     1     -12.512  11.429   5.355  0.00  0.00    +0.159 HD
ATOM      9  H   UNL     1     -13.288  12.876   5.867  0.00  0.00    +0.159 HD
ENDROOT
BRANCH   1  10
ATOM     10  C   UNL     1     -13.527   9.402   4.146  0.00  0.00    +0.151 C 
BRANCH  10  11
ATOM     11  C   UNL     1     -13.755   8.677   2.849  0.00  0.00    -0.028 A 
ATOM     12  C   UNL     1     -13.976   9.392   1.663  0.00  0.00    +0.005 A 
ATOM     13  C   UNL     1     -13.744   7.275   2.798  0.00  0.00    +0.005 A 
ATOM     14  C   UNL     1     -14.158   8.719   0.452  0.00  0.00    +0.000 A 
ATOM     15  C   UNL     1     -13.927   6.606   1.587  0.00  0.00    +0.000 A 
ATOM     16  C   UNL     1     -14.131   7.329   0.414  0.00  0.00    +0.000 A 
ENDBRANCH  10  11
ENDBRANCH   1  10
TORSDOF 2
ENDMDL
MODEL 8
REMARK VINA RESULT:    -4.740     33.115     33.731
REMARK INTER + INTRA:          -5.415
REMARK INTER:                  -5.269
REMARK INTRA:                  -0.146
REMARK UNBOUND:                -0.121
REMARK  Name = 1550473
REMARK  2 active torsions:
REMARK  status: ('A' for Active; 'I' for Inactive)
REMARK    1  A    between atoms: N_1  and  C_4
REMARK    2  A    between atoms: C_4  and  C_5
REMARK                            x       y       z     vdW  Elec       q    Type
REMARK                         _______ _______ _______ _____ _____    ______ ____
ROOT
ATOM      1  N   UNL     1     -12.392  -7.622   8.071  0.00  0.00    -0.354 N 
ATOM      2  N   UNL     1     -10.204  -7.898   8.781  0.00  0.00    -0.372 N 
ATOM      3  N   UNL     1     -11.087  -9.408   7.297  0.00  0.00    -0.372 N 
ATOM      4  C   UNL     1     -11.242  -8.310   8.043  0.00  0.00    +0.166 C 
ATOM      5  H   UNL     1     -12.455  -6.815   8.681  0.00  0.00    +0.163 HD
ATOM      6  H   UNL     1      -9.323  -8.394   8.777  0.00  0.00    +0.159 HD
ATOM      7  H   UNL     1     -10.255  -7.064   9.354  0.00  0.00    +0.159 HD
ATOM      8  H   UNL     1     -11.834  -9.775   6.722  0.00  0.00    +0.159 HD
ATOM      9  H   UNL     1     -10.217  -9.926   7.289  0.00  0.00    +0.159 HD
ENDROOT
BRANCH   1  10
ATOM     10  C   UNL     1     -13.564  -7.956   7.265  0.00  0.00    +0.151 C 
BRANCH  10  11
ATOM     11  C   UNL     1     -13.835  -6.833   6.302  0.00  0.00    -0.028 A 
ATOM     12  C   UNL     1     -13.689  -7.029   4.921  0.00  0.00    +0.005 A 
ATOM     13  C   UNL     1     -14.243  -5.573   6.765  0.00  0.00    +0.005 A 
ATOM     14  C   UNL     1     -13.969  -5.994   4.025  0.00  0.00    +0.000 A 
ATOM     15  C   UNL     1     -14.520  -4.542   5.867  0.00  0.00    +0.000 A 
ATOM     16  C   UNL     1     -14.386  -4.754   4.497  0.00  0.00    +0.000 A 
ENDBRANCH  10  11
ENDBRANCH   1  10
TORSDOF 2
ENDMDL
MODEL 9
REMARK VINA RESULT:    -4.658      2.999      3.845
REMARK INTER + INTRA:          -5.324
REMARK INTER:                  -5.193
REMARK INTRA:                  -0.130
REMARK UNBOUND:                -0.121
REMARK  Name = 1550473
REMARK  2 active torsions:
REMARK  status: ('A' for Active; 'I' for Inactive)
REMARK    1  A    between atoms: N_1  and  C_4
REMARK    2  A    between atoms: C_4  and  C_5
REMARK                            x       y       z     vdW  Elec       q    Type
REMARK                         _______ _______ _______ _____ _____    ______ ____
ROOT
ATOM      1  N   UNL     1       1.563  -0.843 -24.812  0.00  0.00    -0.354 N 
ATOM      2  N   UNL     1       1.371   0.858 -26.371  0.00  0.00    -0.372 N 
ATOM      3  N   UNL     1      -0.331   0.536 -24.866  0.00  0.00    -0.372 N 
ATOM      4  C   UNL     1       0.867   0.173 -25.338  0.00  0.00    +0.166 C 
ATOM      5  H   UNL     1       2.451  -1.089 -25.235  0.00  0.00    +0.163 HD
ATOM      6  H   UNL     1       0.870   1.632 -26.787  0.00  0.00    +0.159 HD
ATOM      7  H   UNL     1       2.280   0.640 -26.762  0.00  0.00    +0.159 HD
ATOM      8  H   UNL     1      -0.769   0.056 -24.092  0.00  0.00    +0.159 HD
ATOM      9  H   UNL     1      -0.852   1.301 -25.277  0.00  0.00    +0.159 HD
ENDROOT
BRANCH   1  10
ATOM     10  C   UNL     1       1.127  -1.619 -23.652  0.00  0.00    +0.151 C 
BRANCH  10  11
ATOM     11  C   UNL     1       2.285  -1.780 -22.705  0.00  0.00    -0.028 A 
ATOM     12  C   UNL     1       2.837  -0.664 -22.061  0.00  0.00    +0.005 A 
ATOM     13  C   UNL     1       2.830  -3.046 -22.445  0.00  0.00    +0.005 A 
ATOM     14  C   UNL     1       3.893  -0.816 -21.158  0.00  0.00    +0.000 A 
ATOM     15  C   UNL     1       3.884  -3.194 -21.544  0.00  0.00    +0.000 A 
ATOM     16  C   UNL     1       4.414  -2.079 -20.899  0.00  0.00    +0.000 A 
ENDBRANCH  10  11
ENDBRANCH   1  10
TORSDOF 2
ENDMDL
