MODEL 1
REMARK VINA RESULT:    -5.776      0.000      0.000
REMARK INTER + INTRA:          -6.633
REMARK INTER:                  -6.451
REMARK INTRA:                  -0.182
REMARK UNBOUND:                -0.182
REMARK  Name = 1550473
REMARK  2 active torsions:
REMARK  status: ('A' for Active; 'I' for Inactive)
REMARK    1  A    between atoms: N_1  and  C_4
REMARK    2  A    between atoms: C_4  and  C_5
REMARK                            x       y       z     vdW  Elec       q    Type
REMARK                         _______ _______ _______ _____ _____    ______ ____
ROOT
ATOM      1  N   UNL     1      -0.686  -6.971   6.447  0.00  0.00    -0.354 N 
ATOM      2  N   UNL     1       1.164  -6.283   7.659  0.00  0.00    -0.372 N 
ATOM      3  N   UNL     1       1.180  -6.041   5.377  0.00  0.00    -0.372 N 
ATOM      4  C   UNL     1       0.541  -6.436   6.484  0.00  0.00    +0.166 C 
ATOM      5  H   UNL     1      -1.104  -7.278   7.318  0.00  0.00    +0.163 HD
ATOM      6  H   UNL     1       2.089  -5.880   7.718  0.00  0.00    +0.159 HD
ATOM      7  H   UNL     1       0.726  -6.549   8.532  0.00  0.00    +0.159 HD
ATOM      8  H   UNL     1       0.767  -6.135   4.459  0.00  0.00    +0.159 HD
ATOM      9  H   UNL     1       2.111  -5.646   5.415  0.00  0.00    +0.159 HD
ENDROOT
BRANCH   1  10
ATOM     10  C   UNL     1      -1.472  -7.132   5.225  0.00  0.00    +0.151 C 
BRANCH  10  11
ATOM     11  C   UNL     1      -1.387  -8.562   4.770  0.00  0.00    -0.028 A 
ATOM     12  C   UNL     1      -0.744  -8.890   3.568  0.00  0.00    +0.005 A 
ATOM     13  C   UNL     1      -1.943  -9.596   5.541  0.00  0.00    +0.005 A 
ATOM     14  C   UNL     1      -0.639 -10.222   3.160  0.00  0.00    +0.000 A 
ATOM     15  C   UNL     1      -1.836 -10.924   5.130  0.00  0.00    +0.000 A 
ATOM     16  C   UNL     1      -1.182 -11.237   3.941  0.00  0.00    +0.000 A 
ENDBRANCH  10  11
ENDBRANCH   1  10
TORSDOF 2
ENDMDL
MODEL 2
REMARK VINA RESULT:    -5.626      2.515      4.157
REMARK INTER + INTRA:          -6.466
REMARK INTER:                  -6.286
REMARK INTRA:                  -0.180
REMARK UNBOUND:                -0.182
REMARK  Name = 1550473
REMARK  2 active torsions:
REMARK  status: ('A' for Active; 'I' for Inactive)
REMARK    1  A    between atoms: N_1  and  C_4
REMARK    2  A    between atoms: C_4  and  C_5
REMARK                            x       y       z     vdW  Elec       q    Type
REMARK                         _______ _______ _______ _____ _____    ______ ____
ROOT
ATOM      1  N   UNL     1      -1.538  -8.617   4.351  0.00  0.00    -0.354 N 
ATOM      2  N   UNL     1      -0.428 -10.048   2.907  0.00  0.00    -0.372 N 
ATOM      3  N   UNL     1       0.454  -7.966   3.302  0.00  0.00    -0.372 N 
ATOM      4  C   UNL     1      -0.510  -8.865   3.529  0.00  0.00    +0.166 C 
ATOM      5  H   UNL     1      -2.252  -9.329   4.457  0.00  0.00    +0.163 HD
ATOM      6  H   UNL     1       0.339 -10.265   2.284  0.00  0.00    +0.159 HD
ATOM      7  H   UNL     1      -1.118 -10.774   3.052  0.00  0.00    +0.159 HD
ATOM      8  H   UNL     1       0.447  -7.052   3.736  0.00  0.00    +0.159 HD
ATOM      9  H   UNL     1       1.222  -8.160   2.672  0.00  0.00    +0.159 HD
ENDROOT
BRANCH   1  10
ATOM     10  C   UNL     1      -1.693  -7.382   5.117  0.00  0.00    +0.151 C 
BRANCH  10  11
ATOM     11  C   UNL     1      -1.131  -7.587   6.497  0.00  0.00    -0.028 A 
ATOM     12  C   UNL     1      -0.057  -6.808   6.952  0.00  0.00    +0.005 A 
ATOM     13  C   UNL     1      -1.674  -8.554   7.358  0.00  0.00    +0.005 A 
ATOM     14  C   UNL     1       0.446  -6.978   8.244  0.00  0.00    +0.000 A 
ATOM     15  C   UNL     1      -1.169  -8.720   8.647  0.00  0.00    +0.000 A 
ATOM     16  C   UNL     1      -0.111  -7.930   9.091  0.00  0.00    +0.000 A 
ENDBRANCH  10  11
ENDBRANCH   1  10
TORSDOF 2
ENDMDL
MODEL 3
REMARK VINA RESULT:    -5.496     19.542     20.193
REMARK INTER + INTRA:          -6.320
REMARK INTER:                  -6.190
REMARK INTRA:                  -0.131
REMARK UNBOUND:                -0.182
REMARK  Name = 1550473
REMARK  2 active torsions:
REMARK  status: ('A' for Active; 'I' for Inactive)
REMARK    1  A    between atoms: N_1  and  C_4
REMARK    2  A    between atoms: C_4  and  C_5
REMARK                            x       y       z     vdW  Elec       q    Type
REMARK                         _______ _______ _______ _____ _____    ______ ____
ROOT
ATOM      1  N   UNL     1      -1.643   1.469 -12.738  0.00  0.00    -0.354 N 
ATOM      2  N   UNL     1      -1.659   3.555 -13.743  0.00  0.00    -0.372 N 
ATOM      3  N   UNL     1      -0.037   3.085 -12.189  0.00  0.00    -0.372 N 
ATOM      4  C   UNL     1      -1.111   2.690 -12.881  0.00  0.00    +0.166 C 
ATOM      5  H   UNL     1      -2.475   1.241 -13.269  0.00  0.00    +0.163 HD
ATOM      6  H   UNL     1      -1.277   4.482 -13.875  0.00  0.00    +0.159 HD
ATOM      7  H   UNL     1      -2.463   3.309 -14.307  0.00  0.00    +0.159 HD
ATOM      8  H   UNL     1       0.420   2.481 -11.519  0.00  0.00    +0.159 HD
ATOM      9  H   UNL     1       0.353   4.013 -12.299  0.00  0.00    +0.159 HD
ENDROOT
BRANCH   1  10
ATOM     10  C   UNL     1      -1.091   0.434 -11.866  0.00  0.00    +0.151 C 
BRANCH  10  11
ATOM     11  C   UNL     1      -0.882  -0.822 -12.666  0.00  0.00    -0.028 A 
ATOM     12  C   UNL     1       0.293  -1.573 -12.520  0.00  0.00    +0.005 A 
ATOM     13  C   UNL     1      -1.859  -1.270 -13.569  0.00  0.00    +0.005 A 
ATOM     14  C   UNL     1       0.474  -2.756 -13.241  0.00  0.00    +0.000 A 
ATOM     15  C   UNL     1      -1.674  -2.451 -14.288  0.00  0.00    +0.000 A 
ATOM     16  C   UNL     1      -0.509  -3.195 -14.121  0.00  0.00    +0.000 A 
ENDBRANCH  10  11
ENDBRANCH   1  10
TORSDOF 2
ENDMDL
MODEL 4
REMARK VINA RESULT:    -5.232      2.389      3.374
REMARK INTER + INTRA:          -6.026
REMARK INTER:                  -5.931
REMARK INTRA:                  -0.095
REMARK UNBOUND:                -0.182
REMARK  Name = 1550473
REMARK  2 active torsions:
REMARK  status: ('A' for Active; 'I' for Inactive)
REMARK    1  A    between atoms: N_1  and  C_4
REMARK    2  A    between atoms: C_4  and  C_5
REMARK                            x       y       z     vdW  Elec       q    Type
REMARK                         _______ _______ _______ _____ _____    ______ ____
ROOT
ATOM      1  N   UNL     1      -1.634  -8.521   4.648  0.00  0.00    -0.354 N 
ATOM      2  N   UNL     1      -0.079  -6.837   4.974  0.00  0.00    -0.372 N 
ATOM      3  N   UNL     1       0.205  -8.283   3.216  0.00  0.00    -0.372 N 
ATOM      4  C   UNL     1      -0.512  -7.893   4.275  0.00  0.00    +0.166 C 
ATOM      5  H   UNL     1      -2.116  -8.195   5.478  0.00  0.00    +0.163 HD
ATOM      6  H   UNL     1       0.763  -6.340   4.715  0.00  0.00    +0.159 HD
ATOM      7  H   UNL     1      -0.587  -6.484   5.776  0.00  0.00    +0.159 HD
ATOM      8  H   UNL     1      -0.064  -9.076   2.650  0.00  0.00    +0.159 HD
ATOM      9  H   UNL     1       1.057  -7.806   2.947  0.00  0.00    +0.159 HD
ENDROOT
BRANCH   1  10
ATOM     10  C   UNL     1      -2.220  -9.648   3.923  0.00  0.00    +0.151 C 
BRANCH  10  11
ATOM     11  C   UNL     1      -3.103 -10.428   4.858  0.00  0.00    -0.028 A 
ATOM     12  C   UNL     1      -2.638 -11.608   5.457  0.00  0.00    +0.005 A 
ATOM     13  C   UNL     1      -4.403  -9.990   5.153  0.00  0.00    +0.005 A 
ATOM     14  C   UNL     1      -3.446 -12.317   6.349  0.00  0.00    +0.000 A 
ATOM     15  C   UNL     1      -5.207 -10.701   6.043  0.00  0.00    +0.000 A 
ATOM     16  C   UNL     1      -4.727 -11.863   6.643  0.00  0.00    +0.000 A 
ENDBRANCH  10  11
ENDBRANCH   1  10
TORSDOF 2
ENDMDL
MODEL 5
REMARK VINA RESULT:    -4.947      1.633      1.968
REMARK INTER + INTRA:          -5.707
REMARK INTER:                  -5.538
REMARK INTRA:                  -0.169
REMARK UNBOUND:                -0.182
REMARK  Name = 1550473
REMARK  2 active torsions:
REMARK  status: ('A' for Active; 'I' for Inactive)
REMARK    1  A    between atoms: N_1  and  C_4
REMARK    2  A    between atoms: C_4  and  C_5
REMARK                            x       y       z     vdW  Elec       q    Type
REMARK                         _______ _______ _______ _____ _____    ______ ____
ROOT
ATOM      1  N   UNL     1      -1.138  -8.453   8.284  0.00  0.00    -0.354 N 
ATOM      2  N   UNL     1       0.708  -8.298   9.674  0.00  0.00    -0.372 N 
ATOM      3  N   UNL     1       0.469  -6.775   7.975  0.00  0.00    -0.372 N 
ATOM      4  C   UNL     1       0.002  -7.841   8.633  0.00  0.00    +0.166 C 
ATOM      5  H   UNL     1      -1.422  -9.275   8.805  0.00  0.00    +0.163 HD
ATOM      6  H   UNL     1       1.570  -7.855   9.964  0.00  0.00    +0.159 HD
ATOM      7  H   UNL     1       0.398  -9.091  10.222  0.00  0.00    +0.159 HD
ATOM      8  H   UNL     1      -0.014  -6.385   7.176  0.00  0.00    +0.159 HD
ATOM      9  H   UNL     1       1.335  -6.325   8.242  0.00  0.00    +0.159 HD
ENDROOT
BRANCH   1  10
ATOM     10  C   UNL     1      -2.009  -8.003   7.200  0.00  0.00    +0.151 C 
BRANCH  10  11
ATOM     11  C   UNL     1      -1.651  -8.744   5.942  0.00  0.00    -0.028 A 
ATOM     12  C   UNL     1      -1.306  -8.045   4.777  0.00  0.00    +0.005 A 
ATOM     13  C   UNL     1      -1.650 -10.147   5.910  0.00  0.00    +0.005 A 
ATOM     14  C   UNL     1      -0.944  -8.733   3.616  0.00  0.00    +0.000 A 
ATOM     15  C   UNL     1      -1.289 -10.831   4.749  0.00  0.00    +0.000 A 
ATOM     16  C   UNL     1      -0.934 -10.124   3.603  0.00  0.00    +0.000 A 
ENDBRANCH  10  11
ENDBRANCH   1  10
TORSDOF 2
ENDMDL
MODEL 6
REMARK VINA RESULT:    -4.857     19.881     20.994
REMARK INTER + INTRA:          -5.606
REMARK INTER:                  -5.491
REMARK INTRA:                  -0.115
REMARK UNBOUND:                -0.182
REMARK  Name = 1550473
REMARK  2 active torsions:
REMARK  status: ('A' for Active; 'I' for Inactive)
REMARK    1  A    between atoms: N_1  and  C_4
REMARK    2  A    between atoms: C_4  and  C_5
REMARK                            x       y       z     vdW  Elec       q    Type
REMARK                         _______ _______ _______ _____ _____    ______ ____
ROOT
ATOM      1  N   UNL     1      -2.237   1.888 -14.150  0.00  0.00    -0.354 N 
ATOM      2  N   UNL     1      -3.012   3.555 -15.558  0.00  0.00    -0.372 N 
ATOM      3  N   UNL     1      -2.676   4.043 -13.341  0.00  0.00    -0.372 N 
ATOM      4  C   UNL     1      -2.637   3.153 -14.338  0.00  0.00    +0.166 C 
ATOM      5  H   UNL     1      -2.259   1.254 -14.940  0.00  0.00    +0.163 HD
ATOM      6  H   UNL     1      -3.315   4.505 -15.731  0.00  0.00    +0.159 HD
ATOM      7  H   UNL     1      -2.989   2.932 -16.356  0.00  0.00    +0.159 HD
ATOM      8  H   UNL     1      -2.411   3.800 -12.396  0.00  0.00    +0.159 HD
ATOM      9  H   UNL     1      -2.988   4.994 -13.492  0.00  0.00    +0.159 HD
ENDROOT
BRANCH   1  10
ATOM     10  C   UNL     1      -1.758   1.363 -12.873  0.00  0.00    +0.151 C 
BRANCH  10  11
ATOM     11  C   UNL     1      -1.427  -0.095 -13.034  0.00  0.00    -0.028 A 
ATOM     12  C   UNL     1      -2.186  -0.907 -13.889  0.00  0.00    +0.005 A 
ATOM     13  C   UNL     1      -0.352  -0.669 -12.338  0.00  0.00    +0.005 A 
ATOM     14  C   UNL     1      -1.860  -2.255 -14.062  0.00  0.00    +0.000 A 
ATOM     15  C   UNL     1      -0.031  -2.015 -12.513  0.00  0.00    +0.000 A 
ATOM     16  C   UNL     1      -0.783  -2.807 -13.377  0.00  0.00    +0.000 A 
ENDBRANCH  10  11
ENDBRANCH   1  10
TORSDOF 2
ENDMDL
MODEL 7
REMARK VINA RESULT:    -4.792     19.608     20.858
REMARK INTER + INTRA:          -5.534
REMARK INTER:                  -5.358
REMARK INTRA:                  -0.175
REMARK UNBOUND:                -0.182
REMARK  Name = 1550473
REMARK  2 active torsions:
REMARK  status: ('A' for Active; 'I' for Inactive)
REMARK    1  A    between atoms: N_1  and  C_4
REMARK    2  A    between atoms: C_4  and  C_5
REMARK                            x       y       z     vdW  Elec       q    Type
REMARK                         _______ _______ _______ _____ _____    ______ ____
ROOT
ATOM      1  N   UNL     1      -0.897  -2.260 -14.675  0.00  0.00    -0.354 N 
ATOM      2  N   UNL     1       1.032  -3.030 -15.700  0.00  0.00    -0.372 N 
ATOM      3  N   UNL     1       1.004  -2.804 -13.417  0.00  0.00    -0.372 N 
ATOM      4  C   UNL     1       0.368  -2.693 -14.588  0.00  0.00    +0.166 C 
ATOM      5  H   UNL     1      -1.313  -2.170 -15.595  0.00  0.00    +0.163 HD
ATOM      6  H   UNL     1       1.986  -3.363 -15.665  0.00  0.00    +0.159 HD
ATOM      7  H   UNL     1       0.599  -2.982 -16.614  0.00  0.00    +0.159 HD
ATOM      8  H   UNL     1       0.560  -2.560 -12.541  0.00  0.00    +0.159 HD
ATOM      9  H   UNL     1       1.962  -3.124 -13.363  0.00  0.00    +0.159 HD
ENDROOT
BRANCH   1  10
ATOM     10  C   UNL     1      -1.726  -1.919 -13.520  0.00  0.00    +0.151 C 
BRANCH  10  11
ATOM     11  C   UNL     1      -1.667  -0.433 -13.295  0.00  0.00    -0.028 A 
ATOM     12  C   UNL     1      -2.244   0.450 -14.219  0.00  0.00    +0.005 A 
ATOM     13  C   UNL     1      -1.041   0.097 -12.156  0.00  0.00    +0.005 A 
ATOM     14  C   UNL     1      -2.215   1.829 -13.995  0.00  0.00    +0.000 A 
ATOM     15  C   UNL     1      -1.014   1.474 -11.937  0.00  0.00    +0.000 A 
ATOM     16  C   UNL     1      -1.603   2.340 -12.855  0.00  0.00    +0.000 A 
ENDBRANCH  10  11
ENDBRANCH   1  10
TORSDOF 2
ENDMDL
MODEL 8
REMARK VINA RESULT:    -4.763      3.284      4.547
REMARK INTER + INTRA:          -5.502
REMARK INTER:                  -5.391
REMARK INTRA:                  -0.110
REMARK UNBOUND:                -0.182
REMARK  Name = 1550473
REMARK  2 active torsions:
REMARK  status: ('A' for Active; 'I' for Inactive)
REMARK    1  A    between atoms: N_1  and  C_4
REMARK    2  A    between atoms: C_4  and  C_5
REMARK                            x       y       z     vdW  Elec       q    Type
REMARK                         _______ _______ _______ _____ _____    ______ ____
ROOT
ATOM      1  N   UNL     1      -1.051 -10.953   4.286  0.00  0.00    -0.354 N 
ATOM      2  N   UNL     1      -0.195 -10.957   2.134  0.00  0.00    -0.372 N 
ATOM      3  N   UNL     1      -0.282  -8.976   3.289  0.00  0.00    -0.372 N 
ATOM      4  C   UNL     1      -0.515 -10.292   3.251  0.00  0.00    +0.166 C 
ATOM      5  H   UNL     1      -1.231 -11.945   4.183  0.00  0.00    +0.163 HD
ATOM      6  H   UNL     1       0.214 -10.486   1.338  0.00  0.00    +0.159 HD
ATOM      7  H   UNL     1      -0.333 -11.957   2.051  0.00  0.00    +0.159 HD
ATOM      8  H   UNL     1      -0.506  -8.416   4.101  0.00  0.00    +0.159 HD
ATOM      9  H   UNL     1       0.116  -8.485   2.499  0.00  0.00    +0.159 HD
ENDROOT
BRANCH   1  10
ATOM     10  C   UNL     1      -1.385 -10.333   5.567  0.00  0.00    +0.151 C 
BRANCH  10  11
ATOM     11  C   UNL     1      -2.715 -10.857   6.035  0.00  0.00    -0.028 A 
ATOM     12  C   UNL     1      -3.862 -10.052   5.967  0.00  0.00    +0.005 A 
ATOM     13  C   UNL     1      -2.836 -12.160   6.542  0.00  0.00    +0.005 A 
ATOM     14  C   UNL     1      -5.103 -10.549   6.373  0.00  0.00    +0.000 A 
ATOM     15  C   UNL     1      -4.076 -12.652   6.947  0.00  0.00    +0.000 A 
ATOM     16  C   UNL     1      -5.210 -11.847   6.860  0.00  0.00    +0.000 A 
ENDBRANCH  10  11
ENDBRANCH   1  10
TORSDOF 2
ENDMDL
MODEL 9
REMARK VINA RESULT:    -4.698      3.882      5.284
REMARK INTER + INTRA:          -5.429
REMARK INTER:                  -5.254
REMARK INTRA:                  -0.174
REMARK UNBOUND:                -0.182
REMARK  Name = 1550473
REMARK  2 active torsions:
REMARK  status: ('A' for Active; 'I' for Inactive)
REMARK    1  A    between atoms: N_1  and  C_4
REMARK    2  A    between atoms: C_4  and  C_5
REMARK                            x       y       z     vdW  Elec       q    Type
REMARK                         _______ _______ _______ _____ _____    ______ ____
ROOT
ATOM      1  N   UNL     1      -3.504 -11.033   7.983  0.00  0.00    -0.354 N 
ATOM      2  N   UNL     1      -2.472 -13.064   8.404  0.00  0.00    -0.372 N 
ATOM      3  N   UNL     1      -3.337 -12.671   6.315  0.00  0.00    -0.372 N 
ATOM      4  C   UNL     1      -3.112 -12.243   7.562  0.00  0.00    +0.166 C 
ATOM      5  H   UNL     1      -3.330 -10.780   8.949  0.00  0.00    +0.163 HD
ATOM      6  H   UNL     1      -2.162 -13.981   8.114  0.00  0.00    +0.159 HD
ATOM      7  H   UNL     1      -2.259 -12.790   9.356  0.00  0.00    +0.159 HD
ATOM      8  H   UNL     1      -3.820 -12.102   5.633  0.00  0.00    +0.159 HD
ATOM      9  H   UNL     1      -3.044 -13.591   6.009  0.00  0.00    +0.159 HD
ENDROOT
BRANCH   1  10
ATOM     10  C   UNL     1      -4.160 -10.044   7.130  0.00  0.00    +0.151 C 
BRANCH  10  11
ATOM     11  C   UNL     1      -3.158  -8.994   6.736  0.00  0.00    -0.028 A 
ATOM     12  C   UNL     1      -2.453  -8.279   7.715  0.00  0.00    +0.005 A 
ATOM     13  C   UNL     1      -2.904  -8.714   5.384  0.00  0.00    +0.005 A 
ATOM     14  C   UNL     1      -1.500  -7.325   7.349  0.00  0.00    +0.000 A 
ATOM     15  C   UNL     1      -1.953  -7.760   5.023  0.00  0.00    +0.000 A 
ATOM     16  C   UNL     1      -1.249  -7.067   6.006  0.00  0.00    +0.000 A 
ENDBRANCH  10  11
ENDBRANCH   1  10
TORSDOF 2
ENDMDL
