MODEL 1
REMARK VINA RESULT:    -5.378      0.000      0.000
REMARK INTER + INTRA:          -6.105
REMARK INTER:                  -6.007
REMARK INTRA:                  -0.098
REMARK UNBOUND:                -0.098
REMARK  Name = 1550473
REMARK  2 active torsions:
REMARK  status: ('A' for Active; 'I' for Inactive)
REMARK    1  A    between atoms: N_1  and  C_4
REMARK    2  A    between atoms: C_4  and  C_5
REMARK                            x       y       z     vdW  Elec       q    Type
REMARK                         _______ _______ _______ _____ _____    ______ ____
ROOT
ATOM      1  N   UNL     1       2.735  15.164   5.117  0.00  0.00    -0.354 N 
ATOM      2  N   UNL     1       2.437  12.892   5.454  0.00  0.00    -0.372 N 
ATOM      3  N   UNL     1       1.314  13.915   3.734  0.00  0.00    -0.372 N 
ATOM      4  C   UNL     1       2.162  14.005   4.764  0.00  0.00    +0.166 C 
ATOM      5  H   UNL     1       3.345  15.172   5.926  0.00  0.00    +0.163 HD
ATOM      6  H   UNL     1       2.022  12.002   5.208  0.00  0.00    +0.159 HD
ATOM      7  H   UNL     1       3.083  12.894   6.234  0.00  0.00    +0.159 HD
ATOM      8  H   UNL     1       1.061  14.720   3.177  0.00  0.00    +0.159 HD
ATOM      9  H   UNL     1       0.880  13.036   3.480  0.00  0.00    +0.159 HD
ENDROOT
BRANCH   1  10
ATOM     10  C   UNL     1       2.544  16.422   4.399  0.00  0.00    +0.151 C 
BRANCH  10  11
ATOM     11  C   UNL     1       3.825  16.788   3.700  0.00  0.00    -0.028 A 
ATOM     12  C   UNL     1       3.952  18.023   3.047  0.00  0.00    +0.005 A 
ATOM     13  C   UNL     1       4.917  15.906   3.693  0.00  0.00    +0.005 A 
ATOM     14  C   UNL     1       5.152  18.375   2.423  0.00  0.00    +0.000 A 
ATOM     15  C   UNL     1       6.112  16.262   3.068  0.00  0.00    +0.000 A 
ATOM     16  C   UNL     1       6.230  17.497   2.436  0.00  0.00    +0.000 A 
ENDBRANCH  10  11
ENDBRANCH   1  10
TORSDOF 2
ENDMDL
MODEL 2
REMARK VINA RESULT:    -5.372      1.090      1.891
REMARK INTER + INTRA:          -6.097
REMARK INTER:                  -5.932
REMARK INTRA:                  -0.166
REMARK UNBOUND:                -0.098
REMARK  Name = 1550473
REMARK  2 active torsions:
REMARK  status: ('A' for Active; 'I' for Inactive)
REMARK    1  A    between atoms: N_1  and  C_4
REMARK    2  A    between atoms: C_4  and  C_5
REMARK                            x       y       z     vdW  Elec       q    Type
REMARK                         _______ _______ _______ _____ _____    ______ ____
ROOT
ATOM      1  N   UNL     1       3.347  14.374   4.127  0.00  0.00    -0.354 N 
ATOM      2  N   UNL     1       1.346  13.490   3.366  0.00  0.00    -0.372 N 
ATOM      3  N   UNL     1       1.293  15.224   4.868  0.00  0.00    -0.372 N 
ATOM      4  C   UNL     1       2.008  14.371   4.128  0.00  0.00    +0.166 C 
ATOM      5  H   UNL     1       3.830  13.681   3.567  0.00  0.00    +0.163 HD
ATOM      6  H   UNL     1       0.336  13.466   3.343  0.00  0.00    +0.159 HD
ATOM      7  H   UNL     1       1.832  12.829   2.772  0.00  0.00    +0.159 HD
ATOM      8  H   UNL     1       1.732  15.910   5.469  0.00  0.00    +0.159 HD
ATOM      9  H   UNL     1       0.281  15.208   4.867  0.00  0.00    +0.159 HD
ENDROOT
BRANCH   1  10
ATOM     10  C   UNL     1       4.162  15.327   4.879  0.00  0.00    +0.151 C 
BRANCH  10  11
ATOM     11  C   UNL     1       4.672  16.385   3.941  0.00  0.00    -0.028 A 
ATOM     12  C   UNL     1       5.939  16.265   3.352  0.00  0.00    +0.005 A 
ATOM     13  C   UNL     1       3.890  17.509   3.631  0.00  0.00    +0.005 A 
ATOM     14  C   UNL     1       6.401  17.233   2.457  0.00  0.00    +0.000 A 
ATOM     15  C   UNL     1       4.354  18.473   2.737  0.00  0.00    +0.000 A 
ATOM     16  C   UNL     1       5.609  18.334   2.149  0.00  0.00    +0.000 A 
ENDBRANCH  10  11
ENDBRANCH   1  10
TORSDOF 2
ENDMDL
MODEL 3
REMARK VINA RESULT:    -5.194     22.001     23.005
REMARK INTER + INTRA:          -5.899
REMARK INTER:                  -5.723
REMARK INTRA:                  -0.177
REMARK UNBOUND:                -0.098
REMARK  Name = 1550473
REMARK  2 active torsions:
REMARK  status: ('A' for Active; 'I' for Inactive)
REMARK    1  A    between atoms: N_1  and  C_4
REMARK    2  A    between atoms: C_4  and  C_5
REMARK                            x       y       z     vdW  Elec       q    Type
REMARK                         _______ _______ _______ _____ _____    ______ ____
ROOT
ATOM      1  N   UNL     1      -1.396  -1.313 -12.103  0.00  0.00    -0.354 N 
ATOM      2  N   UNL     1      -2.718  -1.586 -10.221  0.00  0.00    -0.372 N 
ATOM      3  N   UNL     1      -2.739   0.435 -11.307  0.00  0.00    -0.372 N 
ATOM      4  C   UNL     1      -2.276  -0.817 -11.223  0.00  0.00    +0.166 C 
ATOM      5  H   UNL     1      -1.061  -2.259 -11.967  0.00  0.00    +0.163 HD
ATOM      6  H   UNL     1      -3.384  -1.241  -9.543  0.00  0.00    +0.159 HD
ATOM      7  H   UNL     1      -2.416  -2.547 -10.114  0.00  0.00    +0.159 HD
ATOM      8  H   UNL     1      -2.441   1.068 -12.036  0.00  0.00    +0.159 HD
ATOM      9  H   UNL     1      -3.398   0.803 -10.631  0.00  0.00    +0.159 HD
ENDROOT
BRANCH   1  10
ATOM     10  C   UNL     1      -0.894  -0.575 -13.261  0.00  0.00    +0.151 C 
BRANCH  10  11
ATOM     11  C   UNL     1       0.454   0.001 -12.929  0.00  0.00    -0.028 A 
ATOM     12  C   UNL     1       1.599  -0.809 -12.948  0.00  0.00    +0.005 A 
ATOM     13  C   UNL     1       0.595   1.358 -12.601  0.00  0.00    +0.005 A 
ATOM     14  C   UNL     1       2.856  -0.267 -12.670  0.00  0.00    +0.000 A 
ATOM     15  C   UNL     1       1.852   1.895 -12.323  0.00  0.00    +0.000 A 
ATOM     16  C   UNL     1       2.982   1.083 -12.359  0.00  0.00    +0.000 A 
ENDBRANCH  10  11
ENDBRANCH   1  10
TORSDOF 2
ENDMDL
MODEL 4
REMARK VINA RESULT:    -5.029     22.674     23.680
REMARK INTER + INTRA:          -5.715
REMARK INTER:                  -5.561
REMARK INTRA:                  -0.154
REMARK UNBOUND:                -0.098
REMARK  Name = 1550473
REMARK  2 active torsions:
REMARK  status: ('A' for Active; 'I' for Inactive)
REMARK    1  A    between atoms: N_1  and  C_4
REMARK    2  A    between atoms: C_4  and  C_5
REMARK                            x       y       z     vdW  Elec       q    Type
REMARK                         _______ _______ _______ _____ _____    ______ ____
ROOT
ATOM      1  N   UNL     1      -2.075  -1.089 -12.925  0.00  0.00    -0.354 N 
ATOM      2  N   UNL     1      -2.963  -2.086 -14.818  0.00  0.00    -0.372 N 
ATOM      3  N   UNL     1      -3.052   0.198 -14.623  0.00  0.00    -0.372 N 
ATOM      4  C   UNL     1      -2.692  -0.983 -14.110  0.00  0.00    +0.166 C 
ATOM      5  H   UNL     1      -1.855  -2.015 -12.578  0.00  0.00    +0.163 HD
ATOM      6  H   UNL     1      -3.424  -2.037 -15.716  0.00  0.00    +0.159 HD
ATOM      7  H   UNL     1      -2.701  -3.008 -14.490  0.00  0.00    +0.159 HD
ATOM      8  H   UNL     1      -2.882   1.068 -14.136  0.00  0.00    +0.159 HD
ATOM      9  H   UNL     1      -3.525   0.267 -15.515  0.00  0.00    +0.159 HD
ENDROOT
BRANCH   1  10
ATOM     10  C   UNL     1      -1.686   0.054 -12.101  0.00  0.00    +0.151 C 
BRANCH  10  11
ATOM     11  C   UNL     1      -0.221   0.328 -12.301  0.00  0.00    -0.028 A 
ATOM     12  C   UNL     1       0.285   1.629 -12.163  0.00  0.00    +0.005 A 
ATOM     13  C   UNL     1       0.667  -0.710 -12.622  0.00  0.00    +0.005 A 
ATOM     14  C   UNL     1       1.651   1.879 -12.319  0.00  0.00    +0.000 A 
ATOM     15  C   UNL     1       2.029  -0.456 -12.778  0.00  0.00    +0.000 A 
ATOM     16  C   UNL     1       2.521   0.838 -12.623  0.00  0.00    +0.000 A 
ENDBRANCH  10  11
ENDBRANCH   1  10
TORSDOF 2
ENDMDL
MODEL 5
REMARK VINA RESULT:    -5.028      3.073      3.869
REMARK INTER + INTRA:          -5.714
REMARK INTER:                  -5.596
REMARK INTRA:                  -0.118
REMARK UNBOUND:                -0.098
REMARK  Name = 1550473
REMARK  2 active torsions:
REMARK  status: ('A' for Active; 'I' for Inactive)
REMARK    1  A    between atoms: N_1  and  C_4
REMARK    2  A    between atoms: C_4  and  C_5
REMARK                            x       y       z     vdW  Elec       q    Type
REMARK                         _______ _______ _______ _____ _____    ______ ____
ROOT
ATOM      1  N   UNL     1       6.823  14.104   3.368  0.00  0.00    -0.354 N 
ATOM      2  N   UNL     1       8.288  12.455   2.663  0.00  0.00    -0.372 N 
ATOM      3  N   UNL     1       7.076  12.115   4.581  0.00  0.00    -0.372 N 
ATOM      4  C   UNL     1       7.385  12.901   3.544  0.00  0.00    +0.166 C 
ATOM      5  H   UNL     1       7.122  14.664   2.578  0.00  0.00    +0.163 HD
ATOM      6  H   UNL     1       8.727  11.550   2.768  0.00  0.00    +0.159 HD
ATOM      7  H   UNL     1       8.551  12.997   1.849  0.00  0.00    +0.159 HD
ATOM      8  H   UNL     1       6.407  12.396   5.285  0.00  0.00    +0.159 HD
ATOM      9  H   UNL     1       7.513  11.211   4.710  0.00  0.00    +0.159 HD
ENDROOT
BRANCH   1  10
ATOM     10  C   UNL     1       5.790  14.660   4.240  0.00  0.00    +0.151 C 
BRANCH  10  11
ATOM     11  C   UNL     1       5.317  15.969   3.670  0.00  0.00    -0.028 A 
ATOM     12  C   UNL     1       4.045  16.466   3.988  0.00  0.00    +0.005 A 
ATOM     13  C   UNL     1       6.139  16.719   2.816  0.00  0.00    +0.005 A 
ATOM     14  C   UNL     1       3.617  17.696   3.483  0.00  0.00    +0.000 A 
ATOM     15  C   UNL     1       5.708  17.947   2.313  0.00  0.00    +0.000 A 
ATOM     16  C   UNL     1       4.448  18.436   2.648  0.00  0.00    +0.000 A 
ENDBRANCH  10  11
ENDBRANCH   1  10
TORSDOF 2
ENDMDL
MODEL 6
REMARK VINA RESULT:    -4.978      9.935     10.799
REMARK INTER + INTRA:          -5.658
REMARK INTER:                  -5.492
REMARK INTRA:                  -0.166
REMARK UNBOUND:                -0.098
REMARK  Name = 1550473
REMARK  2 active torsions:
REMARK  status: ('A' for Active; 'I' for Inactive)
REMARK    1  A    between atoms: N_1  and  C_4
REMARK    2  A    between atoms: C_4  and  C_5
REMARK                            x       y       z     vdW  Elec       q    Type
REMARK                         _______ _______ _______ _____ _____    ______ ____
ROOT
ATOM      1  N   UNL     1       6.812  14.092  -6.724  0.00  0.00    -0.354 N 
ATOM      2  N   UNL     1       8.914  15.066  -6.707  0.00  0.00    -0.372 N 
ATOM      3  N   UNL     1       8.750  12.780  -6.593  0.00  0.00    -0.372 N 
ATOM      4  C   UNL     1       8.146  13.970  -6.674  0.00  0.00    +0.166 C 
ATOM      5  H   UNL     1       6.415  15.024  -6.754  0.00  0.00    +0.163 HD
ATOM      6  H   UNL     1       9.922  15.006  -6.675  0.00  0.00    +0.159 HD
ATOM      7  H   UNL     1       8.515  15.994  -6.784  0.00  0.00    +0.159 HD
ATOM      8  H   UNL     1       8.227  11.916  -6.558  0.00  0.00    +0.159 HD
ATOM      9  H   UNL     1       9.758  12.700  -6.548  0.00  0.00    +0.159 HD
ENDROOT
BRANCH   1  10
ATOM     10  C   UNL     1       5.889  12.959  -6.748  0.00  0.00    +0.151 C 
BRANCH  10  11
ATOM     11  C   UNL     1       5.259  12.809  -5.390  0.00  0.00    -0.028 A 
ATOM     12  C   UNL     1       4.801  13.935  -4.690  0.00  0.00    +0.005 A 
ATOM     13  C   UNL     1       5.113  11.544  -4.801  0.00  0.00    +0.005 A 
ATOM     14  C   UNL     1       4.189  13.793  -3.442  0.00  0.00    +0.000 A 
ATOM     15  C   UNL     1       4.503  11.407  -3.555  0.00  0.00    +0.000 A 
ATOM     16  C   UNL     1       4.039  12.531  -2.877  0.00  0.00    +0.000 A 
ENDBRANCH  10  11
ENDBRANCH   1  10
TORSDOF 2
ENDMDL
MODEL 7
REMARK VINA RESULT:    -4.939     10.043     11.058
REMARK INTER + INTRA:          -5.614
REMARK INTER:                  -5.478
REMARK INTRA:                  -0.136
REMARK UNBOUND:                -0.098
REMARK  Name = 1550473
REMARK  2 active torsions:
REMARK  status: ('A' for Active; 'I' for Inactive)
REMARK    1  A    between atoms: N_1  and  C_4
REMARK    2  A    between atoms: C_4  and  C_5
REMARK                            x       y       z     vdW  Elec       q    Type
REMARK                         _______ _______ _______ _____ _____    ______ ____
ROOT
ATOM      1  N   UNL     1       6.713  14.072  -6.752  0.00  0.00    -0.354 N 
ATOM      2  N   UNL     1       5.937  15.639  -8.270  0.00  0.00    -0.372 N 
ATOM      3  N   UNL     1       5.530  13.416  -8.665  0.00  0.00    -0.372 N 
ATOM      4  C   UNL     1       6.064  14.363  -7.887  0.00  0.00    +0.166 C 
ATOM      5  H   UNL     1       7.121  14.833  -6.222  0.00  0.00    +0.163 HD
ATOM      6  H   UNL     1       5.450  15.890  -9.120  0.00  0.00    +0.159 HD
ATOM      7  H   UNL     1       6.306  16.401  -7.715  0.00  0.00    +0.159 HD
ATOM      8  H   UNL     1       5.597  12.433  -8.435  0.00  0.00    +0.159 HD
ATOM      9  H   UNL     1       5.049  13.646  -9.526  0.00  0.00    +0.159 HD
ENDROOT
BRANCH   1  10
ATOM     10  C   UNL     1       6.861  12.719  -6.218  0.00  0.00    +0.151 C 
BRANCH  10  11
ATOM     11  C   UNL     1       5.869  12.519  -5.105  0.00  0.00    -0.028 A 
ATOM     12  C   UNL     1       5.480  11.227  -4.722  0.00  0.00    +0.005 A 
ATOM     13  C   UNL     1       5.320  13.617  -4.426  0.00  0.00    +0.005 A 
ATOM     14  C   UNL     1       4.582  11.040  -3.668  0.00  0.00    +0.000 A 
ATOM     15  C   UNL     1       4.423  13.426  -3.375  0.00  0.00    +0.000 A 
ATOM     16  C   UNL     1       4.056  12.137  -2.995  0.00  0.00    +0.000 A 
ENDBRANCH  10  11
ENDBRANCH   1  10
TORSDOF 2
ENDMDL
MODEL 8
REMARK VINA RESULT:    -4.923     29.553     30.306
REMARK INTER + INTRA:          -5.596
REMARK INTER:                  -5.453
REMARK INTRA:                  -0.143
REMARK UNBOUND:                -0.098
REMARK  Name = 1550473
REMARK  2 active torsions:
REMARK  status: ('A' for Active; 'I' for Inactive)
REMARK    1  A    between atoms: N_1  and  C_4
REMARK    2  A    between atoms: C_4  and  C_5
REMARK                            x       y       z     vdW  Elec       q    Type
REMARK                         _______ _______ _______ _____ _____    ______ ____
ROOT
ATOM      1  N   UNL     1       4.849 -10.250 -12.572  0.00  0.00    -0.354 N 
ATOM      2  N   UNL     1       7.096 -10.210 -12.014  0.00  0.00    -0.372 N 
ATOM      3  N   UNL     1       6.308  -8.699 -13.551  0.00  0.00    -0.372 N 
ATOM      4  C   UNL     1       6.070  -9.718 -12.718  0.00  0.00    +0.166 C 
ATOM      5  H   UNL     1       4.740 -11.040 -11.947  0.00  0.00    +0.163 HD
ATOM      6  H   UNL     1       8.028  -9.827 -12.101  0.00  0.00    +0.159 HD
ATOM      7  H   UNL     1       6.975 -10.971 -11.356  0.00  0.00    +0.159 HD
ATOM      8  H   UNL     1       5.577  -8.286 -14.115  0.00  0.00    +0.159 HD
ATOM      9  H   UNL     1       7.236  -8.310 -13.660  0.00  0.00    +0.159 HD
ENDROOT
BRANCH   1  10
ATOM     10  C   UNL     1       3.654  -9.752 -13.251  0.00  0.00    +0.151 C 
BRANCH  10  11
ATOM     11  C   UNL     1       2.559  -9.557 -12.239  0.00  0.00    -0.028 A 
ATOM     12  C   UNL     1       2.793  -9.811 -10.879  0.00  0.00    +0.005 A 
ATOM     13  C   UNL     1       1.287  -9.114 -12.632  0.00  0.00    +0.005 A 
ATOM     14  C   UNL     1       1.785  -9.601  -9.935  0.00  0.00    +0.000 A 
ATOM     15  C   UNL     1       0.283  -8.907 -11.687  0.00  0.00    +0.000 A 
ATOM     16  C   UNL     1       0.533  -9.148 -10.338  0.00  0.00    +0.000 A 
ENDBRANCH  10  11
ENDBRANCH   1  10
TORSDOF 2
ENDMDL
MODEL 9
REMARK VINA RESULT:    -4.855     10.774     11.644
REMARK INTER + INTRA:          -5.520
REMARK INTER:                  -5.410
REMARK INTRA:                  -0.110
REMARK UNBOUND:                -0.098
REMARK  Name = 1550473
REMARK  2 active torsions:
REMARK  status: ('A' for Active; 'I' for Inactive)
REMARK    1  A    between atoms: N_1  and  C_4
REMARK    2  A    between atoms: C_4  and  C_5
REMARK                            x       y       z     vdW  Elec       q    Type
REMARK                         _______ _______ _______ _____ _____    ______ ____
ROOT
ATOM      1  N   UNL     1       8.347   9.790  -5.868  0.00  0.00    -0.354 N 
ATOM      2  N   UNL     1      10.122   8.323  -5.626  0.00  0.00    -0.372 N 
ATOM      3  N   UNL     1      10.558  10.515  -6.143  0.00  0.00    -0.372 N 
ATOM      4  C   UNL     1       9.666   9.555  -5.882  0.00  0.00    +0.166 C 
ATOM      5  H   UNL     1       7.721   9.013  -5.693  0.00  0.00    +0.163 HD
ATOM      6  H   UNL     1      11.112   8.115  -5.626  0.00  0.00    +0.159 HD
ATOM      7  H   UNL     1       9.496   7.557  -5.406  0.00  0.00    +0.159 HD
ATOM      8  H   UNL     1      10.278  11.465  -6.349  0.00  0.00    +0.159 HD
ATOM      9  H   UNL     1      11.553  10.325  -6.159  0.00  0.00    +0.159 HD
ENDROOT
BRANCH   1  10
ATOM     10  C   UNL     1       7.749  11.108  -6.080  0.00  0.00    +0.151 C 
BRANCH  10  11
ATOM     11  C   UNL     1       6.584  11.274  -5.145  0.00  0.00    -0.028 A 
ATOM     12  C   UNL     1       5.525  10.354  -5.155  0.00  0.00    +0.005 A 
ATOM     13  C   UNL     1       6.534  12.347  -4.241  0.00  0.00    +0.005 A 
ATOM     14  C   UNL     1       4.457  10.492  -4.266  0.00  0.00    +0.000 A 
ATOM     15  C   UNL     1       5.465  12.482  -3.356  0.00  0.00    +0.000 A 
ATOM     16  C   UNL     1       4.428  11.553  -3.367  0.00  0.00    +0.000 A 
ENDBRANCH  10  11
ENDBRANCH   1  10
TORSDOF 2
ENDMDL
