MODEL 1
REMARK VINA RESULT:    -5.775      0.000      0.000
REMARK INTER + INTRA:          -6.600
REMARK INTER:                  -6.450
REMARK INTRA:                  -0.150
REMARK UNBOUND:                -0.150
REMARK  Name = 1550473
REMARK  2 active torsions:
REMARK  status: ('A' for Active; 'I' for Inactive)
REMARK    1  A    between atoms: N_1  and  C_4
REMARK    2  A    between atoms: C_4  and  C_5
REMARK                            x       y       z     vdW  Elec       q    Type
REMARK                         _______ _______ _______ _____ _____    ______ ____
ROOT
ATOM      1  N   UNL     1      -0.422  -2.485  -2.567  0.00  0.00    -0.354 N 
ATOM      2  N   UNL     1      -1.777  -4.314  -2.990  0.00  0.00    -0.372 N 
ATOM      3  N   UNL     1      -2.557  -2.216  -3.495  0.00  0.00    -0.372 N 
ATOM      4  C   UNL     1      -1.578  -2.991  -3.015  0.00  0.00    +0.166 C 
ATOM      5  H   UNL     1       0.268  -3.123  -2.188  0.00  0.00    +0.163 HD
ATOM      6  H   UNL     1      -2.638  -4.726  -3.325  0.00  0.00    +0.159 HD
ATOM      7  H   UNL     1      -1.067  -4.954  -2.653  0.00  0.00    +0.159 HD
ATOM      8  H   UNL     1      -2.471  -1.209  -3.535  0.00  0.00    +0.159 HD
ATOM      9  H   UNL     1      -3.430  -2.608  -3.823  0.00  0.00    +0.159 HD
ENDROOT
BRANCH   1  10
ATOM     10  C   UNL     1      -0.084  -1.063  -2.600  0.00  0.00    +0.151 C 
BRANCH  10  11
ATOM     11  C   UNL     1       1.097  -0.859  -3.509  0.00  0.00    -0.028 A 
ATOM     12  C   UNL     1       1.308   0.377  -4.136  0.00  0.00    +0.005 A 
ATOM     13  C   UNL     1       2.012  -1.898  -3.742  0.00  0.00    +0.005 A 
ATOM     14  C   UNL     1       2.421   0.576  -4.956  0.00  0.00    +0.000 A 
ATOM     15  C   UNL     1       3.121  -1.695  -4.562  0.00  0.00    +0.000 A 
ATOM     16  C   UNL     1       3.327  -0.458  -5.167  0.00  0.00    +0.000 A 
ENDBRANCH  10  11
ENDBRANCH   1  10
TORSDOF 2
ENDMDL
MODEL 2
REMARK VINA RESULT:    -5.677      2.089      2.697
REMARK INTER + INTRA:          -6.491
REMARK INTER:                  -6.328
REMARK INTRA:                  -0.164
REMARK UNBOUND:                -0.150
REMARK  Name = 1550473
REMARK  2 active torsions:
REMARK  status: ('A' for Active; 'I' for Inactive)
REMARK    1  A    between atoms: N_1  and  C_4
REMARK    2  A    between atoms: C_4  and  C_5
REMARK                            x       y       z     vdW  Elec       q    Type
REMARK                         _______ _______ _______ _____ _____    ______ ____
ROOT
ATOM      1  N   UNL     1      -1.121  -1.894  -1.047  0.00  0.00    -0.354 N 
ATOM      2  N   UNL     1      -1.239  -0.892   1.038  0.00  0.00    -0.372 N 
ATOM      3  N   UNL     1      -1.390   0.424  -0.835  0.00  0.00    -0.372 N 
ATOM      4  C   UNL     1      -1.249  -0.792  -0.297  0.00  0.00    +0.166 C 
ATOM      5  H   UNL     1      -0.987  -2.783  -0.578  0.00  0.00    +0.163 HD
ATOM      6  H   UNL     1      -1.337  -0.078   1.630  0.00  0.00    +0.159 HD
ATOM      7  H   UNL     1      -1.151  -1.787   1.504  0.00  0.00    +0.159 HD
ATOM      8  H   UNL     1      -1.400   0.568  -1.836  0.00  0.00    +0.159 HD
ATOM      9  H   UNL     1      -1.479   1.252  -0.260  0.00  0.00    +0.159 HD
ENDROOT
BRANCH   1  10
ATOM     10  C   UNL     1      -1.173  -1.900  -2.508  0.00  0.00    +0.151 C 
BRANCH  10  11
ATOM     11  C   UNL     1       0.229  -1.961  -3.049  0.00  0.00    -0.028 A 
ATOM     12  C   UNL     1       0.937  -0.782  -3.326  0.00  0.00    +0.005 A 
ATOM     13  C   UNL     1       0.856  -3.194  -3.282  0.00  0.00    +0.005 A 
ATOM     14  C   UNL     1       2.250  -0.838  -3.800  0.00  0.00    +0.000 A 
ATOM     15  C   UNL     1       2.167  -3.246  -3.757  0.00  0.00    +0.000 A 
ATOM     16  C   UNL     1       2.864  -2.067  -4.014  0.00  0.00    +0.000 A 
ENDBRANCH  10  11
ENDBRANCH   1  10
TORSDOF 2
ENDMDL
MODEL 3
REMARK VINA RESULT:    -5.333     10.122     11.031
REMARK INTER + INTRA:          -6.106
REMARK INTER:                  -5.949
REMARK INTRA:                  -0.157
REMARK UNBOUND:                -0.150
REMARK  Name = 1550473
REMARK  2 active torsions:
REMARK  status: ('A' for Active; 'I' for Inactive)
REMARK    1  A    between atoms: N_1  and  C_4
REMARK    2  A    between atoms: C_4  and  C_5
REMARK                            x       y       z     vdW  Elec       q    Type
REMARK                         _______ _______ _______ _____ _____    ______ ____
ROOT
ATOM      1  N   UNL     1      -2.747   0.357 -11.379  0.00  0.00    -0.354 N 
ATOM      2  N   UNL     1      -0.940  -0.870 -10.610  0.00  0.00    -0.372 N 
ATOM      3  N   UNL     1      -0.913  -0.088 -12.767  0.00  0.00    -0.372 N 
ATOM      4  C   UNL     1      -1.544  -0.192 -11.593  0.00  0.00    +0.166 C 
ATOM      5  H   UNL     1      -3.187   0.217 -10.476  0.00  0.00    +0.163 HD
ATOM      6  H   UNL     1      -0.031  -1.292 -10.741  0.00  0.00    +0.159 HD
ATOM      7  H   UNL     1      -1.361  -0.969  -9.694  0.00  0.00    +0.159 HD
ATOM      8  H   UNL     1      -1.318   0.405 -13.551  0.00  0.00    +0.159 HD
ATOM      9  H   UNL     1      -0.008  -0.514 -12.922  0.00  0.00    +0.159 HD
ENDROOT
BRANCH   1  10
ATOM     10  C   UNL     1      -3.467   1.161 -12.365  0.00  0.00    +0.151 C 
BRANCH  10  11
ATOM     11  C   UNL     1      -4.795   0.515 -12.651  0.00  0.00    -0.028 A 
ATOM     12  C   UNL     1      -4.857  -0.733 -13.288  0.00  0.00    +0.005 A 
ATOM     13  C   UNL     1      -5.994   1.143 -12.282  0.00  0.00    +0.005 A 
ATOM     14  C   UNL     1      -6.089  -1.347 -13.526  0.00  0.00    +0.000 A 
ATOM     15  C   UNL     1      -7.222   0.527 -12.522  0.00  0.00    +0.000 A 
ATOM     16  C   UNL     1      -7.269  -0.719 -13.142  0.00  0.00    +0.000 A 
ENDBRANCH  10  11
ENDBRANCH   1  10
TORSDOF 2
ENDMDL
MODEL 4
REMARK VINA RESULT:    -5.137      9.682     10.260
REMARK INTER + INTRA:          -5.887
REMARK INTER:                  -5.739
REMARK INTRA:                  -0.148
REMARK UNBOUND:                -0.150
REMARK  Name = 1550473
REMARK  2 active torsions:
REMARK  status: ('A' for Active; 'I' for Inactive)
REMARK    1  A    between atoms: N_1  and  C_4
REMARK    2  A    between atoms: C_4  and  C_5
REMARK                            x       y       z     vdW  Elec       q    Type
REMARK                         _______ _______ _______ _____ _____    ______ ____
ROOT
ATOM      1  N   UNL     1      -5.930  -0.104 -13.190  0.00  0.00    -0.354 N 
ATOM      2  N   UNL     1      -7.406  -1.841 -13.598  0.00  0.00    -0.372 N 
ATOM      3  N   UNL     1      -7.324  -0.926 -11.495  0.00  0.00    -0.372 N 
ATOM      4  C   UNL     1      -6.877  -0.945 -12.756  0.00  0.00    +0.166 C 
ATOM      5  H   UNL     1      -5.613  -0.190 -14.149  0.00  0.00    +0.163 HD
ATOM      6  H   UNL     1      -8.125  -2.487 -13.299  0.00  0.00    +0.159 HD
ATOM      7  H   UNL     1      -7.120  -1.894 -14.568  0.00  0.00    +0.159 HD
ATOM      8  H   UNL     1      -6.962  -0.278 -10.809  0.00  0.00    +0.159 HD
ATOM      9  H   UNL     1      -8.035  -1.572 -11.175  0.00  0.00    +0.159 HD
ENDROOT
BRANCH   1  10
ATOM     10  C   UNL     1      -5.328   0.944 -12.368  0.00  0.00    +0.151 C 
BRANCH  10  11
ATOM     11  C   UNL     1      -3.845   0.709 -12.281  0.00  0.00    -0.028 A 
ATOM     12  C   UNL     1      -3.063   1.427 -11.364  0.00  0.00    +0.005 A 
ATOM     13  C   UNL     1      -3.217  -0.235 -13.108  0.00  0.00    +0.005 A 
ATOM     14  C   UNL     1      -1.690   1.187 -11.262  0.00  0.00    +0.000 A 
ATOM     15  C   UNL     1      -1.846  -0.470 -13.004  0.00  0.00    +0.000 A 
ATOM     16  C   UNL     1      -1.084   0.239 -12.079  0.00  0.00    +0.000 A 
ENDBRANCH  10  11
ENDBRANCH   1  10
TORSDOF 2
ENDMDL
MODEL 5
REMARK VINA RESULT:    -5.125     14.294     15.489
REMARK INTER + INTRA:          -5.875
REMARK INTER:                  -5.710
REMARK INTRA:                  -0.165
REMARK UNBOUND:                -0.150
REMARK  Name = 1550473
REMARK  2 active torsions:
REMARK  status: ('A' for Active; 'I' for Inactive)
REMARK    1  A    between atoms: N_1  and  C_4
REMARK    2  A    between atoms: C_4  and  C_5
REMARK                            x       y       z     vdW  Elec       q    Type
REMARK                         _______ _______ _______ _____ _____    ______ ____
ROOT
ATOM      1  N   UNL     1      -5.532  12.317   2.543  0.00  0.00    -0.354 N 
ATOM      2  N   UNL     1      -4.267  14.151   1.911  0.00  0.00    -0.372 N 
ATOM      3  N   UNL     1      -4.231  13.481   4.106  0.00  0.00    -0.372 N 
ATOM      4  C   UNL     1      -4.684  13.305   2.860  0.00  0.00    +0.166 C 
ATOM      5  H   UNL     1      -5.863  12.255   1.587  0.00  0.00    +0.163 HD
ATOM      6  H   UNL     1      -3.624  14.904   2.120  0.00  0.00    +0.159 HD
ATOM      7  H   UNL     1      -4.563  14.059   0.947  0.00  0.00    +0.159 HD
ATOM      8  H   UNL     1      -4.512  12.881   4.869  0.00  0.00    +0.159 HD
ATOM      9  H   UNL     1      -3.596  14.236   4.337  0.00  0.00    +0.159 HD
ENDROOT
BRANCH   1  10
ATOM     10  C   UNL     1      -6.005  11.310   3.491  0.00  0.00    +0.151 C 
BRANCH  10  11
ATOM     11  C   UNL     1      -5.276  10.019   3.240  0.00  0.00    -0.028 A 
ATOM     12  C   UNL     1      -4.990   9.605   1.931  0.00  0.00    +0.005 A 
ATOM     13  C   UNL     1      -4.864   9.207   4.308  0.00  0.00    +0.005 A 
ATOM     14  C   UNL     1      -4.286   8.421   1.699  0.00  0.00    +0.000 A 
ATOM     15  C   UNL     1      -4.162   8.025   4.072  0.00  0.00    +0.000 A 
ATOM     16  C   UNL     1      -3.871   7.633   2.768  0.00  0.00    +0.000 A 
ENDBRANCH  10  11
ENDBRANCH   1  10
TORSDOF 2
ENDMDL
MODEL 6
REMARK VINA RESULT:    -4.999     20.374     21.984
REMARK INTER + INTRA:          -5.733
REMARK INTER:                  -5.597
REMARK INTRA:                  -0.136
REMARK UNBOUND:                -0.150
REMARK  Name = 1550473
REMARK  2 active torsions:
REMARK  status: ('A' for Active; 'I' for Inactive)
REMARK    1  A    between atoms: N_1  and  C_4
REMARK    2  A    between atoms: C_4  and  C_5
REMARK                            x       y       z     vdW  Elec       q    Type
REMARK                         _______ _______ _______ _____ _____    ______ ____
ROOT
ATOM      1  N   UNL     1      -6.950   7.526  13.256  0.00  0.00    -0.354 N 
ATOM      2  N   UNL     1      -5.582   7.388  11.392  0.00  0.00    -0.372 N 
ATOM      3  N   UNL     1      -5.597   5.648  12.888  0.00  0.00    -0.372 N 
ATOM      4  C   UNL     1      -6.051   6.852  12.525  0.00  0.00    +0.166 C 
ATOM      5  H   UNL     1      -7.231   8.448  12.943  0.00  0.00    +0.163 HD
ATOM      6  H   UNL     1      -4.906   6.901  10.818  0.00  0.00    +0.159 HD
ATOM      7  H   UNL     1      -5.899   8.289  11.057  0.00  0.00    +0.159 HD
ATOM      8  H   UNL     1      -5.907   5.192  13.735  0.00  0.00    +0.159 HD
ATOM      9  H   UNL     1      -4.912   5.151  12.333  0.00  0.00    +0.159 HD
ENDROOT
BRANCH   1  10
ATOM     10  C   UNL     1      -7.563   7.009  14.478  0.00  0.00    +0.151 C 
BRANCH  10  11
ATOM     11  C   UNL     1      -9.058   7.137  14.369  0.00  0.00    -0.028 A 
ATOM     12  C   UNL     1      -9.849   7.243  15.523  0.00  0.00    +0.005 A 
ATOM     13  C   UNL     1      -9.688   7.160  13.116  0.00  0.00    +0.005 A 
ATOM     14  C   UNL     1     -11.234   7.392  15.422  0.00  0.00    +0.000 A 
ATOM     15  C   UNL     1     -11.072   7.308  13.019  0.00  0.00    +0.000 A 
ATOM     16  C   UNL     1     -11.844   7.427  14.172  0.00  0.00    +0.000 A 
ENDBRANCH  10  11
ENDBRANCH   1  10
TORSDOF 2
ENDMDL
MODEL 7
REMARK VINA RESULT:    -4.819      7.616      9.230
REMARK INTER + INTRA:          -5.533
REMARK INTER:                  -5.352
REMARK INTRA:                  -0.180
REMARK UNBOUND:                -0.150
REMARK  Name = 1550473
REMARK  2 active torsions:
REMARK  status: ('A' for Active; 'I' for Inactive)
REMARK    1  A    between atoms: N_1  and  C_4
REMARK    2  A    between atoms: C_4  and  C_5
REMARK                            x       y       z     vdW  Elec       q    Type
REMARK                         _______ _______ _______ _____ _____    ______ ____
ROOT
ATOM      1  N   UNL     1      -0.089 -10.652   1.802  0.00  0.00    -0.354 N 
ATOM      2  N   UNL     1      -0.253 -12.693   0.719  0.00  0.00    -0.372 N 
ATOM      3  N   UNL     1      -2.178 -11.574   1.274  0.00  0.00    -0.372 N 
ATOM      4  C   UNL     1      -0.841 -11.626   1.273  0.00  0.00    +0.166 C 
ATOM      5  H   UNL     1       0.918 -10.766   1.797  0.00  0.00    +0.163 HD
ATOM      6  H   UNL     1      -0.795 -13.441   0.308  0.00  0.00    +0.159 HD
ATOM      7  H   UNL     1       0.755 -12.782   0.673  0.00  0.00    +0.159 HD
ATOM      8  H   UNL     1      -2.683 -10.798   1.682  0.00  0.00    +0.159 HD
ATOM      9  H   UNL     1      -2.738 -12.318   0.878  0.00  0.00    +0.159 HD
ENDROOT
BRANCH   1  10
ATOM     10  C   UNL     1      -0.630  -9.424   2.382  0.00  0.00    +0.151 C 
BRANCH  10  11
ATOM     11  C   UNL     1      -0.572  -8.329   1.353  0.00  0.00    -0.028 A 
ATOM     12  C   UNL     1       0.647  -7.977   0.755  0.00  0.00    +0.005 A 
ATOM     13  C   UNL     1      -1.734  -7.643   0.967  0.00  0.00    +0.005 A 
ATOM     14  C   UNL     1       0.696  -6.981  -0.223  0.00  0.00    +0.000 A 
ATOM     15  C   UNL     1      -1.680  -6.648  -0.009  0.00  0.00    +0.000 A 
ATOM     16  C   UNL     1      -0.466  -6.319  -0.606  0.00  0.00    +0.000 A 
ENDBRANCH  10  11
ENDBRANCH   1  10
TORSDOF 2
ENDMDL
MODEL 8
REMARK VINA RESULT:    -4.640      9.896     10.578
REMARK INTER + INTRA:          -5.333
REMARK INTER:                  -5.165
REMARK INTRA:                  -0.167
REMARK UNBOUND:                -0.150
REMARK  Name = 1550473
REMARK  2 active torsions:
REMARK  status: ('A' for Active; 'I' for Inactive)
REMARK    1  A    between atoms: N_1  and  C_4
REMARK    2  A    between atoms: C_4  and  C_5
REMARK                            x       y       z     vdW  Elec       q    Type
REMARK                         _______ _______ _______ _____ _____    ______ ____
ROOT
ATOM      1  N   UNL     1      -7.204   1.145 -10.672  0.00  0.00    -0.354 N 
ATOM      2  N   UNL     1      -7.566   0.794  -8.411  0.00  0.00    -0.372 N 
ATOM      3  N   UNL     1      -8.031  -0.902  -9.886  0.00  0.00    -0.372 N 
ATOM      4  C   UNL     1      -7.599   0.346  -9.672  0.00  0.00    +0.166 C 
ATOM      5  H   UNL     1      -6.916   2.091 -10.447  0.00  0.00    +0.163 HD
ATOM      6  H   UNL     1      -7.854   0.212  -7.636  0.00  0.00    +0.159 HD
ATOM      7  H   UNL     1      -7.234   1.723  -8.185  0.00  0.00    +0.159 HD
ATOM      8  H   UNL     1      -8.086  -1.298 -10.814  0.00  0.00    +0.159 HD
ATOM      9  H   UNL     1      -8.335  -1.495  -9.124  0.00  0.00    +0.159 HD
ENDROOT
BRANCH   1  10
ATOM     10  C   UNL     1      -7.151   0.736 -12.074  0.00  0.00    +0.151 C 
BRANCH  10  11
ATOM     11  C   UNL     1      -5.747   0.317 -12.410  0.00  0.00    -0.028 A 
ATOM     12  C   UNL     1      -5.513  -0.795 -13.232  0.00  0.00    +0.005 A 
ATOM     13  C   UNL     1      -4.645   1.032 -11.915  0.00  0.00    +0.005 A 
ATOM     14  C   UNL     1      -4.209  -1.166 -13.570  0.00  0.00    +0.000 A 
ATOM     15  C   UNL     1      -3.345   0.658 -12.254  0.00  0.00    +0.000 A 
ATOM     16  C   UNL     1      -3.127  -0.440 -13.083  0.00  0.00    +0.000 A 
ENDBRANCH  10  11
ENDBRANCH   1  10
TORSDOF 2
ENDMDL
MODEL 9
REMARK VINA RESULT:    -4.639      9.277      9.967
REMARK INTER + INTRA:          -5.331
REMARK INTER:                  -5.165
REMARK INTRA:                  -0.166
REMARK UNBOUND:                -0.150
REMARK  Name = 1550473
REMARK  2 active torsions:
REMARK  status: ('A' for Active; 'I' for Inactive)
REMARK    1  A    between atoms: N_1  and  C_4
REMARK    2  A    between atoms: C_4  and  C_5
REMARK                            x       y       z     vdW  Elec       q    Type
REMARK                         _______ _______ _______ _____ _____    ______ ____
ROOT
ATOM      1  N   UNL     1      -5.512   1.354  -9.446  0.00  0.00    -0.354 N 
ATOM      2  N   UNL     1      -4.661   1.472  -7.295  0.00  0.00    -0.372 N 
ATOM      3  N   UNL     1      -4.012   3.047  -8.833  0.00  0.00    -0.372 N 
ATOM      4  C   UNL     1      -4.732   1.959  -8.540  0.00  0.00    +0.166 C 
ATOM      5  H   UNL     1      -6.010   0.515  -9.169  0.00  0.00    +0.163 HD
ATOM      6  H   UNL     1      -4.084   1.909  -6.589  0.00  0.00    +0.159 HD
ATOM      7  H   UNL     1      -5.195   0.661  -7.009  0.00  0.00    +0.159 HD
ATOM      8  H   UNL     1      -4.017   3.460  -9.755  0.00  0.00    +0.159 HD
ATOM      9  H   UNL     1      -3.419   3.492  -8.143  0.00  0.00    +0.159 HD
ENDROOT
BRANCH   1  10
ATOM     10  C   UNL     1      -5.702   1.835 -10.813  0.00  0.00    +0.151 C 
BRANCH  10  11
ATOM     11  C   UNL     1      -5.152   0.817 -11.773  0.00  0.00    -0.028 A 
ATOM     12  C   UNL     1      -3.774   0.751 -12.029  0.00  0.00    +0.005 A 
ATOM     13  C   UNL     1      -6.002  -0.089 -12.425  0.00  0.00    +0.005 A 
ATOM     14  C   UNL     1      -3.260  -0.214 -12.898  0.00  0.00    +0.000 A 
ATOM     15  C   UNL     1      -5.484  -1.051 -13.293  0.00  0.00    +0.000 A 
ATOM     16  C   UNL     1      -4.113  -1.115 -13.527  0.00  0.00    +0.000 A 
ENDBRANCH  10  11
ENDBRANCH   1  10
TORSDOF 2
ENDMDL
