MODEL 1
REMARK VINA RESULT:    -4.961      0.000      0.000
REMARK INTER + INTRA:          -5.681
REMARK INTER:                  -5.541
REMARK INTRA:                  -0.140
REMARK UNBOUND:                -0.140
REMARK  Name = 1550473
REMARK  2 active torsions:
REMARK  status: ('A' for Active; 'I' for Inactive)
REMARK    1  A    between atoms: N_1  and  C_4
REMARK    2  A    between atoms: C_4  and  C_5
REMARK                            x       y       z     vdW  Elec       q    Type
REMARK                         _______ _______ _______ _____ _____    ______ ____
ROOT
ATOM      1  N   UNL     1      -1.436 -15.995 -10.660  0.00  0.00    -0.354 N 
ATOM      2  N   UNL     1      -2.191 -15.860  -8.474  0.00  0.00    -0.372 N 
ATOM      3  N   UNL     1      -1.014 -14.096  -9.352  0.00  0.00    -0.372 N 
ATOM      4  C   UNL     1      -1.541 -15.315  -9.510  0.00  0.00    +0.166 C 
ATOM      5  H   UNL     1      -1.832 -16.927 -10.706  0.00  0.00    +0.163 HD
ATOM      6  H   UNL     1      -2.289 -15.370  -7.595  0.00  0.00    +0.159 HD
ATOM      7  H   UNL     1      -2.625 -16.773  -8.538  0.00  0.00    +0.159 HD
ATOM      8  H   UNL     1      -0.506 -13.633 -10.093  0.00  0.00    +0.159 HD
ATOM      9  H   UNL     1      -1.091 -13.595  -8.476  0.00  0.00    +0.159 HD
ENDROOT
BRANCH   1  10
ATOM     10  C   UNL     1      -0.795 -15.470 -11.864  0.00  0.00    +0.151 C 
BRANCH  10  11
ATOM     11  C   UNL     1      -1.771 -15.533 -13.007  0.00  0.00    -0.028 A 
ATOM     12  C   UNL     1      -3.070 -16.022 -12.808  0.00  0.00    +0.005 A 
ATOM     13  C   UNL     1      -1.404 -15.099 -14.290  0.00  0.00    +0.005 A 
ATOM     14  C   UNL     1      -3.986 -16.053 -13.862  0.00  0.00    +0.000 A 
ATOM     15  C   UNL     1      -2.321 -15.133 -15.340  0.00  0.00    +0.000 A 
ATOM     16  C   UNL     1      -3.612 -15.607 -15.126  0.00  0.00    +0.000 A 
ENDBRANCH  10  11
ENDBRANCH   1  10
TORSDOF 2
ENDMDL
MODEL 2
REMARK VINA RESULT:    -4.898      3.369      6.921
REMARK INTER + INTRA:          -5.611
REMARK INTER:                  -5.508
REMARK INTRA:                  -0.104
REMARK UNBOUND:                -0.140
REMARK  Name = 1550473
REMARK  2 active torsions:
REMARK  status: ('A' for Active; 'I' for Inactive)
REMARK    1  A    between atoms: N_1  and  C_4
REMARK    2  A    between atoms: C_4  and  C_5
REMARK                            x       y       z     vdW  Elec       q    Type
REMARK                         _______ _______ _______ _____ _____    ______ ____
ROOT
ATOM      1  N   UNL     1      -1.052 -15.313  -9.006  0.00  0.00    -0.354 N 
ATOM      2  N   UNL     1      -1.136 -16.453 -11.020  0.00  0.00    -0.372 N 
ATOM      3  N   UNL     1      -2.650 -14.773 -10.632  0.00  0.00    -0.372 N 
ATOM      4  C   UNL     1      -1.614 -15.504 -10.206  0.00  0.00    +0.166 C 
ATOM      5  H   UNL     1      -0.289 -15.920  -8.730  0.00  0.00    +0.163 HD
ATOM      6  H   UNL     1      -1.538 -16.618 -11.933  0.00  0.00    +0.159 HD
ATOM      7  H   UNL     1      -0.344 -17.028 -10.760  0.00  0.00    +0.159 HD
ATOM      8  H   UNL     1      -3.062 -14.045 -10.063  0.00  0.00    +0.159 HD
ATOM      9  H   UNL     1      -3.074 -14.931 -11.538  0.00  0.00    +0.159 HD
ENDROOT
BRANCH   1  10
ATOM     10  C   UNL     1      -1.462 -14.271  -8.067  0.00  0.00    +0.151 C 
BRANCH  10  11
ATOM     11  C   UNL     1      -1.316 -14.789  -6.663  0.00  0.00    -0.028 A 
ATOM     12  C   UNL     1      -2.446 -14.989  -5.856  0.00  0.00    +0.005 A 
ATOM     13  C   UNL     1      -0.051 -15.088  -6.135  0.00  0.00    +0.005 A 
ATOM     14  C   UNL     1      -2.313 -15.499  -4.562  0.00  0.00    +0.000 A 
ATOM     15  C   UNL     1       0.078 -15.597  -4.842  0.00  0.00    +0.000 A 
ATOM     16  C   UNL     1      -1.054 -15.804  -4.057  0.00  0.00    +0.000 A 
ENDBRANCH  10  11
ENDBRANCH   1  10
TORSDOF 2
ENDMDL
MODEL 3
REMARK VINA RESULT:    -4.831     19.218     20.007
REMARK INTER + INTRA:          -5.536
REMARK INTER:                  -5.418
REMARK INTRA:                  -0.118
REMARK UNBOUND:                -0.140
REMARK  Name = 1550473
REMARK  2 active torsions:
REMARK  status: ('A' for Active; 'I' for Inactive)
REMARK    1  A    between atoms: N_1  and  C_4
REMARK    2  A    between atoms: C_4  and  C_5
REMARK                            x       y       z     vdW  Elec       q    Type
REMARK                         _______ _______ _______ _____ _____    ______ ____
ROOT
ATOM      1  N   UNL     1     -15.419  -4.884  -6.622  0.00  0.00    -0.354 N 
ATOM      2  N   UNL     1     -13.164  -5.377  -6.434  0.00  0.00    -0.372 N 
ATOM      3  N   UNL     1     -14.644  -6.394  -5.006  0.00  0.00    -0.372 N 
ATOM      4  C   UNL     1     -14.425  -5.550  -6.020  0.00  0.00    +0.166 C 
ATOM      5  H   UNL     1     -15.183  -4.235  -7.364  0.00  0.00    +0.163 HD
ATOM      6  H   UNL     1     -12.393  -5.868  -6.001  0.00  0.00    +0.159 HD
ATOM      7  H   UNL     1     -12.936  -4.763  -7.206  0.00  0.00    +0.159 HD
ATOM      8  H   UNL     1     -15.572  -6.565  -4.643  0.00  0.00    +0.159 HD
ATOM      9  H   UNL     1     -13.885  -6.887  -4.553  0.00  0.00    +0.159 HD
ENDROOT
BRANCH   1  10
ATOM     10  C   UNL     1     -16.832  -5.042  -6.283  0.00  0.00    +0.151 C 
BRANCH  10  11
ATOM     11  C   UNL     1     -17.264  -3.884  -5.425  0.00  0.00    -0.028 A 
ATOM     12  C   UNL     1     -16.485  -2.720  -5.355  0.00  0.00    +0.005 A 
ATOM     13  C   UNL     1     -18.454  -3.944  -4.684  0.00  0.00    +0.005 A 
ATOM     14  C   UNL     1     -16.900  -1.633  -4.582  0.00  0.00    +0.000 A 
ATOM     15  C   UNL     1     -18.865  -2.857  -3.912  0.00  0.00    +0.000 A 
ATOM     16  C   UNL     1     -18.089  -1.701  -3.864  0.00  0.00    +0.000 A 
ENDBRANCH  10  11
ENDBRANCH   1  10
TORSDOF 2
ENDMDL
MODEL 4
REMARK VINA RESULT:    -4.650     25.693     26.322
REMARK INTER + INTRA:          -5.335
REMARK INTER:                  -5.212
REMARK INTRA:                  -0.122
REMARK UNBOUND:                -0.140
REMARK  Name = 1550473
REMARK  2 active torsions:
REMARK  status: ('A' for Active; 'I' for Inactive)
REMARK    1  A    between atoms: N_1  and  C_4
REMARK    2  A    between atoms: C_4  and  C_5
REMARK                            x       y       z     vdW  Elec       q    Type
REMARK                         _______ _______ _______ _____ _____    ______ ____
ROOT
ATOM      1  N   UNL     1     -13.442   6.925  -7.295  0.00  0.00    -0.354 N 
ATOM      2  N   UNL     1     -14.723   5.110  -7.950  0.00  0.00    -0.372 N 
ATOM      3  N   UNL     1     -15.737   7.154  -7.709  0.00  0.00    -0.372 N 
ATOM      4  C   UNL     1     -14.627   6.410  -7.647  0.00  0.00    +0.166 C 
ATOM      5  H   UNL     1     -12.644   6.301  -7.237  0.00  0.00    +0.163 HD
ATOM      6  H   UNL     1     -15.603   4.694  -8.223  0.00  0.00    +0.159 HD
ATOM      7  H   UNL     1     -13.915   4.499  -7.937  0.00  0.00    +0.159 HD
ATOM      8  H   UNL     1     -15.733   8.141  -7.486  0.00  0.00    +0.159 HD
ATOM      9  H   UNL     1     -16.630   6.754  -7.968  0.00  0.00    +0.159 HD
ENDROOT
BRANCH   1  10
ATOM     10  C   UNL     1     -13.220   8.338  -6.997  0.00  0.00    +0.151 C 
BRANCH  10  11
ATOM     11  C   UNL     1     -11.825   8.715  -7.414  0.00  0.00    -0.028 A 
ATOM     12  C   UNL     1     -11.524  10.034  -7.782  0.00  0.00    +0.005 A 
ATOM     13  C   UNL     1     -10.798   7.758  -7.437  0.00  0.00    +0.005 A 
ATOM     14  C   UNL     1     -10.221  10.391  -8.141  0.00  0.00    +0.000 A 
ATOM     15  C   UNL     1      -9.500   8.118  -7.796  0.00  0.00    +0.000 A 
ATOM     16  C   UNL     1      -9.211   9.435  -8.146  0.00  0.00    +0.000 A 
ENDBRANCH  10  11
ENDBRANCH   1  10
TORSDOF 2
ENDMDL
MODEL 5
REMARK VINA RESULT:    -4.446      7.964      9.265
REMARK INTER + INTRA:          -5.106
REMARK INTER:                  -4.995
REMARK INTRA:                  -0.110
REMARK UNBOUND:                -0.140
REMARK  Name = 1550473
REMARK  2 active torsions:
REMARK  status: ('A' for Active; 'I' for Inactive)
REMARK    1  A    between atoms: N_1  and  C_4
REMARK    2  A    between atoms: C_4  and  C_5
REMARK                            x       y       z     vdW  Elec       q    Type
REMARK                         _______ _______ _______ _____ _____    ______ ____
ROOT
ATOM      1  N   UNL     1       6.348 -13.921 -16.112  0.00  0.00    -0.354 N 
ATOM      2  N   UNL     1       6.924 -14.717 -18.210  0.00  0.00    -0.372 N 
ATOM      3  N   UNL     1       8.506 -14.725 -16.548  0.00  0.00    -0.372 N 
ATOM      4  C   UNL     1       7.258 -14.449 -16.941  0.00  0.00    +0.166 C 
ATOM      5  H   UNL     1       5.428 -13.708 -16.480  0.00  0.00    +0.163 HD
ATOM      6  H   UNL     1       7.588 -15.119 -18.857  0.00  0.00    +0.159 HD
ATOM      7  H   UNL     1       5.990 -14.545 -18.562  0.00  0.00    +0.159 HD
ATOM      8  H   UNL     1       8.823 -14.541 -15.605  0.00  0.00    +0.159 HD
ATOM      9  H   UNL     1       9.189 -15.116 -17.185  0.00  0.00    +0.159 HD
ENDROOT
BRANCH   1  10
ATOM     10  C   UNL     1       6.594 -13.642 -14.698  0.00  0.00    +0.151 C 
BRANCH  10  11
ATOM     11  C   UNL     1       5.276 -13.511 -13.987  0.00  0.00    -0.028 A 
ATOM     12  C   UNL     1       4.977 -12.355 -13.251  0.00  0.00    +0.005 A 
ATOM     13  C   UNL     1       4.320 -14.536 -14.049  0.00  0.00    +0.005 A 
ATOM     14  C   UNL     1       3.741 -12.220 -12.614  0.00  0.00    +0.000 A 
ATOM     15  C   UNL     1       3.087 -14.397 -13.411  0.00  0.00    +0.000 A 
ATOM     16  C   UNL     1       2.797 -13.238 -12.696  0.00  0.00    +0.000 A 
ENDBRANCH  10  11
ENDBRANCH   1  10
TORSDOF 2
ENDMDL
MODEL 6
REMARK VINA RESULT:    -4.343     33.804     34.366
REMARK INTER + INTRA:          -4.991
REMARK INTER:                  -4.867
REMARK INTRA:                  -0.124
REMARK UNBOUND:                -0.140
REMARK  Name = 1550473
REMARK  2 active torsions:
REMARK  status: ('A' for Active; 'I' for Inactive)
REMARK    1  A    between atoms: N_1  and  C_4
REMARK    2  A    between atoms: C_4  and  C_5
REMARK                            x       y       z     vdW  Elec       q    Type
REMARK                         _______ _______ _______ _____ _____    ______ ____
ROOT
ATOM      1  N   UNL     1     -14.604   9.365   8.696  0.00  0.00    -0.354 N 
ATOM      2  N   UNL     1     -14.789  10.332  10.792  0.00  0.00    -0.372 N 
ATOM      3  N   UNL     1     -13.122  11.043   9.385  0.00  0.00    -0.372 N 
ATOM      4  C   UNL     1     -14.168  10.242   9.609  0.00  0.00    +0.166 C 
ATOM      5  H   UNL     1     -15.384   8.764   8.939  0.00  0.00    +0.163 HD
ATOM      6  H   UNL     1     -14.484  10.987  11.500  0.00  0.00    +0.159 HD
ATOM      7  H   UNL     1     -15.596   9.763  11.015  0.00  0.00    +0.159 HD
ATOM      8  H   UNL     1     -12.606  11.020   8.515  0.00  0.00    +0.159 HD
ATOM      9  H   UNL     1     -12.794  11.697  10.085  0.00  0.00    +0.159 HD
ENDROOT
BRANCH   1  10
ATOM     10  C   UNL     1     -14.032   9.225   7.358  0.00  0.00    +0.151 C 
BRANCH  10  11
ATOM     11  C   UNL     1     -15.134   9.332   6.339  0.00  0.00    -0.028 A 
ATOM     12  C   UNL     1     -16.215   8.439   6.363  0.00  0.00    +0.005 A 
ATOM     13  C   UNL     1     -15.104  10.328   5.350  0.00  0.00    +0.005 A 
ATOM     14  C   UNL     1     -17.253   8.557   5.436  0.00  0.00    +0.000 A 
ATOM     15  C   UNL     1     -16.143  10.441   4.426  0.00  0.00    +0.000 A 
ATOM     16  C   UNL     1     -17.218   9.557   4.470  0.00  0.00    +0.000 A 
ENDBRANCH  10  11
ENDBRANCH   1  10
TORSDOF 2
ENDMDL
MODEL 7
REMARK VINA RESULT:    -4.297     18.986     19.747
REMARK INTER + INTRA:          -4.940
REMARK INTER:                  -4.819
REMARK INTRA:                  -0.121
REMARK UNBOUND:                -0.140
REMARK  Name = 1550473
REMARK  2 active torsions:
REMARK  status: ('A' for Active; 'I' for Inactive)
REMARK    1  A    between atoms: N_1  and  C_4
REMARK    2  A    between atoms: C_4  and  C_5
REMARK                            x       y       z     vdW  Elec       q    Type
REMARK                         _______ _______ _______ _____ _____    ______ ____
ROOT
ATOM      1  N   UNL     1     -16.153  -5.486  -7.464  0.00  0.00    -0.354 N 
ATOM      2  N   UNL     1     -15.226  -6.389  -9.386  0.00  0.00    -0.372 N 
ATOM      3  N   UNL     1     -16.752  -7.629  -8.202  0.00  0.00    -0.372 N 
ATOM      4  C   UNL     1     -16.051  -6.498  -8.337  0.00  0.00    +0.166 C 
ATOM      5  H   UNL     1     -15.572  -4.668  -7.607  0.00  0.00    +0.163 HD
ATOM      6  H   UNL     1     -15.131  -7.134 -10.063  0.00  0.00    +0.159 HD
ATOM      7  H   UNL     1     -14.681  -5.551  -9.550  0.00  0.00    +0.159 HD
ATOM      8  H   UNL     1     -17.387  -7.776  -7.429  0.00  0.00    +0.159 HD
ATOM      9  H   UNL     1     -16.661  -8.390  -8.863  0.00  0.00    +0.159 HD
ENDROOT
BRANCH   1  10
ATOM     10  C   UNL     1     -17.062  -5.483  -6.319  0.00  0.00    +0.151 C 
BRANCH  10  11
ATOM     11  C   UNL     1     -17.084  -4.106  -5.715  0.00  0.00    -0.028 A 
ATOM     12  C   UNL     1     -18.113  -3.730  -4.839  0.00  0.00    +0.005 A 
ATOM     13  C   UNL     1     -16.077  -3.174  -6.010  0.00  0.00    +0.005 A 
ATOM     14  C   UNL     1     -18.118  -2.462  -4.253  0.00  0.00    +0.000 A 
ATOM     15  C   UNL     1     -16.086  -1.909  -5.424  0.00  0.00    +0.000 A 
ATOM     16  C   UNL     1     -17.106  -1.554  -4.544  0.00  0.00    +0.000 A 
ENDBRANCH  10  11
ENDBRANCH   1  10
TORSDOF 2
ENDMDL
MODEL 8
REMARK VINA RESULT:    -4.294     19.307     19.950
REMARK INTER + INTRA:          -4.937
REMARK INTER:                  -4.836
REMARK INTRA:                  -0.101
REMARK UNBOUND:                -0.140
REMARK  Name = 1550473
REMARK  2 active torsions:
REMARK  status: ('A' for Active; 'I' for Inactive)
REMARK    1  A    between atoms: N_1  and  C_4
REMARK    2  A    between atoms: C_4  and  C_5
REMARK                            x       y       z     vdW  Elec       q    Type
REMARK                         _______ _______ _______ _____ _____    ______ ____
ROOT
ATOM      1  N   UNL     1     -15.710  -5.105  -4.890  0.00  0.00    -0.354 N 
ATOM      2  N   UNL     1     -14.678  -7.023  -4.104  0.00  0.00    -0.372 N 
ATOM      3  N   UNL     1     -13.580  -5.725  -5.644  0.00  0.00    -0.372 N 
ATOM      4  C   UNL     1     -14.661  -5.938  -4.886  0.00  0.00    +0.166 C 
ATOM      5  H   UNL     1     -16.512  -5.338  -4.315  0.00  0.00    +0.163 HD
ATOM      6  H   UNL     1     -13.900  -7.668  -4.078  0.00  0.00    +0.159 HD
ATOM      7  H   UNL     1     -15.462  -7.230  -3.496  0.00  0.00    +0.159 HD
ATOM      8  H   UNL     1     -13.507  -4.927  -6.261  0.00  0.00    +0.159 HD
ATOM      9  H   UNL     1     -12.796  -6.365  -5.640  0.00  0.00    +0.159 HD
ENDROOT
BRANCH   1  10
ATOM     10  C   UNL     1     -15.769  -3.867  -5.665  0.00  0.00    +0.151 C 
BRANCH  10  11
ATOM     11  C   UNL     1     -17.207  -3.459  -5.830  0.00  0.00    -0.028 A 
ATOM     12  C   UNL     1     -18.020  -3.242  -4.708  0.00  0.00    +0.005 A 
ATOM     13  C   UNL     1     -17.761  -3.281  -7.107  0.00  0.00    +0.005 A 
ATOM     14  C   UNL     1     -19.347  -2.834  -4.861  0.00  0.00    +0.000 A 
ATOM     15  C   UNL     1     -19.087  -2.874  -7.256  0.00  0.00    +0.000 A 
ATOM     16  C   UNL     1     -19.879  -2.649  -6.133  0.00  0.00    +0.000 A 
ENDBRANCH  10  11
ENDBRANCH   1  10
TORSDOF 2
ENDMDL
MODEL 9
REMARK VINA RESULT:    -4.208     25.157     26.263
REMARK INTER + INTRA:          -4.840
REMARK INTER:                  -4.667
REMARK INTRA:                  -0.173
REMARK UNBOUND:                -0.140
REMARK  Name = 1550473
REMARK  2 active torsions:
REMARK  status: ('A' for Active; 'I' for Inactive)
REMARK    1  A    between atoms: N_1  and  C_4
REMARK    2  A    between atoms: C_4  and  C_5
REMARK                            x       y       z     vdW  Elec       q    Type
REMARK                         _______ _______ _______ _____ _____    ______ ____
ROOT
ATOM      1  N   UNL     1     -10.501   4.814 -23.955  0.00  0.00    -0.354 N 
ATOM      2  N   UNL     1     -10.830   2.555 -24.345  0.00  0.00    -0.372 N 
ATOM      3  N   UNL     1      -8.711   3.303 -23.883  0.00  0.00    -0.372 N 
ATOM      4  C   UNL     1     -10.009   3.572 -24.058  0.00  0.00    +0.166 C 
ATOM      5  H   UNL     1     -11.489   4.956 -24.129  0.00  0.00    +0.163 HD
ATOM      6  H   UNL     1     -10.488   1.607 -24.426  0.00  0.00    +0.159 HD
ATOM      7  H   UNL     1     -11.825   2.693 -24.473  0.00  0.00    +0.159 HD
ATOM      8  H   UNL     1      -8.038   4.027 -23.671  0.00  0.00    +0.159 HD
ATOM      9  H   UNL     1      -8.348   2.362 -23.972  0.00  0.00    +0.159 HD
ENDROOT
BRANCH   1  10
ATOM     10  C   UNL     1      -9.701   5.983 -23.594  0.00  0.00    +0.151 C 
BRANCH  10  11
ATOM     11  C   UNL     1      -9.456   6.810 -24.826  0.00  0.00    -0.028 A 
ATOM     12  C   UNL     1     -10.299   7.886 -25.140  0.00  0.00    +0.005 A 
ATOM     13  C   UNL     1      -8.379   6.527 -25.680  0.00  0.00    +0.005 A 
ATOM     14  C   UNL     1     -10.055   8.673 -26.268  0.00  0.00    +0.000 A 
ATOM     15  C   UNL     1      -8.139   7.315 -26.805  0.00  0.00    +0.000 A 
ATOM     16  C   UNL     1      -8.975   8.389 -27.098  0.00  0.00    +0.000 A 
ENDBRANCH  10  11
ENDBRANCH   1  10
TORSDOF 2
ENDMDL
