MODEL 1
REMARK VINA RESULT:    -5.093      0.000      0.000
REMARK INTER + INTRA:          -5.873
REMARK INTER:                  -5.689
REMARK INTRA:                  -0.184
REMARK UNBOUND:                -0.184
REMARK  Name = 1550473
REMARK  2 active torsions:
REMARK  status: ('A' for Active; 'I' for Inactive)
REMARK    1  A    between atoms: N_1  and  C_4
REMARK    2  A    between atoms: C_4  and  C_5
REMARK                            x       y       z     vdW  Elec       q    Type
REMARK                         _______ _______ _______ _____ _____    ______ ____
ROOT
ATOM      1  N   UNL     1      -7.316  -0.449  -4.248  0.00  0.00    -0.354 N 
ATOM      2  N   UNL     1      -8.786  -2.148  -3.685  0.00  0.00    -0.372 N 
ATOM      3  N   UNL     1      -6.760  -2.034  -2.614  0.00  0.00    -0.372 N 
ATOM      4  C   UNL     1      -7.609  -1.533  -3.518  0.00  0.00    +0.166 C 
ATOM      5  H   UNL     1      -7.989  -0.137  -4.938  0.00  0.00    +0.163 HD
ATOM      6  H   UNL     1      -9.036  -2.966  -3.146  0.00  0.00    +0.159 HD
ATOM      7  H   UNL     1      -9.476  -1.807  -4.343  0.00  0.00    +0.159 HD
ATOM      8  H   UNL     1      -5.853  -1.620  -2.443  0.00  0.00    +0.159 HD
ATOM      9  H   UNL     1      -6.988  -2.859  -2.073  0.00  0.00    +0.159 HD
ENDROOT
BRANCH   1  10
ATOM     10  C   UNL     1      -6.084   0.325  -4.104  0.00  0.00    +0.151 C 
BRANCH  10  11
ATOM     11  C   UNL     1      -6.366   1.549  -3.278  0.00  0.00    -0.028 A 
ATOM     12  C   UNL     1      -7.097   2.619  -3.816  0.00  0.00    +0.005 A 
ATOM     13  C   UNL     1      -5.912   1.643  -1.954  0.00  0.00    +0.005 A 
ATOM     14  C   UNL     1      -7.385   3.743  -3.039  0.00  0.00    +0.000 A 
ATOM     15  C   UNL     1      -6.201   2.768  -1.181  0.00  0.00    +0.000 A 
ATOM     16  C   UNL     1      -6.940   3.817  -1.724  0.00  0.00    +0.000 A 
ENDBRANCH  10  11
ENDBRANCH   1  10
TORSDOF 2
ENDMDL
MODEL 2
REMARK VINA RESULT:    -4.745      3.583      4.585
REMARK INTER + INTRA:          -5.484
REMARK INTER:                  -5.366
REMARK INTRA:                  -0.118
REMARK UNBOUND:                -0.184
REMARK  Name = 1550473
REMARK  2 active torsions:
REMARK  status: ('A' for Active; 'I' for Inactive)
REMARK    1  A    between atoms: N_1  and  C_4
REMARK    2  A    between atoms: C_4  and  C_5
REMARK                            x       y       z     vdW  Elec       q    Type
REMARK                         _______ _______ _______ _____ _____    ______ ____
ROOT
ATOM      1  N   UNL     1      -6.684   0.562   1.273  0.00  0.00    -0.354 N 
ATOM      2  N   UNL     1      -6.131   0.949   3.489  0.00  0.00    -0.372 N 
ATOM      3  N   UNL     1      -7.209  -1.001   2.939  0.00  0.00    -0.372 N 
ATOM      4  C   UNL     1      -6.680   0.165   2.553  0.00  0.00    +0.166 C 
ATOM      5  H   UNL     1      -6.294   1.471   1.050  0.00  0.00    +0.163 HD
ATOM      6  H   UNL     1      -6.110   0.674   4.462  0.00  0.00    +0.159 HD
ATOM      7  H   UNL     1      -5.701   1.835   3.257  0.00  0.00    +0.159 HD
ATOM      8  H   UNL     1      -7.644  -1.635   2.282  0.00  0.00    +0.159 HD
ATOM      9  H   UNL     1      -7.208  -1.288   3.909  0.00  0.00    +0.159 HD
ENDROOT
BRANCH   1  10
ATOM     10  C   UNL     1      -7.208  -0.240   0.170  0.00  0.00    +0.151 C 
BRANCH  10  11
ATOM     11  C   UNL     1      -6.946   0.476  -1.126  0.00  0.00    -0.028 A 
ATOM     12  C   UNL     1      -6.892  -0.235  -2.334  0.00  0.00    +0.005 A 
ATOM     13  C   UNL     1      -6.755   1.866  -1.154  0.00  0.00    +0.005 A 
ATOM     14  C   UNL     1      -6.678   0.434  -3.542  0.00  0.00    +0.000 A 
ATOM     15  C   UNL     1      -6.541   2.530  -2.362  0.00  0.00    +0.000 A 
ATOM     16  C   UNL     1      -6.505   1.814  -3.556  0.00  0.00    +0.000 A 
ENDBRANCH  10  11
ENDBRANCH   1  10
TORSDOF 2
ENDMDL
MODEL 3
REMARK VINA RESULT:    -4.675      4.124      5.786
REMARK INTER + INTRA:          -5.406
REMARK INTER:                  -5.272
REMARK INTRA:                  -0.134
REMARK UNBOUND:                -0.184
REMARK  Name = 1550473
REMARK  2 active torsions:
REMARK  status: ('A' for Active; 'I' for Inactive)
REMARK    1  A    between atoms: N_1  and  C_4
REMARK    2  A    between atoms: C_4  and  C_5
REMARK                            x       y       z     vdW  Elec       q    Type
REMARK                         _______ _______ _______ _____ _____    ______ ____
ROOT
ATOM      1  N   UNL     1      -7.245   5.956  -3.099  0.00  0.00    -0.354 N 
ATOM      2  N   UNL     1      -6.267   8.008  -3.541  0.00  0.00    -0.372 N 
ATOM      3  N   UNL     1      -7.077   6.765  -5.292  0.00  0.00    -0.372 N 
ATOM      4  C   UNL     1      -6.870   6.895  -3.977  0.00  0.00    +0.166 C 
ATOM      5  H   UNL     1      -7.032   6.100  -2.119  0.00  0.00    +0.163 HD
ATOM      6  H   UNL     1      -5.976   8.736  -4.180  0.00  0.00    +0.159 HD
ATOM      7  H   UNL     1      -6.097   8.171  -2.556  0.00  0.00    +0.159 HD
ATOM      8  H   UNL     1      -7.522   5.947  -5.686  0.00  0.00    +0.159 HD
ATOM      9  H   UNL     1      -6.783   7.478  -5.948  0.00  0.00    +0.159 HD
ENDROOT
BRANCH   1  10
ATOM     10  C   UNL     1      -7.957   4.732  -3.465  0.00  0.00    +0.151 C 
BRANCH  10  11
ATOM     11  C   UNL     1      -7.203   3.546  -2.928  0.00  0.00    -0.028 A 
ATOM     12  C   UNL     1      -6.653   3.577  -1.638  0.00  0.00    +0.005 A 
ATOM     13  C   UNL     1      -7.041   2.387  -3.702  0.00  0.00    +0.005 A 
ATOM     14  C   UNL     1      -5.979   2.465  -1.128  0.00  0.00    +0.000 A 
ATOM     15  C   UNL     1      -6.367   1.279  -3.189  0.00  0.00    +0.000 A 
ATOM     16  C   UNL     1      -5.838   1.318  -1.901  0.00  0.00    +0.000 A 
ENDBRANCH  10  11
ENDBRANCH   1  10
TORSDOF 2
ENDMDL
MODEL 4
REMARK VINA RESULT:    -4.464      2.233      2.880
REMARK INTER + INTRA:          -5.170
REMARK INTER:                  -5.009
REMARK INTRA:                  -0.161
REMARK UNBOUND:                -0.184
REMARK  Name = 1550473
REMARK  2 active torsions:
REMARK  status: ('A' for Active; 'I' for Inactive)
REMARK    1  A    between atoms: N_1  and  C_4
REMARK    2  A    between atoms: C_4  and  C_5
REMARK                            x       y       z     vdW  Elec       q    Type
REMARK                         _______ _______ _______ _____ _____    ______ ____
ROOT
ATOM      1  N   UNL     1      -6.876   0.320  -1.287  0.00  0.00    -0.354 N 
ATOM      2  N   UNL     1      -8.195  -0.717   0.310  0.00  0.00    -0.372 N 
ATOM      3  N   UNL     1      -6.554   0.732   0.998  0.00  0.00    -0.372 N 
ATOM      4  C   UNL     1      -7.198   0.120  -0.002  0.00  0.00    +0.166 C 
ATOM      5  H   UNL     1      -7.383  -0.198  -1.996  0.00  0.00    +0.163 HD
ATOM      6  H   UNL     1      -8.463  -0.885   1.271  0.00  0.00    +0.159 HD
ATOM      7  H   UNL     1      -8.730  -1.198  -0.403  0.00  0.00    +0.159 HD
ATOM      8  H   UNL     1      -5.789   1.371   0.829  0.00  0.00    +0.159 HD
ATOM      9  H   UNL     1      -6.800   0.568   1.966  0.00  0.00    +0.159 HD
ENDROOT
BRANCH   1  10
ATOM     10  C   UNL     1      -5.843   1.251  -1.735  0.00  0.00    +0.151 C 
BRANCH  10  11
ATOM     11  C   UNL     1      -6.493   2.387  -2.476  0.00  0.00    -0.028 A 
ATOM     12  C   UNL     1      -6.904   2.226  -3.807  0.00  0.00    +0.005 A 
ATOM     13  C   UNL     1      -6.705   3.625  -1.850  0.00  0.00    +0.005 A 
ATOM     14  C   UNL     1      -7.535   3.271  -4.486  0.00  0.00    +0.000 A 
ATOM     15  C   UNL     1      -7.335   4.666  -2.532  0.00  0.00    +0.000 A 
ATOM     16  C   UNL     1      -7.752   4.488  -3.849  0.00  0.00    +0.000 A 
ENDBRANCH  10  11
ENDBRANCH   1  10
TORSDOF 2
ENDMDL
MODEL 5
REMARK VINA RESULT:    -4.446      4.171      5.723
REMARK INTER + INTRA:          -5.150
REMARK INTER:                  -5.021
REMARK INTRA:                  -0.129
REMARK UNBOUND:                -0.184
REMARK  Name = 1550473
REMARK  2 active torsions:
REMARK  status: ('A' for Active; 'I' for Inactive)
REMARK    1  A    between atoms: N_1  and  C_4
REMARK    2  A    between atoms: C_4  and  C_5
REMARK                            x       y       z     vdW  Elec       q    Type
REMARK                         _______ _______ _______ _____ _____    ______ ____
ROOT
ATOM      1  N   UNL     1      -7.873   5.675  -2.171  0.00  0.00    -0.354 N 
ATOM      2  N   UNL     1      -8.806   7.408  -0.950  0.00  0.00    -0.372 N 
ATOM      3  N   UNL     1      -9.767   6.816  -2.948  0.00  0.00    -0.372 N 
ATOM      4  C   UNL     1      -8.811   6.622  -2.034  0.00  0.00    +0.166 C 
ATOM      5  H   UNL     1      -7.158   5.599  -1.457  0.00  0.00    +0.163 HD
ATOM      6  H   UNL     1      -9.503   8.129  -0.818  0.00  0.00    +0.159 HD
ATOM      7  H   UNL     1      -8.117   7.299  -0.216  0.00  0.00    +0.159 HD
ATOM      8  H   UNL     1      -9.822   6.260  -3.791  0.00  0.00    +0.159 HD
ATOM      9  H   UNL     1     -10.466   7.539  -2.839  0.00  0.00    +0.159 HD
ENDROOT
BRANCH   1  10
ATOM     10  C   UNL     1      -7.821   4.731  -3.286  0.00  0.00    +0.151 C 
BRANCH  10  11
ATOM     11  C   UNL     1      -7.120   3.479  -2.837  0.00  0.00    -0.028 A 
ATOM     12  C   UNL     1      -6.608   3.377  -1.536  0.00  0.00    +0.005 A 
ATOM     13  C   UNL     1      -6.969   2.388  -3.708  0.00  0.00    +0.005 A 
ATOM     14  C   UNL     1      -5.983   2.202  -1.109  0.00  0.00    +0.000 A 
ATOM     15  C   UNL     1      -6.344   1.218  -3.278  0.00  0.00    +0.000 A 
ATOM     16  C   UNL     1      -5.854   1.124  -1.978  0.00  0.00    +0.000 A 
ENDBRANCH  10  11
ENDBRANCH   1  10
TORSDOF 2
ENDMDL
MODEL 6
REMARK VINA RESULT:    -4.273     13.569     14.349
REMARK INTER + INTRA:          -4.957
REMARK INTER:                  -4.835
REMARK INTRA:                  -0.122
REMARK UNBOUND:                -0.184
REMARK  Name = 1550473
REMARK  2 active torsions:
REMARK  status: ('A' for Active; 'I' for Inactive)
REMARK    1  A    between atoms: N_1  and  C_4
REMARK    2  A    between atoms: C_4  and  C_5
REMARK                            x       y       z     vdW  Elec       q    Type
REMARK                         _______ _______ _______ _____ _____    ______ ____
ROOT
ATOM      1  N   UNL     1       7.297   0.616  -8.391  0.00  0.00    -0.354 N 
ATOM      2  N   UNL     1       8.771  -0.492  -6.990  0.00  0.00    -0.372 N 
ATOM      3  N   UNL     1       9.421   1.494  -7.936  0.00  0.00    -0.372 N 
ATOM      4  C   UNL     1       8.488   0.549  -7.782  0.00  0.00    +0.166 C 
ATOM      5  H   UNL     1       6.644  -0.148  -8.258  0.00  0.00    +0.163 HD
ATOM      6  H   UNL     1       9.660  -0.569  -6.515  0.00  0.00    +0.159 HD
ATOM      7  H   UNL     1       8.099  -1.232  -6.822  0.00  0.00    +0.159 HD
ATOM      8  H   UNL     1       9.273   2.303  -8.525  0.00  0.00    +0.159 HD
ATOM      9  H   UNL     1      10.322   1.430  -7.478  0.00  0.00    +0.159 HD
ENDROOT
BRANCH   1  10
ATOM     10  C   UNL     1       6.870   1.734  -9.231  0.00  0.00    +0.151 C 
BRANCH  10  11
ATOM     11  C   UNL     1       5.620   2.335  -8.651  0.00  0.00    -0.028 A 
ATOM     12  C   UNL     1       4.671   2.948  -9.483  0.00  0.00    +0.005 A 
ATOM     13  C   UNL     1       5.375   2.291  -7.269  0.00  0.00    +0.005 A 
ATOM     14  C   UNL     1       3.496   3.480  -8.948  0.00  0.00    +0.000 A 
ATOM     15  C   UNL     1       4.200   2.824  -6.739  0.00  0.00    +0.000 A 
ATOM     16  C   UNL     1       3.260   3.416  -7.578  0.00  0.00    +0.000 A 
ENDBRANCH  10  11
ENDBRANCH   1  10
TORSDOF 2
ENDMDL
MODEL 7
REMARK VINA RESULT:    -4.213      2.662      4.946
REMARK INTER + INTRA:          -4.889
REMARK INTER:                  -4.766
REMARK INTRA:                  -0.123
REMARK UNBOUND:                -0.184
REMARK  Name = 1550473
REMARK  2 active torsions:
REMARK  status: ('A' for Active; 'I' for Inactive)
REMARK    1  A    between atoms: N_1  and  C_4
REMARK    2  A    between atoms: C_4  and  C_5
REMARK                            x       y       z     vdW  Elec       q    Type
REMARK                         _______ _______ _______ _____ _____    ______ ____
ROOT
ATOM      1  N   UNL     1      -6.972   0.069  -1.032  0.00  0.00    -0.354 N 
ATOM      2  N   UNL     1      -6.824   0.641   1.207  0.00  0.00    -0.372 N 
ATOM      3  N   UNL     1      -5.871   2.024  -0.356  0.00  0.00    -0.372 N 
ATOM      4  C   UNL     1      -6.555   0.910  -0.076  0.00  0.00    +0.166 C 
ATOM      5  H   UNL     1      -7.460  -0.774  -0.753  0.00  0.00    +0.163 HD
ATOM      6  H   UNL     1      -6.526   1.258   1.950  0.00  0.00    +0.159 HD
ATOM      7  H   UNL     1      -7.352  -0.180   1.480  0.00  0.00    +0.159 HD
ATOM      8  H   UNL     1      -5.631   2.281  -1.304  0.00  0.00    +0.159 HD
ATOM      9  H   UNL     1      -5.553   2.648   0.375  0.00  0.00    +0.159 HD
ENDROOT
BRANCH   1  10
ATOM     10  C   UNL     1      -6.778   0.297  -2.463  0.00  0.00    +0.151 C 
BRANCH  10  11
ATOM     11  C   UNL     1      -7.246  -0.914  -3.222  0.00  0.00    -0.028 A 
ATOM     12  C   UNL     1      -7.260  -0.914  -4.624  0.00  0.00    +0.005 A 
ATOM     13  C   UNL     1      -7.673  -2.066  -2.544  0.00  0.00    +0.005 A 
ATOM     14  C   UNL     1      -7.666  -2.049  -5.330  0.00  0.00    +0.000 A 
ATOM     15  C   UNL     1      -8.079  -3.197  -3.252  0.00  0.00    +0.000 A 
ATOM     16  C   UNL     1      -8.073  -3.189  -4.645  0.00  0.00    +0.000 A 
ENDBRANCH  10  11
ENDBRANCH   1  10
TORSDOF 2
ENDMDL
MODEL 8
REMARK VINA RESULT:    -4.146     21.982     22.691
REMARK INTER + INTRA:          -4.815
REMARK INTER:                  -4.675
REMARK INTRA:                  -0.141
REMARK UNBOUND:                -0.184
REMARK  Name = 1550473
REMARK  2 active torsions:
REMARK  status: ('A' for Active; 'I' for Inactive)
REMARK    1  A    between atoms: N_1  and  C_4
REMARK    2  A    between atoms: C_4  and  C_5
REMARK                            x       y       z     vdW  Elec       q    Type
REMARK                         _______ _______ _______ _____ _____    ______ ____
ROOT
ATOM      1  N   UNL     1      12.684  -2.752   5.760  0.00  0.00    -0.354 N 
ATOM      2  N   UNL     1      13.698  -4.217   4.280  0.00  0.00    -0.372 N 
ATOM      3  N   UNL     1      14.918  -2.461   5.113  0.00  0.00    -0.372 N 
ATOM      4  C   UNL     1      13.762  -3.132   5.061  0.00  0.00    +0.166 C 
ATOM      5  H   UNL     1      11.829  -3.286   5.654  0.00  0.00    +0.163 HD
ATOM      6  H   UNL     1      14.496  -4.530   3.744  0.00  0.00    +0.159 HD
ATOM      7  H   UNL     1      12.856  -4.776   4.212  0.00  0.00    +0.159 HD
ATOM      8  H   UNL     1      15.030  -1.630   5.678  0.00  0.00    +0.159 HD
ATOM      9  H   UNL     1      15.724  -2.751   4.574  0.00  0.00    +0.159 HD
ENDROOT
BRANCH   1  10
ATOM     10  C   UNL     1      12.665  -1.617   6.680  0.00  0.00    +0.151 C 
BRANCH  10  11
ATOM     11  C   UNL     1      12.198  -2.086   8.030  0.00  0.00    -0.028 A 
ATOM     12  C   UNL     1      12.596  -1.414   9.195  0.00  0.00    +0.005 A 
ATOM     13  C   UNL     1      11.354  -3.201   8.151  0.00  0.00    +0.005 A 
ATOM     14  C   UNL     1      12.138  -1.832  10.447  0.00  0.00    +0.000 A 
ATOM     15  C   UNL     1      10.900  -3.615   9.403  0.00  0.00    +0.000 A 
ATOM     16  C   UNL     1      11.290  -2.929  10.551  0.00  0.00    +0.000 A 
ENDBRANCH  10  11
ENDBRANCH   1  10
TORSDOF 2
ENDMDL
MODEL 9
REMARK VINA RESULT:    -4.141      7.235      8.298
REMARK INTER + INTRA:          -4.810
REMARK INTER:                  -4.632
REMARK INTRA:                  -0.178
REMARK UNBOUND:                -0.184
REMARK  Name = 1550473
REMARK  2 active torsions:
REMARK  status: ('A' for Active; 'I' for Inactive)
REMARK    1  A    between atoms: N_1  and  C_4
REMARK    2  A    between atoms: C_4  and  C_5
REMARK                            x       y       z     vdW  Elec       q    Type
REMARK                         _______ _______ _______ _____ _____    ______ ____
ROOT
ATOM      1  N   UNL     1      -6.448   4.443  -8.650  0.00  0.00    -0.354 N 
ATOM      2  N   UNL     1      -8.478   4.180  -9.733  0.00  0.00    -0.372 N 
ATOM      3  N   UNL     1      -6.549   3.621 -10.842  0.00  0.00    -0.372 N 
ATOM      4  C   UNL     1      -7.144   4.082  -9.737  0.00  0.00    +0.166 C 
ATOM      5  H   UNL     1      -6.955   4.814  -7.855  0.00  0.00    +0.163 HD
ATOM      6  H   UNL     1      -9.030   3.912 -10.537  0.00  0.00    +0.159 HD
ATOM      7  H   UNL     1      -8.986   4.507  -8.920  0.00  0.00    +0.159 HD
ATOM      8  H   UNL     1      -5.545   3.529 -10.912  0.00  0.00    +0.159 HD
ATOM      9  H   UNL     1      -7.084   3.359 -11.661  0.00  0.00    +0.159 HD
ENDROOT
BRANCH   1  10
ATOM     10  C   UNL     1      -4.996   4.325  -8.533  0.00  0.00    +0.151 C 
BRANCH  10  11
ATOM     11  C   UNL     1      -4.371   5.668  -8.793  0.00  0.00    -0.028 A 
ATOM     12  C   UNL     1      -3.425   5.827  -9.816  0.00  0.00    +0.005 A 
ATOM     13  C   UNL     1      -4.725   6.787  -8.024  0.00  0.00    +0.005 A 
ATOM     14  C   UNL     1      -2.867   7.081 -10.078  0.00  0.00    +0.000 A 
ATOM     15  C   UNL     1      -4.165   8.037  -8.288  0.00  0.00    +0.000 A 
ATOM     16  C   UNL     1      -3.238   8.184  -9.316  0.00  0.00    +0.000 A 
ENDBRANCH  10  11
ENDBRANCH   1  10
TORSDOF 2
ENDMDL
