MODEL 1
REMARK VINA RESULT:    -5.615      0.000      0.000
REMARK INTER + INTRA:          -6.421
REMARK INTER:                  -6.272
REMARK INTRA:                  -0.149
REMARK UNBOUND:                -0.149
REMARK  Name = 1550473
REMARK  2 active torsions:
REMARK  status: ('A' for Active; 'I' for Inactive)
REMARK    1  A    between atoms: N_1  and  C_4
REMARK    2  A    between atoms: C_4  and  C_5
REMARK                            x       y       z     vdW  Elec       q    Type
REMARK                         _______ _______ _______ _____ _____    ______ ____
ROOT
ATOM      1  N   UNL     1      -3.687  -2.262  -4.065  0.00  0.00    -0.354 N 
ATOM      2  N   UNL     1      -3.699  -1.474  -1.888  0.00  0.00    -0.372 N 
ATOM      3  N   UNL     1      -5.369  -2.896  -2.562  0.00  0.00    -0.372 N 
ATOM      4  C   UNL     1      -4.254  -2.217  -2.852  0.00  0.00    +0.166 C 
ATOM      5  H   UNL     1      -2.860  -1.700  -4.231  0.00  0.00    +0.163 HD
ATOM      6  H   UNL     1      -4.102  -1.423  -0.962  0.00  0.00    +0.159 HD
ATOM      7  H   UNL     1      -2.847  -0.950  -2.043  0.00  0.00    +0.159 HD
ATOM      8  H   UNL     1      -5.840  -3.471  -3.247  0.00  0.00    +0.159 HD
ATOM      9  H   UNL     1      -5.794  -2.849  -1.644  0.00  0.00    +0.159 HD
ENDROOT
BRANCH   1  10
ATOM     10  C   UNL     1      -4.182  -3.083  -5.169  0.00  0.00    +0.151 C 
BRANCH  10  11
ATOM     11  C   UNL     1      -4.506  -2.192  -6.337  0.00  0.00    -0.028 A 
ATOM     12  C   UNL     1      -3.921  -2.420  -7.591  0.00  0.00    +0.005 A 
ATOM     13  C   UNL     1      -5.403  -1.121  -6.197  0.00  0.00    +0.005 A 
ATOM     14  C   UNL     1      -4.245  -1.611  -8.683  0.00  0.00    +0.000 A 
ATOM     15  C   UNL     1      -5.723  -0.316  -7.289  0.00  0.00    +0.000 A 
ATOM     16  C   UNL     1      -5.146  -0.563  -8.533  0.00  0.00    +0.000 A 
ENDBRANCH  10  11
ENDBRANCH   1  10
TORSDOF 2
ENDMDL
MODEL 2
REMARK VINA RESULT:    -5.499     11.258     12.750
REMARK INTER + INTRA:          -6.292
REMARK INTER:                  -6.195
REMARK INTRA:                  -0.097
REMARK UNBOUND:                -0.149
REMARK  Name = 1550473
REMARK  2 active torsions:
REMARK  status: ('A' for Active; 'I' for Inactive)
REMARK    1  A    between atoms: N_1  and  C_4
REMARK    2  A    between atoms: C_4  and  C_5
REMARK                            x       y       z     vdW  Elec       q    Type
REMARK                         _______ _______ _______ _____ _____    ______ ____
ROOT
ATOM      1  N   UNL     1      -2.144  -6.551 -17.861  0.00  0.00    -0.354 N 
ATOM      2  N   UNL     1      -1.050  -7.833 -19.449  0.00  0.00    -0.372 N 
ATOM      3  N   UNL     1       0.133  -6.231 -18.311  0.00  0.00    -0.372 N 
ATOM      4  C   UNL     1      -1.025  -6.861 -18.529  0.00  0.00    +0.166 C 
ATOM      5  H   UNL     1      -2.997  -7.045 -18.094  0.00  0.00    +0.163 HD
ATOM      6  H   UNL     1      -0.221  -8.092 -19.967  0.00  0.00    +0.159 HD
ATOM      7  H   UNL     1      -1.894  -8.357 -19.648  0.00  0.00    +0.159 HD
ATOM      8  H   UNL     1       0.218  -5.484 -17.634  0.00  0.00    +0.159 HD
ATOM      9  H   UNL     1       0.971  -6.468 -18.827  0.00  0.00    +0.159 HD
ENDROOT
BRANCH   1  10
ATOM     10  C   UNL     1      -2.211  -5.545 -16.801  0.00  0.00    +0.151 C 
BRANCH  10  11
ATOM     11  C   UNL     1      -3.332  -5.896 -15.862  0.00  0.00    -0.028 A 
ATOM     12  C   UNL     1      -3.057  -6.385 -14.576  0.00  0.00    +0.005 A 
ATOM     13  C   UNL     1      -4.671  -5.736 -16.249  0.00  0.00    +0.005 A 
ATOM     14  C   UNL     1      -4.097  -6.682 -13.693  0.00  0.00    +0.000 A 
ATOM     15  C   UNL     1      -5.707  -6.035 -15.364  0.00  0.00    +0.000 A 
ATOM     16  C   UNL     1      -5.420  -6.505 -14.085  0.00  0.00    +0.000 A 
ENDBRANCH  10  11
ENDBRANCH   1  10
TORSDOF 2
ENDMDL
MODEL 3
REMARK VINA RESULT:    -5.495      9.735     11.216
REMARK INTER + INTRA:          -6.287
REMARK INTER:                  -6.196
REMARK INTRA:                  -0.091
REMARK UNBOUND:                -0.149
REMARK  Name = 1550473
REMARK  2 active torsions:
REMARK  status: ('A' for Active; 'I' for Inactive)
REMARK    1  A    between atoms: N_1  and  C_4
REMARK    2  A    between atoms: C_4  and  C_5
REMARK                            x       y       z     vdW  Elec       q    Type
REMARK                         _______ _______ _______ _____ _____    ______ ____
ROOT
ATOM      1  N   UNL     1      -3.272  -8.203   1.783  0.00  0.00    -0.354 N 
ATOM      2  N   UNL     1      -3.332  -8.527  -0.510  0.00  0.00    -0.372 N 
ATOM      3  N   UNL     1      -4.042 -10.218   0.868  0.00  0.00    -0.372 N 
ATOM      4  C   UNL     1      -3.549  -8.983   0.729  0.00  0.00    +0.166 C 
ATOM      5  H   UNL     1      -2.872  -7.288   1.612  0.00  0.00    +0.163 HD
ATOM      6  H   UNL     1      -3.535  -9.091  -1.324  0.00  0.00    +0.159 HD
ATOM      7  H   UNL     1      -2.975  -7.594  -0.679  0.00  0.00    +0.159 HD
ATOM      8  H   UNL     1      -4.223 -10.624   1.776  0.00  0.00    +0.159 HD
ATOM      9  H   UNL     1      -4.241 -10.803   0.065  0.00  0.00    +0.159 HD
ENDROOT
BRANCH   1  10
ATOM     10  C   UNL     1      -3.522  -8.585   3.171  0.00  0.00    +0.151 C 
BRANCH  10  11
ATOM     11  C   UNL     1      -4.786  -7.920   3.644  0.00  0.00    -0.028 A 
ATOM     12  C   UNL     1      -6.033  -8.333   3.154  0.00  0.00    +0.005 A 
ATOM     13  C   UNL     1      -4.742  -6.880   4.585  0.00  0.00    +0.005 A 
ATOM     14  C   UNL     1      -7.209  -7.736   3.615  0.00  0.00    +0.000 A 
ATOM     15  C   UNL     1      -5.918  -6.286   5.042  0.00  0.00    +0.000 A 
ATOM     16  C   UNL     1      -7.152  -6.716   4.559  0.00  0.00    +0.000 A 
ENDBRANCH  10  11
ENDBRANCH   1  10
TORSDOF 2
ENDMDL
MODEL 4
REMARK VINA RESULT:    -5.483     10.183     11.130
REMARK INTER + INTRA:          -6.274
REMARK INTER:                  -6.124
REMARK INTRA:                  -0.150
REMARK UNBOUND:                -0.149
REMARK  Name = 1550473
REMARK  2 active torsions:
REMARK  status: ('A' for Active; 'I' for Inactive)
REMARK    1  A    between atoms: N_1  and  C_4
REMARK    2  A    between atoms: C_4  and  C_5
REMARK                            x       y       z     vdW  Elec       q    Type
REMARK                         _______ _______ _______ _____ _____    ______ ____
ROOT
ATOM      1  N   UNL     1      -1.646  -4.310 -16.114  0.00  0.00    -0.354 N 
ATOM      2  N   UNL     1      -1.028  -2.190 -15.418  0.00  0.00    -0.372 N 
ATOM      3  N   UNL     1      -2.984  -2.445 -16.589  0.00  0.00    -0.372 N 
ATOM      4  C   UNL     1      -1.893  -2.995 -16.046  0.00  0.00    +0.166 C 
ATOM      5  H   UNL     1      -0.786  -4.660 -15.709  0.00  0.00    +0.163 HD
ATOM      6  H   UNL     1      -1.189  -1.194 -15.347  0.00  0.00    +0.159 HD
ATOM      7  H   UNL     1      -0.192  -2.549 -14.973  0.00  0.00    +0.159 HD
ATOM      8  H   UNL     1      -3.673  -2.998 -17.083  0.00  0.00    +0.159 HD
ATOM      9  H   UNL     1      -3.157  -1.449 -16.539  0.00  0.00    +0.159 HD
ENDROOT
BRANCH   1  10
ATOM     10  C   UNL     1      -2.550  -5.280 -16.729  0.00  0.00    +0.151 C 
BRANCH  10  11
ATOM     11  C   UNL     1      -3.540  -5.751 -15.699  0.00  0.00    -0.028 A 
ATOM     12  C   UNL     1      -4.918  -5.675 -15.950  0.00  0.00    +0.005 A 
ATOM     13  C   UNL     1      -3.106  -6.279 -14.474  0.00  0.00    +0.005 A 
ATOM     14  C   UNL     1      -5.837  -6.140 -15.006  0.00  0.00    +0.000 A 
ATOM     15  C   UNL     1      -4.027  -6.741 -13.534  0.00  0.00    +0.000 A 
ATOM     16  C   UNL     1      -5.392  -6.674 -13.801  0.00  0.00    +0.000 A 
ENDBRANCH  10  11
ENDBRANCH   1  10
TORSDOF 2
ENDMDL
MODEL 5
REMARK VINA RESULT:    -5.452      8.071     10.508
REMARK INTER + INTRA:          -6.239
REMARK INTER:                  -6.074
REMARK INTRA:                  -0.165
REMARK UNBOUND:                -0.149
REMARK  Name = 1550473
REMARK  2 active torsions:
REMARK  status: ('A' for Active; 'I' for Inactive)
REMARK    1  A    between atoms: N_1  and  C_4
REMARK    2  A    between atoms: C_4  and  C_5
REMARK                            x       y       z     vdW  Elec       q    Type
REMARK                         _______ _______ _______ _____ _____    ______ ____
ROOT
ATOM      1  N   UNL     1      -3.197  -8.412   0.570  0.00  0.00    -0.354 N 
ATOM      2  N   UNL     1      -1.744  -7.084  -0.651  0.00  0.00    -0.372 N 
ATOM      3  N   UNL     1      -3.998  -6.920  -1.050  0.00  0.00    -0.372 N 
ATOM      4  C   UNL     1      -2.991  -7.480  -0.370  0.00  0.00    +0.166 C 
ATOM      5  H   UNL     1      -2.389  -8.820   1.028  0.00  0.00    +0.163 HD
ATOM      6  H   UNL     1      -1.559  -6.380  -1.352  0.00  0.00    +0.159 HD
ATOM      7  H   UNL     1      -0.942  -7.460  -0.159  0.00  0.00    +0.159 HD
ATOM      8  H   UNL     1      -4.962  -7.180  -0.890  0.00  0.00    +0.159 HD
ATOM      9  H   UNL     1      -3.831  -6.222  -1.764  0.00  0.00    +0.159 HD
ENDROOT
BRANCH   1  10
ATOM     10  C   UNL     1      -4.519  -8.875   0.988  0.00  0.00    +0.151 C 
BRANCH  10  11
ATOM     11  C   UNL     1      -4.848  -8.274   2.327  0.00  0.00    -0.028 A 
ATOM     12  C   UNL     1      -3.902  -8.280   3.362  0.00  0.00    +0.005 A 
ATOM     13  C   UNL     1      -6.103  -7.693   2.565  0.00  0.00    +0.005 A 
ATOM     14  C   UNL     1      -4.196  -7.696   4.596  0.00  0.00    +0.000 A 
ATOM     15  C   UNL     1      -6.394  -7.111   3.799  0.00  0.00    +0.000 A 
ATOM     16  C   UNL     1      -5.439  -7.111   4.813  0.00  0.00    +0.000 A 
ENDBRANCH  10  11
ENDBRANCH   1  10
TORSDOF 2
ENDMDL
MODEL 6
REMARK VINA RESULT:    -5.450      1.149      1.863
REMARK INTER + INTRA:          -6.237
REMARK INTER:                  -6.128
REMARK INTRA:                  -0.109
REMARK UNBOUND:                -0.149
REMARK  Name = 1550473
REMARK  2 active torsions:
REMARK  status: ('A' for Active; 'I' for Inactive)
REMARK    1  A    between atoms: N_1  and  C_4
REMARK    2  A    between atoms: C_4  and  C_5
REMARK                            x       y       z     vdW  Elec       q    Type
REMARK                         _______ _______ _______ _____ _____    ______ ____
ROOT
ATOM      1  N   UNL     1      -3.465  -2.082  -3.218  0.00  0.00    -0.354 N 
ATOM      2  N   UNL     1      -2.121  -2.135  -1.333  0.00  0.00    -0.372 N 
ATOM      3  N   UNL     1      -4.299  -2.837  -1.163  0.00  0.00    -0.372 N 
ATOM      4  C   UNL     1      -3.307  -2.352  -1.916  0.00  0.00    +0.166 C 
ATOM      5  H   UNL     1      -2.682  -1.687  -3.727  0.00  0.00    +0.163 HD
ATOM      6  H   UNL     1      -1.971  -2.333  -0.353  0.00  0.00    +0.159 HD
ATOM      7  H   UNL     1      -1.327  -1.784  -1.854  0.00  0.00    +0.159 HD
ATOM      8  H   UNL     1      -5.220  -3.017  -1.541  0.00  0.00    +0.159 HD
ATOM      9  H   UNL     1      -4.171  -3.030  -0.177  0.00  0.00    +0.159 HD
ENDROOT
BRANCH   1  10
ATOM     10  C   UNL     1      -4.699  -2.332  -3.961  0.00  0.00    +0.151 C 
BRANCH  10  11
ATOM     11  C   UNL     1      -4.502  -1.923  -5.394  0.00  0.00    -0.028 A 
ATOM     12  C   UNL     1      -5.492  -1.195  -6.070  0.00  0.00    +0.005 A 
ATOM     13  C   UNL     1      -3.324  -2.255  -6.081  0.00  0.00    +0.005 A 
ATOM     14  C   UNL     1      -5.296  -0.788  -7.392  0.00  0.00    +0.000 A 
ATOM     15  C   UNL     1      -3.133  -1.848  -7.401  0.00  0.00    +0.000 A 
ATOM     16  C   UNL     1      -4.118  -1.113  -8.056  0.00  0.00    +0.000 A 
ENDBRANCH  10  11
ENDBRANCH   1  10
TORSDOF 2
ENDMDL
MODEL 7
REMARK VINA RESULT:    -5.448     14.534     15.345
REMARK INTER + INTRA:          -6.234
REMARK INTER:                  -6.058
REMARK INTRA:                  -0.176
REMARK UNBOUND:                -0.149
REMARK  Name = 1550473
REMARK  2 active torsions:
REMARK  status: ('A' for Active; 'I' for Inactive)
REMARK    1  A    between atoms: N_1  and  C_4
REMARK    2  A    between atoms: C_4  and  C_5
REMARK                            x       y       z     vdW  Elec       q    Type
REMARK                         _______ _______ _______ _____ _____    ______ ____
ROOT
ATOM      1  N   UNL     1      -1.949 -16.707  -7.059  0.00  0.00    -0.354 N 
ATOM      2  N   UNL     1      -1.128 -18.561  -5.940  0.00  0.00    -0.372 N 
ATOM      3  N   UNL     1       0.355 -17.013  -6.759  0.00  0.00    -0.372 N 
ATOM      4  C   UNL     1      -0.910 -17.414  -6.594  0.00  0.00    +0.166 C 
ATOM      5  H   UNL     1      -2.882 -17.079  -6.928  0.00  0.00    +0.163 HD
ATOM      6  H   UNL     1      -0.365 -19.115  -5.575  0.00  0.00    +0.159 HD
ATOM      7  H   UNL     1      -2.064 -18.908  -5.771  0.00  0.00    +0.159 HD
ATOM      8  H   UNL     1       0.587 -16.159  -7.248  0.00  0.00    +0.159 HD
ATOM      9  H   UNL     1       1.133 -17.559  -6.411  0.00  0.00    +0.159 HD
ENDROOT
BRANCH   1  10
ATOM     10  C   UNL     1      -1.823 -15.418  -7.736  0.00  0.00    +0.151 C 
BRANCH  10  11
ATOM     11  C   UNL     1      -1.872 -15.638  -9.223  0.00  0.00    -0.028 A 
ATOM     12  C   UNL     1      -2.984 -16.255  -9.815  0.00  0.00    +0.005 A 
ATOM     13  C   UNL     1      -0.813 -15.226 -10.046  0.00  0.00    +0.005 A 
ATOM     14  C   UNL     1      -3.043 -16.433 -11.200  0.00  0.00    +0.000 A 
ATOM     15  C   UNL     1      -0.876 -15.405 -11.428  0.00  0.00    +0.000 A 
ATOM     16  C   UNL     1      -1.992 -16.007 -12.005  0.00  0.00    +0.000 A 
ENDBRANCH  10  11
ENDBRANCH   1  10
TORSDOF 2
ENDMDL
MODEL 8
REMARK VINA RESULT:    -5.275     14.914     15.855
REMARK INTER + INTRA:          -6.041
REMARK INTER:                  -5.886
REMARK INTRA:                  -0.155
REMARK UNBOUND:                -0.149
REMARK  Name = 1550473
REMARK  2 active torsions:
REMARK  status: ('A' for Active; 'I' for Inactive)
REMARK    1  A    between atoms: N_1  and  C_4
REMARK    2  A    between atoms: C_4  and  C_5
REMARK                            x       y       z     vdW  Elec       q    Type
REMARK                         _______ _______ _______ _____ _____    ______ ____
ROOT
ATOM      1  N   UNL     1      -3.418 -16.652 -10.496  0.00  0.00    -0.354 N 
ATOM      2  N   UNL     1      -3.557 -16.592 -12.807  0.00  0.00    -0.372 N 
ATOM      3  N   UNL     1      -3.822 -14.641 -11.629  0.00  0.00    -0.372 N 
ATOM      4  C   UNL     1      -3.599 -15.960 -11.628  0.00  0.00    +0.166 C 
ATOM      5  H   UNL     1      -3.284 -17.655 -10.562  0.00  0.00    +0.163 HD
ATOM      6  H   UNL     1      -3.686 -16.095 -13.678  0.00  0.00    +0.159 HD
ATOM      7  H   UNL     1      -3.376 -17.586 -12.872  0.00  0.00    +0.159 HD
ATOM      8  H   UNL     1      -3.871 -14.106 -10.772  0.00  0.00    +0.159 HD
ATOM      9  H   UNL     1      -3.966 -14.128 -12.490  0.00  0.00    +0.159 HD
ENDROOT
BRANCH   1  10
ATOM     10  C   UNL     1      -3.392 -16.050  -9.164  0.00  0.00    +0.151 C 
BRANCH  10  11
ATOM     11  C   UNL     1      -2.038 -16.277  -8.550  0.00  0.00    -0.028 A 
ATOM     12  C   UNL     1      -0.902 -15.645  -9.077  0.00  0.00    +0.005 A 
ATOM     13  C   UNL     1      -1.885 -17.118  -7.437  0.00  0.00    +0.005 A 
ATOM     14  C   UNL     1       0.351 -15.831  -8.488  0.00  0.00    +0.000 A 
ATOM     15  C   UNL     1      -0.632 -17.302  -6.852  0.00  0.00    +0.000 A 
ATOM     16  C   UNL     1       0.485 -16.657  -7.377  0.00  0.00    +0.000 A 
ENDBRANCH  10  11
ENDBRANCH   1  10
TORSDOF 2
ENDMDL
MODEL 9
REMARK VINA RESULT:    -5.148      7.544      9.017
REMARK INTER + INTRA:          -5.899
REMARK INTER:                  -5.720
REMARK INTRA:                  -0.179
REMARK UNBOUND:                -0.149
REMARK  Name = 1550473
REMARK  2 active torsions:
REMARK  status: ('A' for Active; 'I' for Inactive)
REMARK    1  A    between atoms: N_1  and  C_4
REMARK    2  A    between atoms: C_4  and  C_5
REMARK                            x       y       z     vdW  Elec       q    Type
REMARK                         _______ _______ _______ _____ _____    ______ ____
ROOT
ATOM      1  N   UNL     1      -1.870  -4.978 -12.656  0.00  0.00    -0.354 N 
ATOM      2  N   UNL     1      -1.805  -3.434 -10.931  0.00  0.00    -0.372 N 
ATOM      3  N   UNL     1      -2.714  -5.504 -10.533  0.00  0.00    -0.372 N 
ATOM      4  C   UNL     1      -2.132  -4.651 -11.383  0.00  0.00    +0.166 C 
ATOM      5  H   UNL     1      -1.455  -4.277 -13.258  0.00  0.00    +0.163 HD
ATOM      6  H   UNL     1      -1.987  -3.160  -9.974  0.00  0.00    +0.159 HD
ATOM      7  H   UNL     1      -1.348  -2.751 -11.522  0.00  0.00    +0.159 HD
ATOM      8  H   UNL     1      -2.990  -6.435 -10.814  0.00  0.00    +0.159 HD
ATOM      9  H   UNL     1      -2.914  -5.244  -9.576  0.00  0.00    +0.159 HD
ENDROOT
BRANCH   1  10
ATOM     10  C   UNL     1      -2.137  -6.295 -13.233  0.00  0.00    +0.151 C 
BRANCH  10  11
ATOM     11  C   UNL     1      -3.370  -6.215 -14.089  0.00  0.00    -0.028 A 
ATOM     12  C   UNL     1      -3.281  -5.820 -15.431  0.00  0.00    +0.005 A 
ATOM     13  C   UNL     1      -4.631  -6.540 -13.565  0.00  0.00    +0.005 A 
ATOM     14  C   UNL     1      -4.422  -5.775 -16.236  0.00  0.00    +0.000 A 
ATOM     15  C   UNL     1      -5.769  -6.493 -14.371  0.00  0.00    +0.000 A 
ATOM     16  C   UNL     1      -5.663  -6.113 -15.707  0.00  0.00    +0.000 A 
ENDBRANCH  10  11
ENDBRANCH   1  10
TORSDOF 2
ENDMDL
