MODEL 1
REMARK VINA RESULT:    -4.878      0.000      0.000
REMARK INTER + INTRA:          -5.621
REMARK INTER:                  -5.448
REMARK INTRA:                  -0.173
REMARK UNBOUND:                -0.173
REMARK  Name = 1550473
REMARK  2 active torsions:
REMARK  status: ('A' for Active; 'I' for Inactive)
REMARK    1  A    between atoms: N_1  and  C_4
REMARK    2  A    between atoms: C_4  and  C_5
REMARK                            x       y       z     vdW  Elec       q    Type
REMARK                         _______ _______ _______ _____ _____    ______ ____
ROOT
ATOM      1  N   UNL     1      -8.335   3.536 -21.710  0.00  0.00    -0.354 N 
ATOM      2  N   UNL     1      -8.083   2.100 -23.510  0.00  0.00    -0.372 N 
ATOM      3  N   UNL     1      -6.801   1.766 -21.636  0.00  0.00    -0.372 N 
ATOM      4  C   UNL     1      -7.739   2.476 -22.272  0.00  0.00    +0.166 C 
ATOM      5  H   UNL     1      -9.017   4.051 -22.256  0.00  0.00    +0.163 HD
ATOM      6  H   UNL     1      -7.653   1.302 -23.958  0.00  0.00    +0.159 HD
ATOM      7  H   UNL     1      -8.797   2.588 -24.036  0.00  0.00    +0.159 HD
ATOM      8  H   UNL     1      -6.493   2.002 -20.702  0.00  0.00    +0.159 HD
ATOM      9  H   UNL     1      -6.351   0.972 -22.073  0.00  0.00    +0.159 HD
ENDROOT
BRANCH   1  10
ATOM     10  C   UNL     1      -8.072   3.996 -20.348  0.00  0.00    +0.151 C 
BRANCH  10  11
ATOM     11  C   UNL     1      -7.071   5.117 -20.392  0.00  0.00    -0.028 A 
ATOM     12  C   UNL     1      -7.464   6.407 -20.775  0.00  0.00    +0.005 A 
ATOM     13  C   UNL     1      -5.729   4.896 -20.046  0.00  0.00    +0.005 A 
ATOM     14  C   UNL     1      -6.540   7.456 -20.787  0.00  0.00    +0.000 A 
ATOM     15  C   UNL     1      -4.810   5.945 -20.060  0.00  0.00    +0.000 A 
ATOM     16  C   UNL     1      -5.216   7.225 -20.429  0.00  0.00    +0.000 A 
ENDBRANCH  10  11
ENDBRANCH   1  10
TORSDOF 2
ENDMDL
MODEL 2
REMARK VINA RESULT:    -4.867     17.757     19.057
REMARK INTER + INTRA:          -5.609
REMARK INTER:                  -5.433
REMARK INTRA:                  -0.176
REMARK UNBOUND:                -0.173
REMARK  Name = 1550473
REMARK  2 active torsions:
REMARK  status: ('A' for Active; 'I' for Inactive)
REMARK    1  A    between atoms: N_1  and  C_4
REMARK    2  A    between atoms: C_4  and  C_5
REMARK                            x       y       z     vdW  Elec       q    Type
REMARK                         _______ _______ _______ _____ _____    ______ ____
ROOT
ATOM      1  N   UNL     1       5.594  -8.879 -11.914  0.00  0.00    -0.354 N 
ATOM      2  N   UNL     1       6.808  -8.524  -9.974  0.00  0.00    -0.372 N 
ATOM      3  N   UNL     1       7.418  -7.407 -11.884  0.00  0.00    -0.372 N 
ATOM      4  C   UNL     1       6.600  -8.271 -11.272  0.00  0.00    +0.166 C 
ATOM      5  H   UNL     1       5.029  -9.546 -11.401  0.00  0.00    +0.163 HD
ATOM      6  H   UNL     1       7.557  -8.077  -9.462  0.00  0.00    +0.159 HD
ATOM      7  H   UNL     1       6.213  -9.156  -9.453  0.00  0.00    +0.159 HD
ATOM      8  H   UNL     1       7.318  -7.178 -12.864  0.00  0.00    +0.159 HD
ATOM      9  H   UNL     1       8.180  -6.959 -11.391  0.00  0.00    +0.159 HD
ENDROOT
BRANCH   1  10
ATOM     10  C   UNL     1       5.250  -8.633 -13.313  0.00  0.00    +0.151 C 
BRANCH  10  11
ATOM     11  C   UNL     1       4.121  -7.641 -13.374  0.00  0.00    -0.028 A 
ATOM     12  C   UNL     1       2.967  -7.827 -12.599  0.00  0.00    +0.005 A 
ATOM     13  C   UNL     1       4.203  -6.509 -14.200  0.00  0.00    +0.005 A 
ATOM     14  C   UNL     1       1.931  -6.891 -12.632  0.00  0.00    +0.000 A 
ATOM     15  C   UNL     1       3.166  -5.576 -14.230  0.00  0.00    +0.000 A 
ATOM     16  C   UNL     1       2.032  -5.766 -13.445  0.00  0.00    +0.000 A 
ENDBRANCH  10  11
ENDBRANCH   1  10
TORSDOF 2
ENDMDL
MODEL 3
REMARK VINA RESULT:    -4.767     42.078     43.247
REMARK INTER + INTRA:          -5.497
REMARK INTER:                  -5.346
REMARK INTRA:                  -0.151
REMARK UNBOUND:                -0.173
REMARK  Name = 1550473
REMARK  2 active torsions:
REMARK  status: ('A' for Active; 'I' for Inactive)
REMARK    1  A    between atoms: N_1  and  C_4
REMARK    2  A    between atoms: C_4  and  C_5
REMARK                            x       y       z     vdW  Elec       q    Type
REMARK                         _______ _______ _______ _____ _____    ______ ____
ROOT
ATOM      1  N   UNL     1      13.913  -5.131  14.910  0.00  0.00    -0.354 N 
ATOM      2  N   UNL     1      14.882  -6.153  13.071  0.00  0.00    -0.372 N 
ATOM      3  N   UNL     1      15.490  -6.844  15.173  0.00  0.00    -0.372 N 
ATOM      4  C   UNL     1      14.757  -6.037  14.399  0.00  0.00    +0.166 C 
ATOM      5  H   UNL     1      13.408  -4.528  14.270  0.00  0.00    +0.163 HD
ATOM      6  H   UNL     1      15.508  -6.830  12.656  0.00  0.00    +0.159 HD
ATOM      7  H   UNL     1      14.342  -5.581  12.433  0.00  0.00    +0.159 HD
ATOM      8  H   UNL     1      15.446  -6.803  16.182  0.00  0.00    +0.159 HD
ATOM      9  H   UNL     1      16.131  -7.521  14.776  0.00  0.00    +0.159 HD
ENDROOT
BRANCH   1  10
ATOM     10  C   UNL     1      13.663  -4.962  16.340  0.00  0.00    +0.151 C 
BRANCH  10  11
ATOM     11  C   UNL     1      12.233  -5.320  16.635  0.00  0.00    -0.028 A 
ATOM     12  C   UNL     1      11.864  -5.793  17.903  0.00  0.00    +0.005 A 
ATOM     13  C   UNL     1      11.240  -5.185  15.652  0.00  0.00    +0.005 A 
ATOM     14  C   UNL     1      10.531  -6.098  18.187  0.00  0.00    +0.000 A 
ATOM     15  C   UNL     1       9.910  -5.491  15.939  0.00  0.00    +0.000 A 
ATOM     16  C   UNL     1       9.556  -5.946  17.207  0.00  0.00    +0.000 A 
ENDBRANCH  10  11
ENDBRANCH   1  10
TORSDOF 2
ENDMDL
MODEL 4
REMARK VINA RESULT:    -4.766      3.375      4.618
REMARK INTER + INTRA:          -5.496
REMARK INTER:                  -5.392
REMARK INTRA:                  -0.104
REMARK UNBOUND:                -0.173
REMARK  Name = 1550473
REMARK  2 active torsions:
REMARK  status: ('A' for Active; 'I' for Inactive)
REMARK    1  A    between atoms: N_1  and  C_4
REMARK    2  A    between atoms: C_4  and  C_5
REMARK                            x       y       z     vdW  Elec       q    Type
REMARK                         _______ _______ _______ _____ _____    ______ ____
ROOT
ATOM      1  N   UNL     1      -8.942   3.714 -20.430  0.00  0.00    -0.354 N 
ATOM      2  N   UNL     1      -6.946   3.518 -21.587  0.00  0.00    -0.372 N 
ATOM      3  N   UNL     1      -8.297   1.675 -21.388  0.00  0.00    -0.372 N 
ATOM      4  C   UNL     1      -8.076   2.967 -21.128  0.00  0.00    +0.166 C 
ATOM      5  H   UNL     1      -8.702   4.680 -20.241  0.00  0.00    +0.163 HD
ATOM      6  H   UNL     1      -6.274   2.980 -22.119  0.00  0.00    +0.159 HD
ATOM      7  H   UNL     1      -6.729   4.496 -21.436  0.00  0.00    +0.159 HD
ATOM      8  H   UNL     1      -9.128   1.198 -21.064  0.00  0.00    +0.159 HD
ATOM      9  H   UNL     1      -7.632   1.117 -21.908  0.00  0.00    +0.159 HD
ENDROOT
BRANCH   1  10
ATOM     10  C   UNL     1     -10.226   3.225 -19.931  0.00  0.00    +0.151 C 
BRANCH  10  11
ATOM     11  C   UNL     1     -10.566   3.948 -18.657  0.00  0.00    -0.028 A 
ATOM     12  C   UNL     1     -10.681   5.345 -18.640  0.00  0.00    +0.005 A 
ATOM     13  C   UNL     1     -10.779   3.240 -17.464  0.00  0.00    +0.005 A 
ATOM     14  C   UNL     1     -11.026   6.015 -17.464  0.00  0.00    +0.000 A 
ATOM     15  C   UNL     1     -11.122   3.912 -16.291  0.00  0.00    +0.000 A 
ATOM     16  C   UNL     1     -11.248   5.299 -16.292  0.00  0.00    +0.000 A 
ENDBRANCH  10  11
ENDBRANCH   1  10
TORSDOF 2
ENDMDL
MODEL 5
REMARK VINA RESULT:    -4.728     18.955     20.293
REMARK INTER + INTRA:          -5.453
REMARK INTER:                  -5.287
REMARK INTRA:                  -0.166
REMARK UNBOUND:                -0.173
REMARK  Name = 1550473
REMARK  2 active torsions:
REMARK  status: ('A' for Active; 'I' for Inactive)
REMARK    1  A    between atoms: N_1  and  C_4
REMARK    2  A    between atoms: C_4  and  C_5
REMARK                            x       y       z     vdW  Elec       q    Type
REMARK                         _______ _______ _______ _____ _____    ______ ____
ROOT
ATOM      1  N   UNL     1       6.328  -9.400 -11.418  0.00  0.00    -0.354 N 
ATOM      2  N   UNL     1       7.394  -8.757  -9.465  0.00  0.00    -0.372 N 
ATOM      3  N   UNL     1       7.793  -7.571 -11.388  0.00  0.00    -0.372 N 
ATOM      4  C   UNL     1       7.166  -8.578 -10.772  0.00  0.00    +0.166 C 
ATOM      5  H   UNL     1       5.908 -10.163 -10.900  0.00  0.00    +0.163 HD
ATOM      6  H   UNL     1       8.019  -8.150  -8.950  0.00  0.00    +0.159 HD
ATOM      7  H   UNL     1       6.938  -9.492  -8.940  0.00  0.00    +0.159 HD
ATOM      8  H   UNL     1       7.668  -7.386 -12.375  0.00  0.00    +0.159 HD
ATOM      9  H   UNL     1       8.430  -6.960 -10.893  0.00  0.00    +0.159 HD
ENDROOT
BRANCH   1  10
ATOM     10  C   UNL     1       5.970  -9.259 -12.828  0.00  0.00    +0.151 C 
BRANCH  10  11
ATOM     11  C   UNL     1       4.520  -8.872 -12.930  0.00  0.00    -0.028 A 
ATOM     12  C   UNL     1       3.525  -9.857 -13.010  0.00  0.00    +0.005 A 
ATOM     13  C   UNL     1       4.135  -7.523 -12.941  0.00  0.00    +0.005 A 
ATOM     14  C   UNL     1       2.176  -9.499 -13.074  0.00  0.00    +0.000 A 
ATOM     15  C   UNL     1       2.787  -7.169 -13.007  0.00  0.00    +0.000 A 
ATOM     16  C   UNL     1       1.808  -8.158 -13.071  0.00  0.00    +0.000 A 
ENDBRANCH  10  11
ENDBRANCH   1  10
TORSDOF 2
ENDMDL
MODEL 6
REMARK VINA RESULT:    -4.417      9.377     10.705
REMARK INTER + INTRA:          -5.107
REMARK INTER:                  -4.994
REMARK INTRA:                  -0.113
REMARK UNBOUND:                -0.173
REMARK  Name = 1550473
REMARK  2 active torsions:
REMARK  status: ('A' for Active; 'I' for Inactive)
REMARK    1  A    between atoms: N_1  and  C_4
REMARK    2  A    between atoms: C_4  and  C_5
REMARK                            x       y       z     vdW  Elec       q    Type
REMARK                         _______ _______ _______ _____ _____    ______ ____
ROOT
ATOM      1  N   UNL     1      -1.728   3.092 -14.486  0.00  0.00    -0.354 N 
ATOM      2  N   UNL     1      -3.319   3.567 -16.100  0.00  0.00    -0.372 N 
ATOM      3  N   UNL     1      -3.317   4.782 -14.153  0.00  0.00    -0.372 N 
ATOM      4  C   UNL     1      -2.778   3.812 -14.901  0.00  0.00    +0.166 C 
ATOM      5  H   UNL     1      -1.385   2.351 -15.087  0.00  0.00    +0.163 HD
ATOM      6  H   UNL     1      -4.110   4.097 -16.441  0.00  0.00    +0.159 HD
ATOM      7  H   UNL     1      -2.946   2.857 -16.718  0.00  0.00    +0.159 HD
ATOM      8  H   UNL     1      -2.959   5.012 -13.236  0.00  0.00    +0.159 HD
ATOM      9  H   UNL     1      -4.116   5.315 -14.473  0.00  0.00    +0.159 HD
ENDROOT
BRANCH   1  10
ATOM     10  C   UNL     1      -1.032   3.315 -13.220  0.00  0.00    +0.151 C 
BRANCH  10  11
ATOM     11  C   UNL     1      -0.091   2.169 -12.968  0.00  0.00    -0.028 A 
ATOM     12  C   UNL     1       1.198   2.403 -12.467  0.00  0.00    +0.005 A 
ATOM     13  C   UNL     1      -0.484   0.847 -13.224  0.00  0.00    +0.005 A 
ATOM     14  C   UNL     1       2.062   1.337 -12.205  0.00  0.00    +0.000 A 
ATOM     15  C   UNL     1       0.382  -0.215 -12.962  0.00  0.00    +0.000 A 
ATOM     16  C   UNL     1       1.654   0.031 -12.450  0.00  0.00    +0.000 A 
ENDBRANCH  10  11
ENDBRANCH   1  10
TORSDOF 2
ENDMDL
MODEL 7
REMARK VINA RESULT:    -4.384     30.485     31.460
REMARK INTER + INTRA:          -5.069
REMARK INTER:                  -4.947
REMARK INTRA:                  -0.122
REMARK UNBOUND:                -0.173
REMARK  Name = 1550473
REMARK  2 active torsions:
REMARK  status: ('A' for Active; 'I' for Inactive)
REMARK    1  A    between atoms: N_1  and  C_4
REMARK    2  A    between atoms: C_4  and  C_5
REMARK                            x       y       z     vdW  Elec       q    Type
REMARK                         _______ _______ _______ _____ _____    ______ ____
ROOT
ATOM      1  N   UNL     1      -1.484  12.988   7.753  0.00  0.00    -0.354 N 
ATOM      2  N   UNL     1      -3.138  13.169   6.142  0.00  0.00    -0.372 N 
ATOM      3  N   UNL     1      -3.144  11.348   7.539  0.00  0.00    -0.372 N 
ATOM      4  C   UNL     1      -2.578  12.498   7.156  0.00  0.00    +0.166 C 
ATOM      5  H   UNL     1      -1.086  13.849   7.397  0.00  0.00    +0.163 HD
ATOM      6  H   UNL     1      -3.966  12.826   5.675  0.00  0.00    +0.159 HD
ATOM      7  H   UNL     1      -2.765  14.053   5.818  0.00  0.00    +0.159 HD
ATOM      8  H   UNL     1      -2.767  10.791   8.294  0.00  0.00    +0.159 HD
ATOM      9  H   UNL     1      -3.966  10.982   7.076  0.00  0.00    +0.159 HD
ENDROOT
BRANCH   1  10
ATOM     10  C   UNL     1      -0.829  12.363   8.901  0.00  0.00    +0.151 C 
BRANCH  10  11
ATOM     11  C   UNL     1       0.589  12.858   8.987  0.00  0.00    -0.028 A 
ATOM     12  C   UNL     1       1.548  12.144   9.720  0.00  0.00    +0.005 A 
ATOM     13  C   UNL     1       0.980  14.036   8.334  0.00  0.00    +0.005 A 
ATOM     14  C   UNL     1       2.872  12.588   9.776  0.00  0.00    +0.000 A 
ATOM     15  C   UNL     1       2.302  14.476   8.393  0.00  0.00    +0.000 A 
ATOM     16  C   UNL     1       3.248  13.750   9.112  0.00  0.00    +0.000 A 
ENDBRANCH  10  11
ENDBRANCH   1  10
TORSDOF 2
ENDMDL
MODEL 8
REMARK VINA RESULT:    -4.367      8.677      9.959
REMARK INTER + INTRA:          -5.051
REMARK INTER:                  -4.918
REMARK INTRA:                  -0.133
REMARK UNBOUND:                -0.173
REMARK  Name = 1550473
REMARK  2 active torsions:
REMARK  status: ('A' for Active; 'I' for Inactive)
REMARK    1  A    between atoms: N_1  and  C_4
REMARK    2  A    between atoms: C_4  and  C_5
REMARK                            x       y       z     vdW  Elec       q    Type
REMARK                         _______ _______ _______ _____ _____    ______ ____
ROOT
ATOM      1  N   UNL     1      -1.607   4.060 -15.172  0.00  0.00    -0.354 N 
ATOM      2  N   UNL     1      -1.899   4.007 -17.469  0.00  0.00    -0.372 N 
ATOM      3  N   UNL     1      -3.307   2.773 -16.143  0.00  0.00    -0.372 N 
ATOM      4  C   UNL     1      -2.271   3.612 -16.246  0.00  0.00    +0.166 C 
ATOM      5  H   UNL     1      -0.811   4.671 -15.319  0.00  0.00    +0.163 HD
ATOM      6  H   UNL     1      -2.383   3.689 -18.297  0.00  0.00    +0.159 HD
ATOM      7  H   UNL     1      -1.132   4.654 -17.610  0.00  0.00    +0.159 HD
ATOM      8  H   UNL     1      -3.634   2.433 -15.249  0.00  0.00    +0.159 HD
ATOM      9  H   UNL     1      -3.798   2.434 -16.961  0.00  0.00    +0.159 HD
ENDROOT
BRANCH   1  10
ATOM     10  C   UNL     1      -1.965   3.733 -13.793  0.00  0.00    +0.151 C 
BRANCH  10  11
ATOM     11  C   UNL     1      -0.770   3.138 -13.103  0.00  0.00    -0.028 A 
ATOM     12  C   UNL     1      -0.690   1.754 -12.884  0.00  0.00    +0.005 A 
ATOM     13  C   UNL     1       0.290   3.950 -12.670  0.00  0.00    +0.005 A 
ATOM     14  C   UNL     1       0.434   1.197 -12.270  0.00  0.00    +0.000 A 
ATOM     15  C   UNL     1       1.410   3.390 -12.056  0.00  0.00    +0.000 A 
ATOM     16  C   UNL     1       1.483   2.013 -11.858  0.00  0.00    +0.000 A 
ENDBRANCH  10  11
ENDBRANCH   1  10
TORSDOF 2
ENDMDL
MODEL 9
REMARK VINA RESULT:    -4.307      7.889      9.066
REMARK INTER + INTRA:          -4.984
REMARK INTER:                  -4.843
REMARK INTRA:                  -0.140
REMARK UNBOUND:                -0.173
REMARK  Name = 1550473
REMARK  2 active torsions:
REMARK  status: ('A' for Active; 'I' for Inactive)
REMARK    1  A    between atoms: N_1  and  C_4
REMARK    2  A    between atoms: C_4  and  C_5
REMARK                            x       y       z     vdW  Elec       q    Type
REMARK                         _______ _______ _______ _____ _____    ______ ____
ROOT
ATOM      1  N   UNL     1      -2.395   0.079 -16.720  0.00  0.00    -0.354 N 
ATOM      2  N   UNL     1      -3.200   0.475 -18.855  0.00  0.00    -0.372 N 
ATOM      3  N   UNL     1      -1.276  -0.749 -18.605  0.00  0.00    -0.372 N 
ATOM      4  C   UNL     1      -2.282  -0.069 -18.046  0.00  0.00    +0.166 C 
ATOM      5  H   UNL     1      -3.165   0.631 -16.360  0.00  0.00    +0.163 HD
ATOM      6  H   UNL     1      -3.144   0.377 -19.859  0.00  0.00    +0.159 HD
ATOM      7  H   UNL     1      -3.994   0.988 -18.490  0.00  0.00    +0.159 HD
ATOM      8  H   UNL     1      -0.547  -1.178 -18.050  0.00  0.00    +0.159 HD
ATOM      9  H   UNL     1      -1.195  -0.848 -19.609  0.00  0.00    +0.159 HD
ENDROOT
BRANCH   1  10
ATOM     10  C   UNL     1      -1.479  -0.519 -15.750  0.00  0.00    +0.151 C 
BRANCH  10  11
ATOM     11  C   UNL     1      -1.132   0.506 -14.705  0.00  0.00    -0.028 A 
ATOM     12  C   UNL     1      -0.500   0.122 -13.513  0.00  0.00    +0.005 A 
ATOM     13  C   UNL     1      -1.429   1.863 -14.903  0.00  0.00    +0.005 A 
ATOM     14  C   UNL     1      -0.151   1.077 -12.556  0.00  0.00    +0.000 A 
ATOM     15  C   UNL     1      -1.079   2.814 -13.944  0.00  0.00    +0.000 A 
ATOM     16  C   UNL     1      -0.438   2.420 -12.772  0.00  0.00    +0.000 A 
ENDBRANCH  10  11
ENDBRANCH   1  10
TORSDOF 2
ENDMDL
