MODEL 1
REMARK VINA RESULT:    -5.294      0.000      0.000
REMARK INTER + INTRA:          -6.051
REMARK INTER:                  -5.913
REMARK INTRA:                  -0.138
REMARK UNBOUND:                -0.138
REMARK  Name = 1550473
REMARK  2 active torsions:
REMARK  status: ('A' for Active; 'I' for Inactive)
REMARK    1  A    between atoms: N_1  and  C_4
REMARK    2  A    between atoms: C_4  and  C_5
REMARK                            x       y       z     vdW  Elec       q    Type
REMARK                         _______ _______ _______ _____ _____    ______ ____
ROOT
ATOM      1  N   UNL     1      -1.615   7.081  12.005  0.00  0.00    -0.354 N 
ATOM      2  N   UNL     1      -1.862   7.776   9.809  0.00  0.00    -0.372 N 
ATOM      3  N   UNL     1      -0.699   5.845  10.238  0.00  0.00    -0.372 N 
ATOM      4  C   UNL     1      -1.389   6.894  10.698  0.00  0.00    +0.166 C 
ATOM      5  H   UNL     1      -2.119   7.913  12.292  0.00  0.00    +0.163 HD
ATOM      6  H   UNL     1      -1.710   7.659   8.817  0.00  0.00    +0.159 HD
ATOM      7  H   UNL     1      -2.405   8.581  10.095  0.00  0.00    +0.159 HD
ATOM      8  H   UNL     1      -0.310   5.146  10.857  0.00  0.00    +0.159 HD
ATOM      9  H   UNL     1      -0.526   5.717   9.249  0.00  0.00    +0.159 HD
ENDROOT
BRANCH   1  10
ATOM     10  C   UNL     1      -1.189   6.152  13.050  0.00  0.00    +0.151 C 
BRANCH  10  11
ATOM     11  C   UNL     1      -0.434   6.913  14.105  0.00  0.00    -0.028 A 
ATOM     12  C   UNL     1      -0.357   6.424  15.417  0.00  0.00    +0.005 A 
ATOM     13  C   UNL     1       0.213   8.120  13.797  0.00  0.00    +0.005 A 
ATOM     14  C   UNL     1       0.370   7.114  16.390  0.00  0.00    +0.000 A 
ATOM     15  C   UNL     1       0.937   8.806  14.772  0.00  0.00    +0.000 A 
ATOM     16  C   UNL     1       1.017   8.302  16.067  0.00  0.00    +0.000 A 
ENDBRANCH  10  11
ENDBRANCH   1  10
TORSDOF 2
ENDMDL
MODEL 2
REMARK VINA RESULT:    -5.172      3.470      5.156
REMARK INTER + INTRA:          -5.914
REMARK INTER:                  -5.778
REMARK INTRA:                  -0.136
REMARK UNBOUND:                -0.138
REMARK  Name = 1550473
REMARK  2 active torsions:
REMARK  status: ('A' for Active; 'I' for Inactive)
REMARK    1  A    between atoms: N_1  and  C_4
REMARK    2  A    between atoms: C_4  and  C_5
REMARK                            x       y       z     vdW  Elec       q    Type
REMARK                         _______ _______ _______ _____ _____    ______ ____
ROOT
ATOM      1  N   UNL     1       0.633   7.447  16.604  0.00  0.00    -0.354 N 
ATOM      2  N   UNL     1       1.401   8.889  18.246  0.00  0.00    -0.372 N 
ATOM      3  N   UNL     1      -0.835   8.382  18.172  0.00  0.00    -0.372 N 
ATOM      4  C   UNL     1       0.392   8.230  17.664  0.00  0.00    +0.166 C 
ATOM      5  H   UNL     1       1.581   7.398  16.248  0.00  0.00    +0.163 HD
ATOM      6  H   UNL     1       1.250   9.484  19.049  0.00  0.00    +0.159 HD
ATOM      7  H   UNL     1       2.355   8.802  17.916  0.00  0.00    +0.159 HD
ATOM      8  H   UNL     1      -1.641   7.918  17.775  0.00  0.00    +0.159 HD
ATOM      9  H   UNL     1      -1.009   8.983  18.969  0.00  0.00    +0.159 HD
ENDROOT
BRANCH   1  10
ATOM     10  C   UNL     1      -0.387   6.645  15.930  0.00  0.00    +0.151 C 
BRANCH  10  11
ATOM     11  C   UNL     1      -0.382   6.976  14.463  0.00  0.00    -0.028 A 
ATOM     12  C   UNL     1      -1.023   6.135  13.542  0.00  0.00    +0.005 A 
ATOM     13  C   UNL     1       0.256   8.133  13.989  0.00  0.00    +0.005 A 
ATOM     14  C   UNL     1      -1.044   6.458  12.183  0.00  0.00    +0.000 A 
ATOM     15  C   UNL     1       0.233   8.451  12.632  0.00  0.00    +0.000 A 
ATOM     16  C   UNL     1      -0.420   7.614  11.729  0.00  0.00    +0.000 A 
ENDBRANCH  10  11
ENDBRANCH   1  10
TORSDOF 2
ENDMDL
MODEL 3
REMARK VINA RESULT:    -5.151      1.522      2.693
REMARK INTER + INTRA:          -5.891
REMARK INTER:                  -5.753
REMARK INTRA:                  -0.138
REMARK UNBOUND:                -0.138
REMARK  Name = 1550473
REMARK  2 active torsions:
REMARK  status: ('A' for Active; 'I' for Inactive)
REMARK    1  A    between atoms: N_1  and  C_4
REMARK    2  A    between atoms: C_4  and  C_5
REMARK                            x       y       z     vdW  Elec       q    Type
REMARK                         _______ _______ _______ _____ _____    ______ ____
ROOT
ATOM      1  N   UNL     1      -0.147   6.742   9.885  0.00  0.00    -0.354 N 
ATOM      2  N   UNL     1       0.942   7.467   7.974  0.00  0.00    -0.372 N 
ATOM      3  N   UNL     1      -1.254   8.051   8.288  0.00  0.00    -0.372 N 
ATOM      4  C   UNL     1      -0.163   7.416   8.727  0.00  0.00    +0.166 C 
ATOM      5  H   UNL     1       0.704   6.257  10.148  0.00  0.00    +0.163 HD
ATOM      6  H   UNL     1       0.961   7.971   7.097  0.00  0.00    +0.159 HD
ATOM      7  H   UNL     1       1.804   7.020   8.261  0.00  0.00    +0.159 HD
ATOM      8  H   UNL     1      -2.122   8.046   8.807  0.00  0.00    +0.159 HD
ATOM      9  H   UNL     1      -1.258   8.551   7.407  0.00  0.00    +0.159 HD
ENDROOT
BRANCH   1  10
ATOM     10  C   UNL     1      -1.280   6.671  10.805  0.00  0.00    +0.151 C 
BRANCH  10  11
ATOM     11  C   UNL     1      -0.804   6.982  12.197  0.00  0.00    -0.028 A 
ATOM     12  C   UNL     1      -0.058   8.142  12.452  0.00  0.00    +0.005 A 
ATOM     13  C   UNL     1      -1.100   6.123  13.267  0.00  0.00    +0.005 A 
ATOM     14  C   UNL     1       0.359   8.447  13.750  0.00  0.00    +0.000 A 
ATOM     15  C   UNL     1      -0.680   6.431  14.561  0.00  0.00    +0.000 A 
ATOM     16  C   UNL     1       0.047   7.594  14.803  0.00  0.00    +0.000 A 
ENDBRANCH  10  11
ENDBRANCH   1  10
TORSDOF 2
ENDMDL
MODEL 4
REMARK VINA RESULT:    -4.719     25.359     28.155
REMARK INTER + INTRA:          -5.409
REMARK INTER:                  -5.291
REMARK INTRA:                  -0.118
REMARK UNBOUND:                -0.138
REMARK  Name = 1550473
REMARK  2 active torsions:
REMARK  status: ('A' for Active; 'I' for Inactive)
REMARK    1  A    between atoms: N_1  and  C_4
REMARK    2  A    between atoms: C_4  and  C_5
REMARK                            x       y       z     vdW  Elec       q    Type
REMARK                         _______ _______ _______ _____ _____    ______ ____
ROOT
ATOM      1  N   UNL     1      -9.183  -6.154  -7.759  0.00  0.00    -0.354 N 
ATOM      2  N   UNL     1      -8.541  -4.455  -6.323  0.00  0.00    -0.372 N 
ATOM      3  N   UNL     1      -9.495  -3.905  -8.336  0.00  0.00    -0.372 N 
ATOM      4  C   UNL     1      -9.078  -4.847  -7.485  0.00  0.00    +0.166 C 
ATOM      5  H   UNL     1      -8.821  -6.819  -7.085  0.00  0.00    +0.163 HD
ATOM      6  H   UNL     1      -8.451  -3.475  -6.087  0.00  0.00    +0.159 HD
ATOM      7  H   UNL     1      -8.221  -5.122  -5.631  0.00  0.00    +0.159 HD
ATOM      8  H   UNL     1      -9.904  -4.135  -9.232  0.00  0.00    +0.159 HD
ATOM      9  H   UNL     1      -9.403  -2.919  -8.123  0.00  0.00    +0.159 HD
ENDROOT
BRANCH   1  10
ATOM     10  C   UNL     1      -9.802  -6.688  -8.972  0.00  0.00    +0.151 C 
BRANCH  10  11
ATOM     11  C   UNL     1      -9.430  -8.138  -9.115  0.00  0.00    -0.028 A 
ATOM     12  C   UNL     1      -9.408  -8.746 -10.379  0.00  0.00    +0.005 A 
ATOM     13  C   UNL     1      -9.093  -8.909  -7.992  0.00  0.00    +0.005 A 
ATOM     14  C   UNL     1      -9.034 -10.085 -10.516  0.00  0.00    +0.000 A 
ATOM     15  C   UNL     1      -8.721 -10.245  -8.133  0.00  0.00    +0.000 A 
ATOM     16  C   UNL     1      -8.690 -10.832  -9.395  0.00  0.00    +0.000 A 
ENDBRANCH  10  11
ENDBRANCH   1  10
TORSDOF 2
ENDMDL
MODEL 5
REMARK VINA RESULT:    -4.671     12.417     14.042
REMARK INTER + INTRA:          -5.355
REMARK INTER:                  -5.214
REMARK INTRA:                  -0.141
REMARK UNBOUND:                -0.138
REMARK  Name = 1550473
REMARK  2 active torsions:
REMARK  status: ('A' for Active; 'I' for Inactive)
REMARK    1  A    between atoms: N_1  and  C_4
REMARK    2  A    between atoms: C_4  and  C_5
REMARK                            x       y       z     vdW  Elec       q    Type
REMARK                         _______ _______ _______ _____ _____    ______ ____
ROOT
ATOM      1  N   UNL     1       8.484   5.172   2.296  0.00  0.00    -0.354 N 
ATOM      2  N   UNL     1       9.778   3.263   2.076  0.00  0.00    -0.372 N 
ATOM      3  N   UNL     1       9.074   4.351   0.182  0.00  0.00    -0.372 N 
ATOM      4  C   UNL     1       9.103   4.275   1.516  0.00  0.00    +0.166 C 
ATOM      5  H   UNL     1       8.519   5.042   3.300  0.00  0.00    +0.163 HD
ATOM      6  H   UNL     1      10.257   2.573   1.514  0.00  0.00    +0.159 HD
ATOM      7  H   UNL     1       9.849   3.162   3.081  0.00  0.00    +0.159 HD
ATOM      8  H   UNL     1       8.578   5.087  -0.303  0.00  0.00    +0.159 HD
ATOM      9  H   UNL     1       9.538   3.663  -0.399  0.00  0.00    +0.159 HD
ENDROOT
BRANCH   1  10
ATOM     10  C   UNL     1       7.768   6.341   1.787  0.00  0.00    +0.151 C 
BRANCH  10  11
ATOM     11  C   UNL     1       6.300   6.176   2.065  0.00  0.00    -0.028 A 
ATOM     12  C   UNL     1       5.584   5.110   1.502  0.00  0.00    +0.005 A 
ATOM     13  C   UNL     1       5.619   7.080   2.896  0.00  0.00    +0.005 A 
ATOM     14  C   UNL     1       4.226   4.940   1.784  0.00  0.00    +0.000 A 
ATOM     15  C   UNL     1       4.264   6.907   3.174  0.00  0.00    +0.000 A 
ATOM     16  C   UNL     1       3.568   5.835   2.620  0.00  0.00    +0.000 A 
ENDBRANCH  10  11
ENDBRANCH   1  10
TORSDOF 2
ENDMDL
MODEL 6
REMARK VINA RESULT:    -4.628     31.958     33.227
REMARK INTER + INTRA:          -5.307
REMARK INTER:                  -5.223
REMARK INTRA:                  -0.084
REMARK UNBOUND:                -0.138
REMARK  Name = 1550473
REMARK  2 active torsions:
REMARK  status: ('A' for Active; 'I' for Inactive)
REMARK    1  A    between atoms: N_1  and  C_4
REMARK    2  A    between atoms: C_4  and  C_5
REMARK                            x       y       z     vdW  Elec       q    Type
REMARK                         _______ _______ _______ _____ _____    ______ ____
ROOT
ATOM      1  N   UNL     1     -10.768  -4.147 -15.645  0.00  0.00    -0.354 N 
ATOM      2  N   UNL     1      -9.339  -5.920 -16.070  0.00  0.00    -0.372 N 
ATOM      3  N   UNL     1      -8.515  -4.061 -15.006  0.00  0.00    -0.372 N 
ATOM      4  C   UNL     1      -9.549  -4.696 -15.570  0.00  0.00    +0.166 C 
ATOM      5  H   UNL     1     -11.502  -4.668 -16.112  0.00  0.00    +0.163 HD
ATOM      6  H   UNL     1      -8.431  -6.361 -16.024  0.00  0.00    +0.159 HD
ATOM      7  H   UNL     1     -10.086  -6.456 -16.495  0.00  0.00    +0.159 HD
ATOM      8  H   UNL     1      -8.606  -3.133 -14.615  0.00  0.00    +0.159 HD
ATOM      9  H   UNL     1      -7.595  -4.481 -14.961  0.00  0.00    +0.159 HD
ENDROOT
BRANCH   1  10
ATOM     10  C   UNL     1     -11.114  -2.843 -15.084  0.00  0.00    +0.151 C 
BRANCH  10  11
ATOM     11  C   UNL     1     -11.339  -1.869 -16.207  0.00  0.00    -0.028 A 
ATOM     12  C   UNL     1     -10.435  -1.794 -17.276  0.00  0.00    +0.005 A 
ATOM     13  C   UNL     1     -12.459  -1.022 -16.211  0.00  0.00    +0.005 A 
ATOM     14  C   UNL     1     -10.660  -0.910 -18.335  0.00  0.00    +0.000 A 
ATOM     15  C   UNL     1     -12.679  -0.140 -17.269  0.00  0.00    +0.000 A 
ATOM     16  C   UNL     1     -11.781  -0.087 -18.332  0.00  0.00    +0.000 A 
ENDBRANCH  10  11
ENDBRANCH   1  10
TORSDOF 2
ENDMDL
MODEL 7
REMARK VINA RESULT:    -4.472     32.826     33.684
REMARK INTER + INTRA:          -5.133
REMARK INTER:                  -5.025
REMARK INTRA:                  -0.108
REMARK UNBOUND:                -0.138
REMARK  Name = 1550473
REMARK  2 active torsions:
REMARK  status: ('A' for Active; 'I' for Inactive)
REMARK    1  A    between atoms: N_1  and  C_4
REMARK    2  A    between atoms: C_4  and  C_5
REMARK                            x       y       z     vdW  Elec       q    Type
REMARK                         _______ _______ _______ _____ _____    ______ ____
ROOT
ATOM      1  N   UNL     1      -9.627  -4.412 -17.200  0.00  0.00    -0.354 N 
ATOM      2  N   UNL     1      -9.605  -6.594 -17.976  0.00  0.00    -0.372 N 
ATOM      3  N   UNL     1      -9.544  -6.221 -15.713  0.00  0.00    -0.372 N 
ATOM      4  C   UNL     1      -9.592  -5.729 -16.955  0.00  0.00    +0.166 C 
ATOM      5  H   UNL     1      -9.632  -4.102 -18.165  0.00  0.00    +0.163 HD
ATOM      6  H   UNL     1      -9.583  -7.593 -17.822  0.00  0.00    +0.159 HD
ATOM      7  H   UNL     1      -9.657  -6.283 -18.938  0.00  0.00    +0.159 HD
ATOM      8  H   UNL     1      -9.525  -5.620 -14.899  0.00  0.00    +0.159 HD
ATOM      9  H   UNL     1      -9.509  -7.217 -15.538  0.00  0.00    +0.159 HD
ENDROOT
BRANCH   1  10
ATOM     10  C   UNL     1      -9.670  -3.387 -16.159  0.00  0.00    +0.151 C 
BRANCH  10  11
ATOM     11  C   UNL     1     -10.579  -2.274 -16.602  0.00  0.00    -0.028 A 
ATOM     12  C   UNL     1     -11.680  -1.899 -15.818  0.00  0.00    +0.005 A 
ATOM     13  C   UNL     1     -10.342  -1.587 -17.802  0.00  0.00    +0.005 A 
ATOM     14  C   UNL     1     -12.508  -0.846 -16.214  0.00  0.00    +0.000 A 
ATOM     15  C   UNL     1     -11.172  -0.537 -18.195  0.00  0.00    +0.000 A 
ATOM     16  C   UNL     1     -12.253  -0.165 -17.400  0.00  0.00    +0.000 A 
ENDBRANCH  10  11
ENDBRANCH   1  10
TORSDOF 2
ENDMDL
MODEL 8
REMARK VINA RESULT:    -4.439      3.584      5.944
REMARK INTER + INTRA:          -5.096
REMARK INTER:                  -4.999
REMARK INTRA:                  -0.097
REMARK UNBOUND:                -0.138
REMARK  Name = 1550473
REMARK  2 active torsions:
REMARK  status: ('A' for Active; 'I' for Inactive)
REMARK    1  A    between atoms: N_1  and  C_4
REMARK    2  A    between atoms: C_4  and  C_5
REMARK                            x       y       z     vdW  Elec       q    Type
REMARK                         _______ _______ _______ _____ _____    ______ ____
ROOT
ATOM      1  N   UNL     1      -2.472   7.115  11.267  0.00  0.00    -0.354 N 
ATOM      2  N   UNL     1      -0.606   6.733  12.586  0.00  0.00    -0.372 N 
ATOM      3  N   UNL     1      -0.643   5.900  10.448  0.00  0.00    -0.372 N 
ATOM      4  C   UNL     1      -1.252   6.584  11.423  0.00  0.00    +0.166 C 
ATOM      5  H   UNL     1      -2.891   7.596  12.055  0.00  0.00    +0.163 HD
ATOM      6  H   UNL     1       0.317   6.345  12.731  0.00  0.00    +0.159 HD
ATOM      7  H   UNL     1      -1.009   7.253  13.356  0.00  0.00    +0.159 HD
ATOM      8  H   UNL     1      -1.079   5.747   9.548  0.00  0.00    +0.159 HD
ATOM      9  H   UNL     1       0.275   5.495  10.578  0.00  0.00    +0.159 HD
ENDROOT
BRANCH   1  10
ATOM     10  C   UNL     1      -3.237   7.057  10.023  0.00  0.00    +0.151 C 
BRANCH  10  11
ATOM     11  C   UNL     1      -4.263   8.156  10.025  0.00  0.00    -0.028 A 
ATOM     12  C   UNL     1      -5.335   8.128  10.929  0.00  0.00    +0.005 A 
ATOM     13  C   UNL     1      -4.165   9.232   9.129  0.00  0.00    +0.005 A 
ATOM     14  C   UNL     1      -6.271   9.165  10.951  0.00  0.00    +0.000 A 
ATOM     15  C   UNL     1      -5.102  10.264   9.154  0.00  0.00    +0.000 A 
ATOM     16  C   UNL     1      -6.154  10.232  10.067  0.00  0.00    +0.000 A 
ENDBRANCH  10  11
ENDBRANCH   1  10
TORSDOF 2
ENDMDL
MODEL 9
REMARK VINA RESULT:    -4.419     22.403     24.243
REMARK INTER + INTRA:          -5.073
REMARK INTER:                  -4.948
REMARK INTRA:                  -0.125
REMARK UNBOUND:                -0.138
REMARK  Name = 1550473
REMARK  2 active torsions:
REMARK  status: ('A' for Active; 'I' for Inactive)
REMARK    1  A    between atoms: N_1  and  C_4
REMARK    2  A    between atoms: C_4  and  C_5
REMARK                            x       y       z     vdW  Elec       q    Type
REMARK                         _______ _______ _______ _____ _____    ______ ____
ROOT
ATOM      1  N   UNL     1       0.270 -10.529  -0.997  0.00  0.00    -0.354 N 
ATOM      2  N   UNL     1       0.624 -11.937   0.808  0.00  0.00    -0.372 N 
ATOM      3  N   UNL     1      -1.212 -10.562   0.818  0.00  0.00    -0.372 N 
ATOM      4  C   UNL     1      -0.110 -10.999   0.199  0.00  0.00    +0.166 C 
ATOM      5  H   UNL     1       1.132 -10.880  -1.399  0.00  0.00    +0.163 HD
ATOM      6  H   UNL     1       0.360 -12.313   1.709  0.00  0.00    +0.159 HD
ATOM      7  H   UNL     1       1.460 -12.319   0.382  0.00  0.00    +0.159 HD
ATOM      8  H   UNL     1      -1.806  -9.850   0.414  0.00  0.00    +0.159 HD
ATOM      9  H   UNL     1      -1.487 -10.917   1.726  0.00  0.00    +0.159 HD
ENDROOT
BRANCH   1  10
ATOM     10  C   UNL     1      -0.488  -9.546  -1.768  0.00  0.00    +0.151 C 
BRANCH  10  11
ATOM     11  C   UNL     1      -0.330  -9.844  -3.234  0.00  0.00    -0.028 A 
ATOM     12  C   UNL     1       0.797 -10.536  -3.702  0.00  0.00    +0.005 A 
ATOM     13  C   UNL     1      -1.306  -9.443  -4.158  0.00  0.00    +0.005 A 
ATOM     14  C   UNL     1       0.930 -10.839  -5.059  0.00  0.00    +0.000 A 
ATOM     15  C   UNL     1      -1.169  -9.747  -5.513  0.00  0.00    +0.000 A 
ATOM     16  C   UNL     1      -0.053 -10.447  -5.962  0.00  0.00    +0.000 A 
ENDBRANCH  10  11
ENDBRANCH   1  10
TORSDOF 2
ENDMDL
