MODEL 1
REMARK VINA RESULT:    -4.877      0.000      0.000
REMARK INTER + INTRA:          -5.547
REMARK INTER:                  -5.448
REMARK INTRA:                  -0.100
REMARK UNBOUND:                -0.100
REMARK  Name = 1550473
REMARK  2 active torsions:
REMARK  status: ('A' for Active; 'I' for Inactive)
REMARK    1  A    between atoms: N_1  and  C_4
REMARK    2  A    between atoms: C_4  and  C_5
REMARK                            x       y       z     vdW  Elec       q    Type
REMARK                         _______ _______ _______ _____ _____    ______ ____
ROOT
ATOM      1  N   UNL     1      -8.472 -14.249 -17.816  0.00  0.00    -0.354 N 
ATOM      2  N   UNL     1      -8.000 -15.347 -15.833  0.00  0.00    -0.372 N 
ATOM      3  N   UNL     1      -9.335 -16.384 -17.385  0.00  0.00    -0.372 N 
ATOM      4  C   UNL     1      -8.607 -15.321 -17.025  0.00  0.00    +0.166 C 
ATOM      5  H   UNL     1      -7.931 -13.463 -17.473  0.00  0.00    +0.163 HD
ATOM      6  H   UNL     1      -8.081 -16.144 -15.216  0.00  0.00    +0.159 HD
ATOM      7  H   UNL     1      -7.422 -14.580 -15.512  0.00  0.00    +0.159 HD
ATOM      8  H   UNL     1      -9.823 -16.424 -18.269  0.00  0.00    +0.159 HD
ATOM      9  H   UNL     1      -9.437 -17.186 -16.776  0.00  0.00    +0.159 HD
ENDROOT
BRANCH   1  10
ATOM     10  C   UNL     1      -9.048 -14.142 -19.156  0.00  0.00    +0.151 C 
BRANCH  10  11
ATOM     11  C   UNL     1      -8.767 -12.770 -19.704  0.00  0.00    -0.028 A 
ATOM     12  C   UNL     1      -7.447 -12.319 -19.850  0.00  0.00    +0.005 A 
ATOM     13  C   UNL     1      -9.816 -11.920 -20.085  0.00  0.00    +0.005 A 
ATOM     14  C   UNL     1      -7.185 -11.056 -20.387  0.00  0.00    +0.000 A 
ATOM     15  C   UNL     1      -9.550 -10.660 -20.620  0.00  0.00    +0.000 A 
ATOM     16  C   UNL     1      -8.234 -10.229 -20.773  0.00  0.00    +0.000 A 
ENDBRANCH  10  11
ENDBRANCH   1  10
TORSDOF 2
ENDMDL
MODEL 2
REMARK VINA RESULT:    -4.762     30.003     31.065
REMARK INTER + INTRA:          -5.418
REMARK INTER:                  -5.288
REMARK INTRA:                  -0.130
REMARK UNBOUND:                -0.100
REMARK  Name = 1550473
REMARK  2 active torsions:
REMARK  status: ('A' for Active; 'I' for Inactive)
REMARK    1  A    between atoms: N_1  and  C_4
REMARK    2  A    between atoms: C_4  and  C_5
REMARK                            x       y       z     vdW  Elec       q    Type
REMARK                         _______ _______ _______ _____ _____    ______ ____
ROOT
ATOM      1  N   UNL     1     -11.225   2.173   7.114  0.00  0.00    -0.354 N 
ATOM      2  N   UNL     1     -10.043   4.165   7.141  0.00  0.00    -0.372 N 
ATOM      3  N   UNL     1     -12.235   4.185   6.464  0.00  0.00    -0.372 N 
ATOM      4  C   UNL     1     -11.177   3.496   6.905  0.00  0.00    +0.166 C 
ATOM      5  H   UNL     1     -10.380   1.704   7.420  0.00  0.00    +0.163 HD
ATOM      6  H   UNL     1      -9.978   5.163   6.996  0.00  0.00    +0.159 HD
ATOM      7  H   UNL     1      -9.213   3.700   7.491  0.00  0.00    +0.159 HD
ATOM      8  H   UNL     1     -13.119   3.738   6.261  0.00  0.00    +0.159 HD
ATOM      9  H   UNL     1     -12.186   5.183   6.301  0.00  0.00    +0.159 HD
ENDROOT
BRANCH   1  10
ATOM     10  C   UNL     1     -12.427   1.360   6.939  0.00  0.00    +0.151 C 
BRANCH  10  11
ATOM     11  C   UNL     1     -12.445   0.278   7.983  0.00  0.00    -0.028 A 
ATOM     12  C   UNL     1     -12.949  -0.995   7.681  0.00  0.00    +0.005 A 
ATOM     13  C   UNL     1     -11.953   0.519   9.276  0.00  0.00    +0.005 A 
ATOM     14  C   UNL     1     -12.939  -2.009   8.642  0.00  0.00    +0.000 A 
ATOM     15  C   UNL     1     -11.945  -0.496  10.232  0.00  0.00    +0.000 A 
ATOM     16  C   UNL     1     -12.435  -1.760   9.915  0.00  0.00    +0.000 A 
ENDBRANCH  10  11
ENDBRANCH   1  10
TORSDOF 2
ENDMDL
MODEL 3
REMARK VINA RESULT:    -4.639     32.700     33.434
REMARK INTER + INTRA:          -5.281
REMARK INTER:                  -5.151
REMARK INTRA:                  -0.130
REMARK UNBOUND:                -0.100
REMARK  Name = 1550473
REMARK  2 active torsions:
REMARK  status: ('A' for Active; 'I' for Inactive)
REMARK    1  A    between atoms: N_1  and  C_4
REMARK    2  A    between atoms: C_4  and  C_5
REMARK                            x       y       z     vdW  Elec       q    Type
REMARK                         _______ _______ _______ _____ _____    ______ ____
ROOT
ATOM      1  N   UNL     1     -12.344   3.523   8.105  0.00  0.00    -0.354 N 
ATOM      2  N   UNL     1     -12.319   3.441   5.791  0.00  0.00    -0.372 N 
ATOM      3  N   UNL     1     -11.583   1.618   6.973  0.00  0.00    -0.372 N 
ATOM      4  C   UNL     1     -12.081   2.859   6.972  0.00  0.00    +0.166 C 
ATOM      5  H   UNL     1     -12.693   4.472   8.037  0.00  0.00    +0.163 HD
ATOM      6  H   UNL     1     -12.133   2.964   4.919  0.00  0.00    +0.159 HD
ATOM      7  H   UNL     1     -12.710   4.373   5.725  0.00  0.00    +0.159 HD
ATOM      8  H   UNL     1     -11.375   1.124   7.831  0.00  0.00    +0.159 HD
ATOM      9  H   UNL     1     -11.379   1.127   6.111  0.00  0.00    +0.159 HD
ENDROOT
BRANCH   1  10
ATOM     10  C   UNL     1     -12.172   2.959   9.443  0.00  0.00    +0.151 C 
BRANCH  10  11
ATOM     11  C   UNL     1     -11.349   3.905  10.273  0.00  0.00    -0.028 A 
ATOM     12  C   UNL     1      -9.958   3.749  10.360  0.00  0.00    +0.005 A 
ATOM     13  C   UNL     1     -11.953   4.963  10.969  0.00  0.00    +0.005 A 
ATOM     14  C   UNL     1      -9.189   4.646  11.107  0.00  0.00    +0.000 A 
ATOM     15  C   UNL     1     -11.183   5.855  11.714  0.00  0.00    +0.000 A 
ATOM     16  C   UNL     1      -9.801   5.698  11.780  0.00  0.00    +0.000 A 
ENDBRANCH  10  11
ENDBRANCH   1  10
TORSDOF 2
ENDMDL
MODEL 4
REMARK VINA RESULT:    -4.567     13.406     14.613
REMARK INTER + INTRA:          -5.200
REMARK INTER:                  -5.024
REMARK INTRA:                  -0.176
REMARK UNBOUND:                -0.100
REMARK  Name = 1550473
REMARK  2 active torsions:
REMARK  status: ('A' for Active; 'I' for Inactive)
REMARK    1  A    between atoms: N_1  and  C_4
REMARK    2  A    between atoms: C_4  and  C_5
REMARK                            x       y       z     vdW  Elec       q    Type
REMARK                         _______ _______ _______ _____ _____    ______ ____
ROOT
ATOM      1  N   UNL     1      -5.075 -19.814  -8.023  0.00  0.00    -0.354 N 
ATOM      2  N   UNL     1      -4.447 -17.856  -6.957  0.00  0.00    -0.372 N 
ATOM      3  N   UNL     1      -4.146 -19.856  -5.872  0.00  0.00    -0.372 N 
ATOM      4  C   UNL     1      -4.560 -19.190  -6.956  0.00  0.00    +0.166 C 
ATOM      5  H   UNL     1      -5.399 -19.250  -8.801  0.00  0.00    +0.163 HD
ATOM      6  H   UNL     1      -4.058 -17.358  -6.168  0.00  0.00    +0.159 HD
ATOM      7  H   UNL     1      -4.728 -17.298  -7.754  0.00  0.00    +0.159 HD
ATOM      8  H   UNL     1      -4.210 -20.863  -5.806  0.00  0.00    +0.159 HD
ATOM      9  H   UNL     1      -3.765 -19.374  -5.068  0.00  0.00    +0.159 HD
ENDROOT
BRANCH   1  10
ATOM     10  C   UNL     1      -5.192 -21.266  -8.144  0.00  0.00    +0.151 C 
BRANCH  10  11
ATOM     11  C   UNL     1      -6.636 -21.657  -7.989  0.00  0.00    -0.028 A 
ATOM     12  C   UNL     1      -7.530 -21.518  -9.061  0.00  0.00    +0.005 A 
ATOM     13  C   UNL     1      -7.115 -22.173  -6.775  0.00  0.00    +0.005 A 
ATOM     14  C   UNL     1      -8.865 -21.909  -8.927  0.00  0.00    +0.000 A 
ATOM     15  C   UNL     1      -8.448 -22.561  -6.645  0.00  0.00    +0.000 A 
ATOM     16  C   UNL     1      -9.322 -22.432  -7.722  0.00  0.00    +0.000 A 
ENDBRANCH  10  11
ENDBRANCH   1  10
TORSDOF 2
ENDMDL
MODEL 5
REMARK VINA RESULT:    -4.455     32.775     33.901
REMARK INTER + INTRA:          -5.076
REMARK INTER:                  -4.921
REMARK INTRA:                  -0.155
REMARK UNBOUND:                -0.100
REMARK  Name = 1550473
REMARK  2 active torsions:
REMARK  status: ('A' for Active; 'I' for Inactive)
REMARK    1  A    between atoms: N_1  and  C_4
REMARK    2  A    between atoms: C_4  and  C_5
REMARK                            x       y       z     vdW  Elec       q    Type
REMARK                         _______ _______ _______ _____ _____    ______ ____
ROOT
ATOM      1  N   UNL     1      18.314  -0.024  -0.382  0.00  0.00    -0.354 N 
ATOM      2  N   UNL     1      17.719   2.204  -0.167  0.00  0.00    -0.372 N 
ATOM      3  N   UNL     1      18.644   1.489  -2.141  0.00  0.00    -0.372 N 
ATOM      4  C   UNL     1      18.231   1.208  -0.901  0.00  0.00    +0.166 C 
ATOM      5  H   UNL     1      18.011  -0.165   0.575  0.00  0.00    +0.163 HD
ATOM      6  H   UNL     1      17.640   3.143  -0.533  0.00  0.00    +0.159 HD
ATOM      7  H   UNL     1      17.374   2.051   0.773  0.00  0.00    +0.159 HD
ATOM      8  H   UNL     1      19.046   0.783  -2.744  0.00  0.00    +0.159 HD
ATOM      9  H   UNL     1      18.585   2.425  -2.521  0.00  0.00    +0.159 HD
ENDROOT
BRANCH   1  10
ATOM     10  C   UNL     1      18.806  -1.189  -1.116  0.00  0.00    +0.151 C 
BRANCH  10  11
ATOM     11  C   UNL     1      17.675  -2.161  -1.309  0.00  0.00    -0.028 A 
ATOM     12  C   UNL     1      17.201  -2.925  -0.233  0.00  0.00    +0.005 A 
ATOM     13  C   UNL     1      17.069  -2.317  -2.566  0.00  0.00    +0.005 A 
ATOM     14  C   UNL     1      16.130  -3.806  -0.406  0.00  0.00    +0.000 A 
ATOM     15  C   UNL     1      16.001  -3.199  -2.734  0.00  0.00    +0.000 A 
ATOM     16  C   UNL     1      15.531  -3.941  -1.654  0.00  0.00    +0.000 A 
ENDBRANCH  10  11
ENDBRANCH   1  10
TORSDOF 2
ENDMDL
MODEL 6
REMARK VINA RESULT:    -4.413     20.808     21.658
REMARK INTER + INTRA:          -5.029
REMARK INTER:                  -4.848
REMARK INTRA:                  -0.180
REMARK UNBOUND:                -0.100
REMARK  Name = 1550473
REMARK  2 active torsions:
REMARK  status: ('A' for Active; 'I' for Inactive)
REMARK    1  A    between atoms: N_1  and  C_4
REMARK    2  A    between atoms: C_4  and  C_5
REMARK                            x       y       z     vdW  Elec       q    Type
REMARK                         _______ _______ _______ _____ _____    ______ ____
ROOT
ATOM      1  N   UNL     1     -16.018   3.815  -7.517  0.00  0.00    -0.354 N 
ATOM      2  N   UNL     1     -17.359   5.297  -6.347  0.00  0.00    -0.372 N 
ATOM      3  N   UNL     1     -15.659   6.127  -7.645  0.00  0.00    -0.372 N 
ATOM      4  C   UNL     1     -16.334   5.072  -7.178  0.00  0.00    +0.166 C 
ATOM      5  H   UNL     1     -16.550   3.057  -7.105  0.00  0.00    +0.163 HD
ATOM      6  H   UNL     1     -17.623   6.234  -6.076  0.00  0.00    +0.159 HD
ATOM      7  H   UNL     1     -17.918   4.540  -5.973  0.00  0.00    +0.159 HD
ATOM      8  H   UNL     1     -14.872   6.025  -8.272  0.00  0.00    +0.159 HD
ATOM      9  H   UNL     1     -15.901   7.073  -7.376  0.00  0.00    +0.159 HD
ENDROOT
BRANCH   1  10
ATOM     10  C   UNL     1     -14.955   3.465  -8.457  0.00  0.00    +0.151 C 
BRANCH  10  11
ATOM     11  C   UNL     1     -13.727   3.067  -7.685  0.00  0.00    -0.028 A 
ATOM     12  C   UNL     1     -12.630   3.936  -7.596  0.00  0.00    +0.005 A 
ATOM     13  C   UNL     1     -13.657   1.825  -7.036  0.00  0.00    +0.005 A 
ATOM     14  C   UNL     1     -11.501   3.580  -6.853  0.00  0.00    +0.000 A 
ATOM     15  C   UNL     1     -12.528   1.472  -6.297  0.00  0.00    +0.000 A 
ATOM     16  C   UNL     1     -11.452   2.351  -6.204  0.00  0.00    +0.000 A 
ENDBRANCH  10  11
ENDBRANCH   1  10
TORSDOF 2
ENDMDL
MODEL 7
REMARK VINA RESULT:    -4.410     27.976     29.291
REMARK INTER + INTRA:          -5.025
REMARK INTER:                  -4.880
REMARK INTRA:                  -0.144
REMARK UNBOUND:                -0.100
REMARK  Name = 1550473
REMARK  2 active torsions:
REMARK  status: ('A' for Active; 'I' for Inactive)
REMARK    1  A    between atoms: N_1  and  C_4
REMARK    2  A    between atoms: C_4  and  C_5
REMARK                            x       y       z     vdW  Elec       q    Type
REMARK                         _______ _______ _______ _____ _____    ______ ____
ROOT
ATOM      1  N   UNL     1      -8.171 -16.884  10.089  0.00  0.00    -0.354 N 
ATOM      2  N   UNL     1      -6.525 -17.793   8.737  0.00  0.00    -0.372 N 
ATOM      3  N   UNL     1      -7.695 -19.177  10.143  0.00  0.00    -0.372 N 
ATOM      4  C   UNL     1      -7.475 -17.948   9.666  0.00  0.00    +0.166 C 
ATOM      5  H   UNL     1      -7.935 -15.973   9.710  0.00  0.00    +0.163 HD
ATOM      6  H   UNL     1      -5.986 -18.577   8.396  0.00  0.00    +0.159 HD
ATOM      7  H   UNL     1      -6.323 -16.889   8.326  0.00  0.00    +0.159 HD
ATOM      8  H   UNL     1      -8.394 -19.361  10.850  0.00  0.00    +0.159 HD
ATOM      9  H   UNL     1      -7.158 -19.974   9.823  0.00  0.00    +0.159 HD
ENDROOT
BRANCH   1  10
ATOM     10  C   UNL     1      -9.263 -16.953  11.058  0.00  0.00    +0.151 C 
BRANCH  10  11
ATOM     11  C   UNL     1     -10.515 -16.411  10.427  0.00  0.00    -0.028 A 
ATOM     12  C   UNL     1     -11.742 -16.482  11.103  0.00  0.00    +0.005 A 
ATOM     13  C   UNL     1     -10.481 -15.820   9.154  0.00  0.00    +0.005 A 
ATOM     14  C   UNL     1     -12.900 -15.951  10.530  0.00  0.00    +0.000 A 
ATOM     15  C   UNL     1     -11.640 -15.292   8.585  0.00  0.00    +0.000 A 
ATOM     16  C   UNL     1     -12.849 -15.356   9.274  0.00  0.00    +0.000 A 
ENDBRANCH  10  11
ENDBRANCH   1  10
TORSDOF 2
ENDMDL
MODEL 8
REMARK VINA RESULT:    -4.366     32.648     33.804
REMARK INTER + INTRA:          -4.976
REMARK INTER:                  -4.853
REMARK INTRA:                  -0.123
REMARK UNBOUND:                -0.100
REMARK  Name = 1550473
REMARK  2 active torsions:
REMARK  status: ('A' for Active; 'I' for Inactive)
REMARK    1  A    between atoms: N_1  and  C_4
REMARK    2  A    between atoms: C_4  and  C_5
REMARK                            x       y       z     vdW  Elec       q    Type
REMARK                         _______ _______ _______ _____ _____    ______ ____
ROOT
ATOM      1  N   UNL     1      18.246   0.082  -0.909  0.00  0.00    -0.354 N 
ATOM      2  N   UNL     1      17.595   2.162  -0.124  0.00  0.00    -0.372 N 
ATOM      3  N   UNL     1      19.198   2.046  -1.762  0.00  0.00    -0.372 N 
ATOM      4  C   UNL     1      18.353   1.417  -0.938  0.00  0.00    +0.166 C 
ATOM      5  H   UNL     1      17.608  -0.335  -0.241  0.00  0.00    +0.163 HD
ATOM      6  H   UNL     1      17.652   3.171  -0.126  0.00  0.00    +0.159 HD
ATOM      7  H   UNL     1      16.925   1.744   0.510  0.00  0.00    +0.159 HD
ATOM      8  H   UNL     1      19.802   1.542  -2.397  0.00  0.00    +0.159 HD
ATOM      9  H   UNL     1      19.277   3.056  -1.770  0.00  0.00    +0.159 HD
ENDROOT
BRANCH   1  10
ATOM     10  C   UNL     1      18.986  -0.817  -1.792  0.00  0.00    +0.151 C 
BRANCH  10  11
ATOM     11  C   UNL     1      18.034  -1.820  -2.382  0.00  0.00    -0.028 A 
ATOM     12  C   UNL     1      18.082  -2.129  -3.750  0.00  0.00    +0.005 A 
ATOM     13  C   UNL     1      17.085  -2.470  -1.578  0.00  0.00    +0.005 A 
ATOM     14  C   UNL     1      17.217  -3.082  -4.292  0.00  0.00    +0.000 A 
ATOM     15  C   UNL     1      16.223  -3.421  -2.124  0.00  0.00    +0.000 A 
ATOM     16  C   UNL     1      16.291  -3.728  -3.481  0.00  0.00    +0.000 A 
ENDBRANCH  10  11
ENDBRANCH   1  10
TORSDOF 2
ENDMDL
MODEL 9
REMARK VINA RESULT:    -4.321     19.900     20.581
REMARK INTER + INTRA:          -4.926
REMARK INTER:                  -4.800
REMARK INTRA:                  -0.126
REMARK UNBOUND:                -0.100
REMARK  Name = 1550473
REMARK  2 active torsions:
REMARK  status: ('A' for Active; 'I' for Inactive)
REMARK    1  A    between atoms: N_1  and  C_4
REMARK    2  A    between atoms: C_4  and  C_5
REMARK                            x       y       z     vdW  Elec       q    Type
REMARK                         _______ _______ _______ _____ _____    ______ ____
ROOT
ATOM      1  N   UNL     1     -12.168   3.065  -6.736  0.00  0.00    -0.354 N 
ATOM      2  N   UNL     1     -10.377   4.252  -5.872  0.00  0.00    -0.372 N 
ATOM      3  N   UNL     1     -11.244   2.510  -4.656  0.00  0.00    -0.372 N 
ATOM      4  C   UNL     1     -11.275   3.266  -5.758  0.00  0.00    +0.166 C 
ATOM      5  H   UNL     1     -12.158   3.692  -7.533  0.00  0.00    +0.163 HD
ATOM      6  H   UNL     1      -9.689   4.426  -5.151  0.00  0.00    +0.159 HD
ATOM      7  H   UNL     1     -10.340   4.848  -6.690  0.00  0.00    +0.159 HD
ATOM      8  H   UNL     1     -11.898   1.754  -4.506  0.00  0.00    +0.159 HD
ATOM      9  H   UNL     1     -10.570   2.676  -3.918  0.00  0.00    +0.159 HD
ENDROOT
BRANCH   1  10
ATOM     10  C   UNL     1     -13.153   1.985  -6.735  0.00  0.00    +0.151 C 
BRANCH  10  11
ATOM     11  C   UNL     1     -14.240   2.311  -7.722  0.00  0.00    -0.028 A 
ATOM     12  C   UNL     1     -15.245   1.375  -8.009  0.00  0.00    +0.005 A 
ATOM     13  C   UNL     1     -14.274   3.555  -8.370  0.00  0.00    +0.005 A 
ATOM     14  C   UNL     1     -16.271   1.688  -8.903  0.00  0.00    +0.000 A 
ATOM     15  C   UNL     1     -15.300   3.864  -9.262  0.00  0.00    +0.000 A 
ATOM     16  C   UNL     1     -16.300   2.931  -9.527  0.00  0.00    +0.000 A 
ENDBRANCH  10  11
ENDBRANCH   1  10
TORSDOF 2
ENDMDL
