MODEL 1
REMARK VINA RESULT:    -7.151      0.000      0.000
REMARK INTER + INTRA:          -8.120
REMARK INTER:                  -7.987
REMARK INTRA:                  -0.133
REMARK UNBOUND:                -0.133
REMARK  Name = 1550473
REMARK  2 active torsions:
REMARK  status: ('A' for Active; 'I' for Inactive)
REMARK    1  A    between atoms: N_1  and  C_4
REMARK    2  A    between atoms: C_4  and  C_5
REMARK                            x       y       z     vdW  Elec       q    Type
REMARK                         _______ _______ _______ _____ _____    ______ ____
ROOT
ATOM      1  N   UNL     1       1.864   6.365   2.258  0.00  0.00    -0.354 N 
ATOM      2  N   UNL     1       4.000   7.174   2.641  0.00  0.00    -0.372 N 
ATOM      3  N   UNL     1       2.216   8.256   3.596  0.00  0.00    -0.372 N 
ATOM      4  C   UNL     1       2.678   7.262   2.831  0.00  0.00    +0.166 C 
ATOM      5  H   UNL     1       2.273   5.653   1.664  0.00  0.00    +0.163 HD
ATOM      6  H   UNL     1       4.639   7.834   3.063  0.00  0.00    +0.159 HD
ATOM      7  H   UNL     1       4.410   6.434   2.084  0.00  0.00    +0.159 HD
ATOM      8  H   UNL     1       1.229   8.381   3.774  0.00  0.00    +0.159 HD
ATOM      9  H   UNL     1       2.840   8.933   4.018  0.00  0.00    +0.159 HD
ENDROOT
BRANCH   1  10
ATOM     10  C   UNL     1       0.414   6.340   2.445  0.00  0.00    +0.151 C 
BRANCH  10  11
ATOM     11  C   UNL     1       0.083   5.437   3.601  0.00  0.00    -0.028 A 
ATOM     12  C   UNL     1      -0.177   5.973   4.871  0.00  0.00    +0.005 A 
ATOM     13  C   UNL     1       0.022   4.046   3.432  0.00  0.00    +0.005 A 
ATOM     14  C   UNL     1      -0.513   5.137   5.938  0.00  0.00    +0.000 A 
ATOM     15  C   UNL     1      -0.313   3.214   4.500  0.00  0.00    +0.000 A 
ATOM     16  C   UNL     1      -0.584   3.760   5.753  0.00  0.00    +0.000 A 
ENDBRANCH  10  11
ENDBRANCH   1  10
TORSDOF 2
ENDMDL
MODEL 2
REMARK VINA RESULT:    -6.774      0.765      1.765
REMARK INTER + INTRA:          -7.699
REMARK INTER:                  -7.596
REMARK INTRA:                  -0.102
REMARK UNBOUND:                -0.133
REMARK  Name = 1550473
REMARK  2 active torsions:
REMARK  status: ('A' for Active; 'I' for Inactive)
REMARK    1  A    between atoms: N_1  and  C_4
REMARK    2  A    between atoms: C_4  and  C_5
REMARK                            x       y       z     vdW  Elec       q    Type
REMARK                         _______ _______ _______ _____ _____    ______ ____
ROOT
ATOM      1  N   UNL     1       2.128   6.957   3.111  0.00  0.00    -0.354 N 
ATOM      2  N   UNL     1       4.246   7.840   2.801  0.00  0.00    -0.372 N 
ATOM      3  N   UNL     1       3.005   7.263   0.960  0.00  0.00    -0.372 N 
ATOM      4  C   UNL     1       3.112   7.347   2.290  0.00  0.00    +0.166 C 
ATOM      5  H   UNL     1       2.283   7.018   4.111  0.00  0.00    +0.163 HD
ATOM      6  H   UNL     1       5.005   8.146   2.206  0.00  0.00    +0.159 HD
ATOM      7  H   UNL     1       4.381   7.943   3.799  0.00  0.00    +0.159 HD
ATOM      8  H   UNL     1       2.177   6.894   0.511  0.00  0.00    +0.159 HD
ATOM      9  H   UNL     1       3.757   7.553   0.348  0.00  0.00    +0.159 HD
ENDROOT
BRANCH   1  10
ATOM     10  C   UNL     1       0.833   6.455   2.656  0.00  0.00    +0.151 C 
BRANCH  10  11
ATOM     11  C   UNL     1       0.289   5.498   3.679  0.00  0.00    -0.028 A 
ATOM     12  C   UNL     1       0.047   4.158   3.343  0.00  0.00    +0.005 A 
ATOM     13  C   UNL     1       0.018   5.922   4.989  0.00  0.00    +0.005 A 
ATOM     14  C   UNL     1      -0.430   3.260   4.302  0.00  0.00    +0.000 A 
ATOM     15  C   UNL     1      -0.458   5.024   5.943  0.00  0.00    +0.000 A 
ATOM     16  C   UNL     1      -0.680   3.692   5.600  0.00  0.00    +0.000 A 
ENDBRANCH  10  11
ENDBRANCH   1  10
TORSDOF 2
ENDMDL
MODEL 3
REMARK VINA RESULT:    -6.357      2.663      4.780
REMARK INTER + INTRA:          -7.234
REMARK INTER:                  -7.105
REMARK INTRA:                  -0.129
REMARK UNBOUND:                -0.133
REMARK  Name = 1550473
REMARK  2 active torsions:
REMARK  status: ('A' for Active; 'I' for Inactive)
REMARK    1  A    between atoms: N_1  and  C_4
REMARK    2  A    between atoms: C_4  and  C_5
REMARK                            x       y       z     vdW  Elec       q    Type
REMARK                         _______ _______ _______ _____ _____    ______ ____
ROOT
ATOM      1  N   UNL     1      -0.295   4.215   3.855  0.00  0.00    -0.354 N 
ATOM      2  N   UNL     1      -0.118   2.459   5.356  0.00  0.00    -0.372 N 
ATOM      3  N   UNL     1      -0.686   4.538   6.143  0.00  0.00    -0.372 N 
ATOM      4  C   UNL     1      -0.368   3.751   5.110  0.00  0.00    +0.166 C 
ATOM      5  H   UNL     1      -0.019   3.574   3.121  0.00  0.00    +0.163 HD
ATOM      6  H   UNL     1      -0.169   2.080   6.292  0.00  0.00    +0.159 HD
ATOM      7  H   UNL     1       0.112   1.810   4.613  0.00  0.00    +0.159 HD
ATOM      8  H   UNL     1      -0.880   5.524   6.026  0.00  0.00    +0.159 HD
ATOM      9  H   UNL     1      -0.730   4.180   7.089  0.00  0.00    +0.159 HD
ENDROOT
BRANCH   1  10
ATOM     10  C   UNL     1      -0.600   5.593   3.474  0.00  0.00    +0.151 C 
BRANCH  10  11
ATOM     11  C   UNL     1       0.535   6.137   2.651  0.00  0.00    -0.028 A 
ATOM     12  C   UNL     1       0.534   5.998   1.256  0.00  0.00    +0.005 A 
ATOM     13  C   UNL     1       1.612   6.800   3.261  0.00  0.00    +0.005 A 
ATOM     14  C   UNL     1       1.573   6.530   0.489  0.00  0.00    +0.000 A 
ATOM     15  C   UNL     1       2.648   7.329   2.492  0.00  0.00    +0.000 A 
ATOM     16  C   UNL     1       2.627   7.196   1.106  0.00  0.00    +0.000 A 
ENDBRANCH  10  11
ENDBRANCH   1  10
TORSDOF 2
ENDMDL
MODEL 4
REMARK VINA RESULT:    -5.685      2.158      4.948
REMARK INTER + INTRA:          -6.483
REMARK INTER:                  -6.428
REMARK INTRA:                  -0.055
REMARK UNBOUND:                -0.133
REMARK  Name = 1550473
REMARK  2 active torsions:
REMARK  status: ('A' for Active; 'I' for Inactive)
REMARK    1  A    between atoms: N_1  and  C_4
REMARK    2  A    between atoms: C_4  and  C_5
REMARK                            x       y       z     vdW  Elec       q    Type
REMARK                         _______ _______ _______ _____ _____    ______ ____
ROOT
ATOM      1  N   UNL     1       0.502   5.204   2.757  0.00  0.00    -0.354 N 
ATOM      2  N   UNL     1      -0.149   4.304   4.789  0.00  0.00    -0.372 N 
ATOM      3  N   UNL     1      -0.671   6.490   4.326  0.00  0.00    -0.372 N 
ATOM      4  C   UNL     1      -0.103   5.341   3.944  0.00  0.00    +0.166 C 
ATOM      5  H   UNL     1       0.941   4.316   2.540  0.00  0.00    +0.163 HD
ATOM      6  H   UNL     1      -0.602   4.377   5.690  0.00  0.00    +0.159 HD
ATOM      7  H   UNL     1       0.250   3.404   4.550  0.00  0.00    +0.159 HD
ATOM      8  H   UNL     1      -0.665   7.312   3.737  0.00  0.00    +0.159 HD
ATOM      9  H   UNL     1      -1.119   6.586   5.229  0.00  0.00    +0.159 HD
ENDROOT
BRANCH   1  10
ATOM     10  C   UNL     1       0.561   6.256   1.743  0.00  0.00    +0.151 C 
BRANCH  10  11
ATOM     11  C   UNL     1       1.950   6.831   1.712  0.00  0.00    -0.028 A 
ATOM     12  C   UNL     1       2.612   7.029   0.492  0.00  0.00    +0.005 A 
ATOM     13  C   UNL     1       2.608   7.186   2.900  0.00  0.00    +0.005 A 
ATOM     14  C   UNL     1       3.890   7.592   0.461  0.00  0.00    +0.000 A 
ATOM     15  C   UNL     1       3.884   7.747   2.865  0.00  0.00    +0.000 A 
ATOM     16  C   UNL     1       4.524   7.952   1.645  0.00  0.00    +0.000 A 
ENDBRANCH  10  11
ENDBRANCH   1  10
TORSDOF 2
ENDMDL
MODEL 5
REMARK VINA RESULT:    -5.290     12.184     13.257
REMARK INTER + INTRA:          -6.041
REMARK INTER:                  -5.904
REMARK INTRA:                  -0.137
REMARK UNBOUND:                -0.133
REMARK  Name = 1550473
REMARK  2 active torsions:
REMARK  status: ('A' for Active; 'I' for Inactive)
REMARK    1  A    between atoms: N_1  and  C_4
REMARK    2  A    between atoms: C_4  and  C_5
REMARK                            x       y       z     vdW  Elec       q    Type
REMARK                         _______ _______ _______ _____ _____    ______ ____
ROOT
ATOM      1  N   UNL     1       7.984  10.434  -4.441  0.00  0.00    -0.354 N 
ATOM      2  N   UNL     1       9.104  11.729  -2.881  0.00  0.00    -0.372 N 
ATOM      3  N   UNL     1       7.616  12.745  -4.302  0.00  0.00    -0.372 N 
ATOM      4  C   UNL     1       8.226  11.630  -3.886  0.00  0.00    +0.166 C 
ATOM      5  H   UNL     1       8.502   9.632  -4.100  0.00  0.00    +0.163 HD
ATOM      6  H   UNL     1       9.305  12.617  -2.441  0.00  0.00    +0.159 HD
ATOM      7  H   UNL     1       9.586  10.919  -2.512  0.00  0.00    +0.159 HD
ATOM      8  H   UNL     1       6.947  12.738  -5.060  0.00  0.00    +0.159 HD
ATOM      9  H   UNL     1       7.812  13.645  -3.882  0.00  0.00    +0.159 HD
ENDROOT
BRANCH   1  10
ATOM     10  C   UNL     1       7.007  10.209  -5.504  0.00  0.00    +0.151 C 
BRANCH  10  11
ATOM     11  C   UNL     1       7.596   9.271  -6.522  0.00  0.00    -0.028 A 
ATOM     12  C   UNL     1       6.770   8.404  -7.252  0.00  0.00    +0.005 A 
ATOM     13  C   UNL     1       8.978   9.248  -6.764  0.00  0.00    +0.005 A 
ATOM     14  C   UNL     1       7.313   7.554  -8.219  0.00  0.00    +0.000 A 
ATOM     15  C   UNL     1       9.516   8.397  -7.729  0.00  0.00    +0.000 A 
ATOM     16  C   UNL     1       8.683   7.552  -8.458  0.00  0.00    +0.000 A 
ENDBRANCH  10  11
ENDBRANCH   1  10
TORSDOF 2
ENDMDL
MODEL 6
REMARK VINA RESULT:    -5.112      2.071      3.223
REMARK INTER + INTRA:          -5.842
REMARK INTER:                  -5.736
REMARK INTRA:                  -0.106
REMARK UNBOUND:                -0.133
REMARK  Name = 1550473
REMARK  2 active torsions:
REMARK  status: ('A' for Active; 'I' for Inactive)
REMARK    1  A    between atoms: N_1  and  C_4
REMARK    2  A    between atoms: C_4  and  C_5
REMARK                            x       y       z     vdW  Elec       q    Type
REMARK                         _______ _______ _______ _____ _____    ______ ____
ROOT
ATOM      1  N   UNL     1       4.145   7.320   1.231  0.00  0.00    -0.354 N 
ATOM      2  N   UNL     1       6.094   7.191  -0.013  0.00  0.00    -0.372 N 
ATOM      3  N   UNL     1       5.263   9.258   0.535  0.00  0.00    -0.372 N 
ATOM      4  C   UNL     1       5.154   7.926   0.593  0.00  0.00    +0.166 C 
ATOM      5  H   UNL     1       4.103   6.307   1.213  0.00  0.00    +0.163 HD
ATOM      6  H   UNL     1       6.869   7.620  -0.500  0.00  0.00    +0.159 HD
ATOM      7  H   UNL     1       6.075   6.178   0.009  0.00  0.00    +0.159 HD
ATOM      8  H   UNL     1       4.583   9.870   0.966  0.00  0.00    +0.159 HD
ATOM      9  H   UNL     1       6.025   9.707   0.043  0.00  0.00    +0.159 HD
ENDROOT
BRANCH   1  10
ATOM     10  C   UNL     1       3.100   8.028   1.968  0.00  0.00    +0.151 C 
BRANCH  10  11
ATOM     11  C   UNL     1       2.006   7.059   2.322  0.00  0.00    -0.028 A 
ATOM     12  C   UNL     1       1.591   6.909   3.653  0.00  0.00    +0.005 A 
ATOM     13  C   UNL     1       1.375   6.293   1.330  0.00  0.00    +0.005 A 
ATOM     14  C   UNL     1       0.554   6.031   3.979  0.00  0.00    +0.000 A 
ATOM     15  C   UNL     1       0.341   5.417   1.659  0.00  0.00    +0.000 A 
ATOM     16  C   UNL     1      -0.071   5.288   2.983  0.00  0.00    +0.000 A 
ENDBRANCH  10  11
ENDBRANCH   1  10
TORSDOF 2
ENDMDL
MODEL 7
REMARK VINA RESULT:    -5.062     18.015     18.778
REMARK INTER + INTRA:          -5.787
REMARK INTER:                  -5.621
REMARK INTRA:                  -0.166
REMARK UNBOUND:                -0.133
REMARK  Name = 1550473
REMARK  2 active torsions:
REMARK  status: ('A' for Active; 'I' for Inactive)
REMARK    1  A    between atoms: N_1  and  C_4
REMARK    2  A    between atoms: C_4  and  C_5
REMARK                            x       y       z     vdW  Elec       q    Type
REMARK                         _______ _______ _______ _____ _____    ______ ____
ROOT
ATOM      1  N   UNL     1      13.960  -3.643  10.288  0.00  0.00    -0.354 N 
ATOM      2  N   UNL     1      12.453  -3.411   8.544  0.00  0.00    -0.372 N 
ATOM      3  N   UNL     1      12.671  -1.699  10.056  0.00  0.00    -0.372 N 
ATOM      4  C   UNL     1      13.037  -2.917   9.642  0.00  0.00    +0.166 C 
ATOM      5  H   UNL     1      14.171  -4.572   9.941  0.00  0.00    +0.163 HD
ATOM      6  H   UNL     1      11.757  -2.885   8.033  0.00  0.00    +0.159 HD
ATOM      7  H   UNL     1      12.700  -4.321   8.172  0.00  0.00    +0.159 HD
ATOM      8  H   UNL     1      13.070  -1.272  10.881  0.00  0.00    +0.159 HD
ATOM      9  H   UNL     1      11.967  -1.162   9.565  0.00  0.00    +0.159 HD
ENDROOT
BRANCH   1  10
ATOM     10  C   UNL     1      14.693  -3.175  11.462  0.00  0.00    +0.151 C 
BRANCH  10  11
ATOM     11  C   UNL     1      16.142  -2.999  11.098  0.00  0.00    -0.028 A 
ATOM     12  C   UNL     1      16.586  -1.812  10.497  0.00  0.00    +0.005 A 
ATOM     13  C   UNL     1      17.076  -4.014  11.357  0.00  0.00    +0.005 A 
ATOM     14  C   UNL     1      17.937  -1.636  10.187  0.00  0.00    +0.000 A 
ATOM     15  C   UNL     1      18.424  -3.835  11.044  0.00  0.00    +0.000 A 
ATOM     16  C   UNL     1      18.854  -2.645  10.461  0.00  0.00    +0.000 A 
ENDBRANCH  10  11
ENDBRANCH   1  10
TORSDOF 2
ENDMDL
MODEL 8
REMARK VINA RESULT:    -4.980     13.128     14.488
REMARK INTER + INTRA:          -5.695
REMARK INTER:                  -5.566
REMARK INTRA:                  -0.130
REMARK UNBOUND:                -0.133
REMARK  Name = 1550473
REMARK  2 active torsions:
REMARK  status: ('A' for Active; 'I' for Inactive)
REMARK    1  A    between atoms: N_1  and  C_4
REMARK    2  A    between atoms: C_4  and  C_5
REMARK                            x       y       z     vdW  Elec       q    Type
REMARK                         _______ _______ _______ _____ _____    ______ ____
ROOT
ATOM      1  N   UNL     1       8.397   8.723  -8.419  0.00  0.00    -0.354 N 
ATOM      2  N   UNL     1       8.476  11.036  -8.507  0.00  0.00    -0.372 N 
ATOM      3  N   UNL     1       9.669   9.827 -10.049  0.00  0.00    -0.372 N 
ATOM      4  C   UNL     1       8.849   9.846  -8.993  0.00  0.00    +0.166 C 
ATOM      5  H   UNL     1       7.802   8.805  -7.603  0.00  0.00    +0.163 HD
ATOM      6  H   UNL     1       8.798  11.901  -8.921  0.00  0.00    +0.159 HD
ATOM      7  H   UNL     1       7.845  11.116  -7.719  0.00  0.00    +0.159 HD
ATOM      8  H   UNL     1       9.992   8.961 -10.460  0.00  0.00    +0.159 HD
ATOM      9  H   UNL     1      10.012  10.681 -10.470  0.00  0.00    +0.159 HD
ENDROOT
BRANCH   1  10
ATOM     10  C   UNL     1       8.700   7.378  -8.905  0.00  0.00    +0.151 C 
BRANCH  10  11
ATOM     11  C   UNL     1       7.451   6.542  -8.845  0.00  0.00    -0.028 A 
ATOM     12  C   UNL     1       6.446   6.829  -7.910  0.00  0.00    +0.005 A 
ATOM     13  C   UNL     1       7.265   5.464  -9.725  0.00  0.00    +0.005 A 
ATOM     14  C   UNL     1       5.273   6.071  -7.874  0.00  0.00    +0.000 A 
ATOM     15  C   UNL     1       6.093   4.709  -9.685  0.00  0.00    +0.000 A 
ATOM     16  C   UNL     1       5.096   5.015  -8.761  0.00  0.00    +0.000 A 
ENDBRANCH  10  11
ENDBRANCH   1  10
TORSDOF 2
ENDMDL
MODEL 9
REMARK VINA RESULT:    -4.904     16.355     17.563
REMARK INTER + INTRA:          -5.610
REMARK INTER:                  -5.486
REMARK INTRA:                  -0.124
REMARK UNBOUND:                -0.133
REMARK  Name = 1550473
REMARK  2 active torsions:
REMARK  status: ('A' for Active; 'I' for Inactive)
REMARK    1  A    between atoms: N_1  and  C_4
REMARK    2  A    between atoms: C_4  and  C_5
REMARK                            x       y       z     vdW  Elec       q    Type
REMARK                         _______ _______ _______ _____ _____    ______ ____
ROOT
ATOM      1  N   UNL     1       2.479 -12.419   2.877  0.00  0.00    -0.354 N 
ATOM      2  N   UNL     1       3.014 -14.306   1.645  0.00  0.00    -0.372 N 
ATOM      3  N   UNL     1       3.165 -12.248   0.642  0.00  0.00    -0.372 N 
ATOM      4  C   UNL     1       2.883 -12.977   1.727  0.00  0.00    +0.166 C 
ATOM      5  H   UNL     1       2.252 -13.029   3.653  0.00  0.00    +0.163 HD
ATOM      6  H   UNL     1       3.320 -14.755   0.792  0.00  0.00    +0.159 HD
ATOM      7  H   UNL     1       2.830 -14.910   2.437  0.00  0.00    +0.159 HD
ATOM      8  H   UNL     1       3.081 -11.240   0.637  0.00  0.00    +0.159 HD
ATOM      9  H   UNL     1       3.461 -12.679  -0.224  0.00  0.00    +0.159 HD
ENDROOT
BRANCH   1  10
ATOM     10  C   UNL     1       2.356 -10.978   3.087  0.00  0.00    +0.151 C 
BRANCH  10  11
ATOM     11  C   UNL     1       2.507 -10.681   4.554  0.00  0.00    -0.028 A 
ATOM     12  C   UNL     1       3.380 -11.439   5.348  0.00  0.00    +0.005 A 
ATOM     13  C   UNL     1       1.783  -9.640   5.155  0.00  0.00    +0.005 A 
ATOM     14  C   UNL     1       3.543 -11.145   6.703  0.00  0.00    +0.000 A 
ATOM     15  C   UNL     1       1.948  -9.350   6.509  0.00  0.00    +0.000 A 
ATOM     16  C   UNL     1       2.829 -10.101   7.282  0.00  0.00    +0.000 A 
ENDBRANCH  10  11
ENDBRANCH   1  10
TORSDOF 2
ENDMDL
