MODEL 1
REMARK VINA RESULT:    -5.387      0.000      0.000
REMARK INTER + INTRA:          -6.109
REMARK INTER:                  -6.016
REMARK INTRA:                  -0.092
REMARK UNBOUND:                -0.092
REMARK  Name = 1550473
REMARK  2 active torsions:
REMARK  status: ('A' for Active; 'I' for Inactive)
REMARK    1  A    between atoms: N_1  and  C_4
REMARK    2  A    between atoms: C_4  and  C_5
REMARK                            x       y       z     vdW  Elec       q    Type
REMARK                         _______ _______ _______ _____ _____    ______ ____
ROOT
ATOM      1  N   UNL     1       0.158   1.352 -15.331  0.00  0.00    -0.354 N 
ATOM      2  N   UNL     1      -1.975   1.936 -16.021  0.00  0.00    -0.372 N 
ATOM      3  N   UNL     1      -0.276   1.922 -17.563  0.00  0.00    -0.372 N 
ATOM      4  C   UNL     1      -0.682   1.734 -16.303  0.00  0.00    +0.166 C 
ATOM      5  H   UNL     1      -0.207   1.256 -14.391  0.00  0.00    +0.163 HD
ATOM      6  H   UNL     1      -2.633   2.221 -16.734  0.00  0.00    +0.159 HD
ATOM      7  H   UNL     1      -2.345   1.795 -15.089  0.00  0.00    +0.159 HD
ATOM      8  H   UNL     1       0.688   1.791 -17.840  0.00  0.00    +0.159 HD
ATOM      9  H   UNL     1      -0.917   2.218 -18.288  0.00  0.00    +0.159 HD
ENDROOT
BRANCH   1  10
ATOM     10  C   UNL     1       1.573   1.054 -15.544  0.00  0.00    +0.151 C 
BRANCH  10  11
ATOM     11  C   UNL     1       2.245   0.882 -14.210  0.00  0.00    -0.028 A 
ATOM     12  C   UNL     1       2.075  -0.300 -13.474  0.00  0.00    +0.005 A 
ATOM     13  C   UNL     1       3.058   1.895 -13.679  0.00  0.00    +0.005 A 
ATOM     14  C   UNL     1       2.723  -0.472 -12.248  0.00  0.00    +0.000 A 
ATOM     15  C   UNL     1       3.702   1.720 -12.455  0.00  0.00    +0.000 A 
ATOM     16  C   UNL     1       3.537   0.536 -11.741  0.00  0.00    +0.000 A 
ENDBRANCH  10  11
ENDBRANCH   1  10
TORSDOF 2
ENDMDL
MODEL 2
REMARK VINA RESULT:    -5.201     31.954     33.318
REMARK INTER + INTRA:          -5.901
REMARK INTER:                  -5.798
REMARK INTRA:                  -0.103
REMARK UNBOUND:                -0.092
REMARK  Name = 1550473
REMARK  2 active torsions:
REMARK  status: ('A' for Active; 'I' for Inactive)
REMARK    1  A    between atoms: N_1  and  C_4
REMARK    2  A    between atoms: C_4  and  C_5
REMARK                            x       y       z     vdW  Elec       q    Type
REMARK                         _______ _______ _______ _____ _____    ______ ____
ROOT
ATOM      1  N   UNL     1       4.538  16.331  13.451  0.00  0.00    -0.354 N 
ATOM      2  N   UNL     1       5.855  16.399  11.547  0.00  0.00    -0.372 N 
ATOM      3  N   UNL     1       3.851  15.284  11.470  0.00  0.00    -0.372 N 
ATOM      4  C   UNL     1       4.737  16.003  12.167  0.00  0.00    +0.166 C 
ATOM      5  H   UNL     1       5.262  16.852  13.932  0.00  0.00    +0.163 HD
ATOM      6  H   UNL     1       6.031  16.170  10.578  0.00  0.00    +0.159 HD
ATOM      7  H   UNL     1       6.556  16.959  12.017  0.00  0.00    +0.159 HD
ATOM      8  H   UNL     1       2.990  14.949  11.882  0.00  0.00    +0.159 HD
ATOM      9  H   UNL     1       4.015  15.034  10.503  0.00  0.00    +0.159 HD
ENDROOT
BRANCH   1  10
ATOM     10  C   UNL     1       3.331  15.994  14.203  0.00  0.00    +0.151 C 
BRANCH  10  11
ATOM     11  C   UNL     1       3.052  17.086  15.199  0.00  0.00    -0.028 A 
ATOM     12  C   UNL     1       1.862  17.825  15.130  0.00  0.00    +0.005 A 
ATOM     13  C   UNL     1       3.971  17.383  16.216  0.00  0.00    +0.005 A 
ATOM     14  C   UNL     1       1.589  18.819  16.073  0.00  0.00    +0.000 A 
ATOM     15  C   UNL     1       3.695  18.377  17.155  0.00  0.00    +0.000 A 
ATOM     16  C   UNL     1       2.503  19.093  17.085  0.00  0.00    +0.000 A 
ENDBRANCH  10  11
ENDBRANCH   1  10
TORSDOF 2
ENDMDL
MODEL 3
REMARK VINA RESULT:    -5.122      1.356      2.331
REMARK INTER + INTRA:          -5.813
REMARK INTER:                  -5.680
REMARK INTRA:                  -0.134
REMARK UNBOUND:                -0.092
REMARK  Name = 1550473
REMARK  2 active torsions:
REMARK  status: ('A' for Active; 'I' for Inactive)
REMARK    1  A    between atoms: N_1  and  C_4
REMARK    2  A    between atoms: C_4  and  C_5
REMARK                            x       y       z     vdW  Elec       q    Type
REMARK                         _______ _______ _______ _____ _____    ______ ____
ROOT
ATOM      1  N   UNL     1       2.207   1.256 -16.503  0.00  0.00    -0.354 N 
ATOM      2  N   UNL     1       1.749   0.232 -18.530  0.00  0.00    -0.372 N 
ATOM      3  N   UNL     1       0.062   1.345 -17.443  0.00  0.00    -0.372 N 
ATOM      4  C   UNL     1       1.339   0.952 -17.478  0.00  0.00    +0.166 C 
ATOM      5  H   UNL     1       3.154   0.902 -16.574  0.00  0.00    +0.163 HD
ATOM      6  H   UNL     1       1.118  -0.009 -19.282  0.00  0.00    +0.159 HD
ATOM      7  H   UNL     1       2.708  -0.081 -18.620  0.00  0.00    +0.159 HD
ATOM      8  H   UNL     1      -0.311   1.886 -16.674  0.00  0.00    +0.159 HD
ATOM      9  H   UNL     1      -0.587   1.104 -18.181  0.00  0.00    +0.159 HD
ENDROOT
BRANCH   1  10
ATOM     10  C   UNL     1       1.876   2.079 -15.342  0.00  0.00    +0.151 C 
BRANCH  10  11
ATOM     11  C   UNL     1       2.428   1.428 -14.104  0.00  0.00    -0.028 A 
ATOM     12  C   UNL     1       3.326   2.118 -13.277  0.00  0.00    +0.005 A 
ATOM     13  C   UNL     1       2.053   0.123 -13.750  0.00  0.00    +0.005 A 
ATOM     14  C   UNL     1       3.816   1.524 -12.111  0.00  0.00    +0.000 A 
ATOM     15  C   UNL     1       2.545  -0.467 -12.585  0.00  0.00    +0.000 A 
ATOM     16  C   UNL     1       3.425   0.235 -11.765  0.00  0.00    +0.000 A 
ENDBRANCH  10  11
ENDBRANCH   1  10
TORSDOF 2
ENDMDL
MODEL 4
REMARK VINA RESULT:    -5.076     33.559     34.959
REMARK INTER + INTRA:          -5.762
REMARK INTER:                  -5.588
REMARK INTRA:                  -0.174
REMARK UNBOUND:                -0.092
REMARK  Name = 1550473
REMARK  2 active torsions:
REMARK  status: ('A' for Active; 'I' for Inactive)
REMARK    1  A    between atoms: N_1  and  C_4
REMARK    2  A    between atoms: C_4  and  C_5
REMARK                            x       y       z     vdW  Elec       q    Type
REMARK                         _______ _______ _______ _____ _____    ______ ____
ROOT
ATOM      1  N   UNL     1       5.386  18.700  13.979  0.00  0.00    -0.354 N 
ATOM      2  N   UNL     1       5.855  16.598  13.127  0.00  0.00    -0.372 N 
ATOM      3  N   UNL     1       6.338  17.036  15.327  0.00  0.00    -0.372 N 
ATOM      4  C   UNL     1       5.858  17.458  14.152  0.00  0.00    +0.166 C 
ATOM      5  H   UNL     1       5.064  18.968  13.056  0.00  0.00    +0.163 HD
ATOM      6  H   UNL     1       6.201  15.653  13.229  0.00  0.00    +0.159 HD
ATOM      7  H   UNL     1       5.489  16.854  12.218  0.00  0.00    +0.159 HD
ATOM      8  H   UNL     1       6.374  17.639  16.138  0.00  0.00    +0.159 HD
ATOM      9  H   UNL     1       6.700  16.098  15.445  0.00  0.00    +0.159 HD
ENDROOT
BRANCH   1  10
ATOM     10  C   UNL     1       5.295  19.697  15.044  0.00  0.00    +0.151 C 
BRANCH  10  11
ATOM     11  C   UNL     1       3.889  19.720  15.576  0.00  0.00    -0.028 A 
ATOM     12  C   UNL     1       3.539  18.954  16.697  0.00  0.00    +0.005 A 
ATOM     13  C   UNL     1       2.903  20.511  14.967  0.00  0.00    +0.005 A 
ATOM     14  C   UNL     1       2.240  18.998  17.210  0.00  0.00    +0.000 A 
ATOM     15  C   UNL     1       1.607  20.553  15.481  0.00  0.00    +0.000 A 
ATOM     16  C   UNL     1       1.277  19.798  16.604  0.00  0.00    +0.000 A 
ENDBRANCH  10  11
ENDBRANCH   1  10
TORSDOF 2
ENDMDL
MODEL 5
REMARK VINA RESULT:    -5.070     32.376     33.755
REMARK INTER + INTRA:          -5.755
REMARK INTER:                  -5.603
REMARK INTRA:                  -0.152
REMARK UNBOUND:                -0.092
REMARK  Name = 1550473
REMARK  2 active torsions:
REMARK  status: ('A' for Active; 'I' for Inactive)
REMARK    1  A    between atoms: N_1  and  C_4
REMARK    2  A    between atoms: C_4  and  C_5
REMARK                            x       y       z     vdW  Elec       q    Type
REMARK                         _______ _______ _______ _____ _____    ______ ____
ROOT
ATOM      1  N   UNL     1       5.324  17.109  12.971  0.00  0.00    -0.354 N 
ATOM      2  N   UNL     1       4.087  15.510  11.840  0.00  0.00    -0.372 N 
ATOM      3  N   UNL     1       3.056  17.453  12.493  0.00  0.00    -0.372 N 
ATOM      4  C   UNL     1       4.162  16.703  12.443  0.00  0.00    +0.166 C 
ATOM      5  H   UNL     1       6.118  16.481  12.927  0.00  0.00    +0.163 HD
ATOM      6  H   UNL     1       3.225  15.179  11.430  0.00  0.00    +0.159 HD
ATOM      7  H   UNL     1       4.894  14.904  11.757  0.00  0.00    +0.159 HD
ATOM      8  H   UNL     1       3.044  18.361  12.938  0.00  0.00    +0.159 HD
ATOM      9  H   UNL     1       2.180  17.134  12.097  0.00  0.00    +0.159 HD
ENDROOT
BRANCH   1  10
ATOM     10  C   UNL     1       5.525  18.413  13.601  0.00  0.00    +0.151 C 
BRANCH  10  11
ATOM     11  C   UNL     1       5.237  18.297  15.073  0.00  0.00    -0.028 A 
ATOM     12  C   UNL     1       4.148  18.973  15.641  0.00  0.00    +0.005 A 
ATOM     13  C   UNL     1       6.048  17.507  15.903  0.00  0.00    +0.005 A 
ATOM     14  C   UNL     1       3.863  18.842  17.002  0.00  0.00    +0.000 A 
ATOM     15  C   UNL     1       5.760  17.379  17.262  0.00  0.00    +0.000 A 
ATOM     16  C   UNL     1       4.667  18.045  17.811  0.00  0.00    +0.000 A 
ENDBRANCH  10  11
ENDBRANCH   1  10
TORSDOF 2
ENDMDL
MODEL 6
REMARK VINA RESULT:    -4.939      2.355      3.650
REMARK INTER + INTRA:          -5.609
REMARK INTER:                  -5.466
REMARK INTRA:                  -0.143
REMARK UNBOUND:                -0.092
REMARK  Name = 1550473
REMARK  2 active torsions:
REMARK  status: ('A' for Active; 'I' for Inactive)
REMARK    1  A    between atoms: N_1  and  C_4
REMARK    2  A    between atoms: C_4  and  C_5
REMARK                            x       y       z     vdW  Elec       q    Type
REMARK                         _______ _______ _______ _____ _____    ______ ____
ROOT
ATOM      1  N   UNL     1      -1.497   2.476 -16.700  0.00  0.00    -0.354 N 
ATOM      2  N   UNL     1      -2.062   4.673 -17.165  0.00  0.00    -0.372 N 
ATOM      3  N   UNL     1      -1.749   4.048 -14.980  0.00  0.00    -0.372 N 
ATOM      4  C   UNL     1      -1.766   3.718 -16.276  0.00  0.00    +0.166 C 
ATOM      5  H   UNL     1      -1.556   2.283 -17.693  0.00  0.00    +0.163 HD
ATOM      6  H   UNL     1      -2.266   5.620 -16.875  0.00  0.00    +0.159 HD
ATOM      7  H   UNL     1      -2.076   4.489 -18.161  0.00  0.00    +0.159 HD
ATOM      8  H   UNL     1      -1.538   3.372 -14.258  0.00  0.00    +0.159 HD
ATOM      9  H   UNL     1      -1.962   4.987 -14.669  0.00  0.00    +0.159 HD
ENDROOT
BRANCH   1  10
ATOM     10  C   UNL     1      -1.110   1.377 -15.817  0.00  0.00    +0.151 C 
BRANCH  10  11
ATOM     11  C   UNL     1       0.286   0.938 -16.163  0.00  0.00    -0.028 A 
ATOM     12  C   UNL     1       1.272   0.851 -15.169  0.00  0.00    +0.005 A 
ATOM     13  C   UNL     1       0.629   0.601 -17.482  0.00  0.00    +0.005 A 
ATOM     14  C   UNL     1       2.561   0.414 -15.484  0.00  0.00    +0.000 A 
ATOM     15  C   UNL     1       1.917   0.167 -17.792  0.00  0.00    +0.000 A 
ATOM     16  C   UNL     1       2.882   0.071 -16.793  0.00  0.00    +0.000 A 
ENDBRANCH  10  11
ENDBRANCH   1  10
TORSDOF 2
ENDMDL
MODEL 7
REMARK VINA RESULT:    -4.874     35.216     36.320
REMARK INTER + INTRA:          -5.536
REMARK INTER:                  -5.356
REMARK INTRA:                  -0.180
REMARK UNBOUND:                -0.092
REMARK  Name = 1550473
REMARK  2 active torsions:
REMARK  status: ('A' for Active; 'I' for Inactive)
REMARK    1  A    between atoms: N_1  and  C_4
REMARK    2  A    between atoms: C_4  and  C_5
REMARK                            x       y       z     vdW  Elec       q    Type
REMARK                         _______ _______ _______ _____ _____    ______ ____
ROOT
ATOM      1  N   UNL     1     -15.128  -4.706  18.630  0.00  0.00    -0.354 N 
ATOM      2  N   UNL     1     -17.152  -5.752  18.214  0.00  0.00    -0.372 N 
ATOM      3  N   UNL     1     -17.154  -3.700  19.241  0.00  0.00    -0.372 N 
ATOM      4  C   UNL     1     -16.465  -4.710  18.699  0.00  0.00    +0.166 C 
ATOM      5  H   UNL     1     -14.664  -5.516  18.234  0.00  0.00    +0.163 HD
ATOM      6  H   UNL     1     -18.162  -5.781  18.249  0.00  0.00    +0.159 HD
ATOM      7  H   UNL     1     -16.688  -6.539  17.777  0.00  0.00    +0.159 HD
ATOM      8  H   UNL     1     -16.695  -2.887  19.630  0.00  0.00    +0.159 HD
ATOM      9  H   UNL     1     -18.164  -3.716  19.296  0.00  0.00    +0.159 HD
ENDROOT
BRANCH   1  10
ATOM     10  C   UNL     1     -14.289  -3.597  19.080  0.00  0.00    +0.151 C 
BRANCH  10  11
ATOM     11  C   UNL     1     -13.828  -2.812  17.883  0.00  0.00    -0.028 A 
ATOM     12  C   UNL     1     -12.667  -3.186  17.190  0.00  0.00    +0.005 A 
ATOM     13  C   UNL     1     -14.551  -1.697  17.433  0.00  0.00    +0.005 A 
ATOM     14  C   UNL     1     -12.255  -2.475  16.061  0.00  0.00    +0.000 A 
ATOM     15  C   UNL     1     -14.136  -0.989  16.305  0.00  0.00    +0.000 A 
ATOM     16  C   UNL     1     -12.989  -1.380  15.618  0.00  0.00    +0.000 A 
ENDBRANCH  10  11
ENDBRANCH   1  10
TORSDOF 2
ENDMDL
MODEL 8
REMARK VINA RESULT:    -4.867      1.733      2.308
REMARK INTER + INTRA:          -5.528
REMARK INTER:                  -5.435
REMARK INTRA:                  -0.093
REMARK UNBOUND:                -0.092
REMARK  Name = 1550473
REMARK  2 active torsions:
REMARK  status: ('A' for Active; 'I' for Inactive)
REMARK    1  A    between atoms: N_1  and  C_4
REMARK    2  A    between atoms: C_4  and  C_5
REMARK                            x       y       z     vdW  Elec       q    Type
REMARK                         _______ _______ _______ _____ _____    ______ ____
ROOT
ATOM      1  N   UNL     1       2.058   1.264 -15.924  0.00  0.00    -0.354 N 
ATOM      2  N   UNL     1       0.861   2.517 -17.460  0.00  0.00    -0.372 N 
ATOM      3  N   UNL     1       2.127   0.757 -18.211  0.00  0.00    -0.372 N 
ATOM      4  C   UNL     1       1.691   1.503 -17.190  0.00  0.00    +0.166 C 
ATOM      5  H   UNL     1       1.717   1.885 -15.199  0.00  0.00    +0.163 HD
ATOM      6  H   UNL     1       0.563   2.719 -18.405  0.00  0.00    +0.159 HD
ATOM      7  H   UNL     1       0.485   3.107 -16.728  0.00  0.00    +0.159 HD
ATOM      8  H   UNL     1       2.760  -0.019 -18.074  0.00  0.00    +0.159 HD
ATOM      9  H   UNL     1       1.850   0.951 -19.165  0.00  0.00    +0.159 HD
ENDROOT
BRANCH   1  10
ATOM     10  C   UNL     1       2.916   0.153 -15.517  0.00  0.00    +0.151 C 
BRANCH  10  11
ATOM     11  C   UNL     1       3.450   0.424 -14.137  0.00  0.00    -0.028 A 
ATOM     12  C   UNL     1       4.705   1.026 -13.966  0.00  0.00    +0.005 A 
ATOM     13  C   UNL     1       2.704   0.086 -12.998  0.00  0.00    +0.005 A 
ATOM     14  C   UNL     1       5.189   1.306 -12.685  0.00  0.00    +0.000 A 
ATOM     15  C   UNL     1       3.191   0.366 -11.721  0.00  0.00    +0.000 A 
ATOM     16  C   UNL     1       4.432   0.978 -11.565  0.00  0.00    +0.000 A 
ENDBRANCH  10  11
ENDBRANCH   1  10
TORSDOF 2
ENDMDL
MODEL 9
REMARK VINA RESULT:    -4.577      3.243      3.836
REMARK INTER + INTRA:          -5.204
REMARK INTER:                  -5.078
REMARK INTRA:                  -0.126
REMARK UNBOUND:                -0.092
REMARK  Name = 1550473
REMARK  2 active torsions:
REMARK  status: ('A' for Active; 'I' for Inactive)
REMARK    1  A    between atoms: N_1  and  C_4
REMARK    2  A    between atoms: C_4  and  C_5
REMARK                            x       y       z     vdW  Elec       q    Type
REMARK                         _______ _______ _______ _____ _____    ______ ____
ROOT
ATOM      1  N   UNL     1       4.569   1.826 -15.640  0.00  0.00    -0.354 N 
ATOM      2  N   UNL     1       5.419   2.347 -17.731  0.00  0.00    -0.372 N 
ATOM      3  N   UNL     1       3.866   0.666 -17.552  0.00  0.00    -0.372 N 
ATOM      4  C   UNL     1       4.611   1.607 -16.961  0.00  0.00    +0.166 C 
ATOM      5  H   UNL     1       5.181   2.533 -15.250  0.00  0.00    +0.163 HD
ATOM      6  H   UNL     1       5.469   2.207 -18.731  0.00  0.00    +0.159 HD
ATOM      7  H   UNL     1       5.995   3.084 -17.344  0.00  0.00    +0.159 HD
ATOM      8  H   UNL     1       3.241   0.071 -17.026  0.00  0.00    +0.159 HD
ATOM      9  H   UNL     1       3.911   0.504 -18.550  0.00  0.00    +0.159 HD
ENDROOT
BRANCH   1  10
ATOM     10  C   UNL     1       3.684   1.112 -14.721  0.00  0.00    +0.151 C 
BRANCH  10  11
ATOM     11  C   UNL     1       4.226   1.233 -13.324  0.00  0.00    -0.028 A 
ATOM     12  C   UNL     1       3.443   0.861 -12.221  0.00  0.00    +0.005 A 
ATOM     13  C   UNL     1       5.525   1.713 -13.095  0.00  0.00    +0.005 A 
ATOM     14  C   UNL     1       3.957   0.945 -10.925  0.00  0.00    +0.000 A 
ATOM     15  C   UNL     1       6.034   1.796 -11.800  0.00  0.00    +0.000 A 
ATOM     16  C   UNL     1       5.251   1.410 -10.715  0.00  0.00    +0.000 A 
ENDBRANCH  10  11
ENDBRANCH   1  10
TORSDOF 2
ENDMDL
