MODEL 1
REMARK VINA RESULT:    -5.448      0.000      0.000
REMARK INTER + INTRA:          -6.213
REMARK INTER:                  -6.085
REMARK INTRA:                  -0.128
REMARK UNBOUND:                -0.128
REMARK  Name = 1550473
REMARK  2 active torsions:
REMARK  status: ('A' for Active; 'I' for Inactive)
REMARK    1  A    between atoms: N_1  and  C_4
REMARK    2  A    between atoms: C_4  and  C_5
REMARK                            x       y       z     vdW  Elec       q    Type
REMARK                         _______ _______ _______ _____ _____    ______ ____
ROOT
ATOM      1  N   UNL     1      11.993  -0.526   2.009  0.00  0.00    -0.354 N 
ATOM      2  N   UNL     1      12.505  -2.055   0.346  0.00  0.00    -0.372 N 
ATOM      3  N   UNL     1      13.339  -2.391   2.457  0.00  0.00    -0.372 N 
ATOM      4  C   UNL     1      12.610  -1.648   1.617  0.00  0.00    +0.166 C 
ATOM      5  H   UNL     1      11.481   0.008   1.316  0.00  0.00    +0.163 HD
ATOM      6  H   UNL     1      12.956  -2.899   0.022  0.00  0.00    +0.159 HD
ATOM      7  H   UNL     1      11.954  -1.543  -0.333  0.00  0.00    +0.159 HD
ATOM      8  H   UNL     1      13.463  -2.136   3.427  0.00  0.00    +0.159 HD
ATOM      9  H   UNL     1      13.809  -3.233   2.148  0.00  0.00    +0.159 HD
ENDROOT
BRANCH   1  10
ATOM     10  C   UNL     1      12.001  -0.025   3.382  0.00  0.00    +0.151 C 
BRANCH  10  11
ATOM     11  C   UNL     1      12.188   1.467   3.360  0.00  0.00    -0.028 A 
ATOM     12  C   UNL     1      12.840   2.118   4.417  0.00  0.00    +0.005 A 
ATOM     13  C   UNL     1      11.722   2.234   2.282  0.00  0.00    +0.005 A 
ATOM     14  C   UNL     1      13.041   3.500   4.383  0.00  0.00    +0.000 A 
ATOM     15  C   UNL     1      11.924   3.614   2.252  0.00  0.00    +0.000 A 
ATOM     16  C   UNL     1      12.586   4.246   3.301  0.00  0.00    +0.000 A 
ENDBRANCH  10  11
ENDBRANCH   1  10
TORSDOF 2
ENDMDL
MODEL 2
REMARK VINA RESULT:    -5.163     11.823     12.294
REMARK INTER + INTRA:          -5.895
REMARK INTER:                  -5.771
REMARK INTRA:                  -0.124
REMARK UNBOUND:                -0.128
REMARK  Name = 1550473
REMARK  2 active torsions:
REMARK  status: ('A' for Active; 'I' for Inactive)
REMARK    1  A    between atoms: N_1  and  C_4
REMARK    2  A    between atoms: C_4  and  C_5
REMARK                            x       y       z     vdW  Elec       q    Type
REMARK                         _______ _______ _______ _____ _____    ______ ____
ROOT
ATOM      1  N   UNL     1       3.516  -7.224  -0.867  0.00  0.00    -0.354 N 
ATOM      2  N   UNL     1       2.055  -7.708   0.864  0.00  0.00    -0.372 N 
ATOM      3  N   UNL     1       4.040  -6.664   1.348  0.00  0.00    -0.372 N 
ATOM      4  C   UNL     1       3.216  -7.194   0.438  0.00  0.00    +0.166 C 
ATOM      5  H   UNL     1       2.862  -7.667  -1.501  0.00  0.00    +0.163 HD
ATOM      6  H   UNL     1       1.799  -7.697   1.842  0.00  0.00    +0.159 HD
ATOM      7  H   UNL     1       1.382  -8.109   0.222  0.00  0.00    +0.159 HD
ATOM      8  H   UNL     1       4.934  -6.266   1.092  0.00  0.00    +0.159 HD
ATOM      9  H   UNL     1       3.808  -6.654   2.333  0.00  0.00    +0.159 HD
ENDROOT
BRANCH   1  10
ATOM     10  C   UNL     1       4.729  -6.644  -1.440  0.00  0.00    +0.151 C 
BRANCH  10  11
ATOM     11  C   UNL     1       4.344  -5.620  -2.472  0.00  0.00    -0.028 A 
ATOM     12  C   UNL     1       3.174  -4.863  -2.321  0.00  0.00    +0.005 A 
ATOM     13  C   UNL     1       5.149  -5.399  -3.600  0.00  0.00    +0.005 A 
ATOM     14  C   UNL     1       2.831  -3.891  -3.265  0.00  0.00    +0.000 A 
ATOM     15  C   UNL     1       4.803  -4.428  -4.540  0.00  0.00    +0.000 A 
ATOM     16  C   UNL     1       3.645  -3.673  -4.371  0.00  0.00    +0.000 A 
ENDBRANCH  10  11
ENDBRANCH   1  10
TORSDOF 2
ENDMDL
MODEL 3
REMARK VINA RESULT:    -5.133     10.659     12.101
REMARK INTER + INTRA:          -5.862
REMARK INTER:                  -5.685
REMARK INTRA:                  -0.176
REMARK UNBOUND:                -0.128
REMARK  Name = 1550473
REMARK  2 active torsions:
REMARK  status: ('A' for Active; 'I' for Inactive)
REMARK    1  A    between atoms: N_1  and  C_4
REMARK    2  A    between atoms: C_4  and  C_5
REMARK                            x       y       z     vdW  Elec       q    Type
REMARK                         _______ _______ _______ _____ _____    ______ ____
ROOT
ATOM      1  N   UNL     1       2.703  -4.859  -2.008  0.00  0.00    -0.354 N 
ATOM      2  N   UNL     1       1.057  -3.868  -0.714  0.00  0.00    -0.372 N 
ATOM      3  N   UNL     1       3.119  -2.868  -0.844  0.00  0.00    -0.372 N 
ATOM      4  C   UNL     1       2.306  -3.869  -1.197  0.00  0.00    +0.166 C 
ATOM      5  H   UNL     1       2.049  -5.605  -2.213  0.00  0.00    +0.163 HD
ATOM      6  H   UNL     1       0.728  -3.133  -0.103  0.00  0.00    +0.159 HD
ATOM      7  H   UNL     1       0.391  -4.590  -0.958  0.00  0.00    +0.159 HD
ATOM      8  H   UNL     1       4.075  -2.814  -1.169  0.00  0.00    +0.159 HD
ATOM      9  H   UNL     1       2.811  -2.129  -0.223  0.00  0.00    +0.159 HD
ENDROOT
BRANCH   1  10
ATOM     10  C   UNL     1       4.025  -4.925  -2.630  0.00  0.00    +0.151 C 
BRANCH  10  11
ATOM     11  C   UNL     1       4.855  -5.952  -1.910  0.00  0.00    -0.028 A 
ATOM     12  C   UNL     1       6.021  -5.574  -1.228  0.00  0.00    +0.005 A 
ATOM     13  C   UNL     1       4.477  -7.303  -1.900  0.00  0.00    +0.005 A 
ATOM     14  C   UNL     1       6.776  -6.522  -0.534  0.00  0.00    +0.000 A 
ATOM     15  C   UNL     1       5.235  -8.247  -1.206  0.00  0.00    +0.000 A 
ATOM     16  C   UNL     1       6.383  -7.856  -0.522  0.00  0.00    +0.000 A 
ENDBRANCH  10  11
ENDBRANCH   1  10
TORSDOF 2
ENDMDL
MODEL 4
REMARK VINA RESULT:    -5.004     23.406     24.189
REMARK INTER + INTRA:          -5.718
REMARK INTER:                  -5.588
REMARK INTRA:                  -0.129
REMARK UNBOUND:                -0.128
REMARK  Name = 1550473
REMARK  2 active torsions:
REMARK  status: ('A' for Active; 'I' for Inactive)
REMARK    1  A    between atoms: N_1  and  C_4
REMARK    2  A    between atoms: C_4  and  C_5
REMARK                            x       y       z     vdW  Elec       q    Type
REMARK                         _______ _______ _______ _____ _____    ______ ____
ROOT
ATOM      1  N   UNL     1     -11.780   5.860   1.677  0.00  0.00    -0.354 N 
ATOM      2  N   UNL     1     -13.033   6.248  -0.233  0.00  0.00    -0.372 N 
ATOM      3  N   UNL     1     -14.010   6.565   1.819  0.00  0.00    -0.372 N 
ATOM      4  C   UNL     1     -12.935   6.223   1.102  0.00  0.00    +0.166 C 
ATOM      5  H   UNL     1     -11.011   5.583   1.078  0.00  0.00    +0.163 HD
ATOM      6  H   UNL     1     -13.890   6.521  -0.694  0.00  0.00    +0.159 HD
ATOM      7  H   UNL     1     -12.248   6.015  -0.829  0.00  0.00    +0.159 HD
ATOM      8  H   UNL     1     -14.004   6.561   2.830  0.00  0.00    +0.159 HD
ATOM      9  H   UNL     1     -14.881   6.830   1.375  0.00  0.00    +0.159 HD
ENDROOT
BRANCH   1  10
ATOM     10  C   UNL     1     -11.553   5.851   3.121  0.00  0.00    +0.151 C 
BRANCH  10  11
ATOM     11  C   UNL     1     -10.418   6.782   3.445  0.00  0.00    -0.028 A 
ATOM     12  C   UNL     1      -9.440   6.414   4.381  0.00  0.00    +0.005 A 
ATOM     13  C   UNL     1     -10.311   8.032   2.817  0.00  0.00    +0.005 A 
ATOM     14  C   UNL     1      -8.369   7.267   4.661  0.00  0.00    +0.000 A 
ATOM     15  C   UNL     1      -9.241   8.881   3.099  0.00  0.00    +0.000 A 
ATOM     16  C   UNL     1      -8.269   8.497   4.020  0.00  0.00    +0.000 A 
ENDBRANCH  10  11
ENDBRANCH   1  10
TORSDOF 2
ENDMDL
MODEL 5
REMARK VINA RESULT:    -5.003     22.556     23.054
REMARK INTER + INTRA:          -5.716
REMARK INTER:                  -5.602
REMARK INTRA:                  -0.114
REMARK UNBOUND:                -0.128
REMARK  Name = 1550473
REMARK  2 active torsions:
REMARK  status: ('A' for Active; 'I' for Inactive)
REMARK    1  A    between atoms: N_1  and  C_4
REMARK    2  A    between atoms: C_4  and  C_5
REMARK                            x       y       z     vdW  Elec       q    Type
REMARK                         _______ _______ _______ _____ _____    ______ ____
ROOT
ATOM      1  N   UNL     1      -9.597   6.409   4.658  0.00  0.00    -0.354 N 
ATOM      2  N   UNL     1      -9.308   8.248   3.280  0.00  0.00    -0.372 N 
ATOM      3  N   UNL     1     -10.869   6.666   2.706  0.00  0.00    -0.372 N 
ATOM      4  C   UNL     1      -9.929   7.094   3.555  0.00  0.00    +0.166 C 
ATOM      5  H   UNL     1      -8.855   6.771   5.245  0.00  0.00    +0.163 HD
ATOM      6  H   UNL     1      -9.539   8.788   2.457  0.00  0.00    +0.159 HD
ATOM      7  H   UNL     1      -8.599   8.631   3.893  0.00  0.00    +0.159 HD
ATOM      8  H   UNL     1     -11.370   5.800   2.853  0.00  0.00    +0.159 HD
ATOM      9  H   UNL     1     -11.106   7.187   1.871  0.00  0.00    +0.159 HD
ENDROOT
BRANCH   1  10
ATOM     10  C   UNL     1     -10.250   5.169   5.077  0.00  0.00    +0.151 C 
BRANCH  10  11
ATOM     11  C   UNL     1      -9.712   4.761   6.420  0.00  0.00    -0.028 A 
ATOM     12  C   UNL     1      -9.412   5.728   7.391  0.00  0.00    +0.005 A 
ATOM     13  C   UNL     1      -9.505   3.408   6.731  0.00  0.00    +0.005 A 
ATOM     14  C   UNL     1      -8.940   5.348   8.650  0.00  0.00    +0.000 A 
ATOM     15  C   UNL     1      -9.033   3.033   7.989  0.00  0.00    +0.000 A 
ATOM     16  C   UNL     1      -8.753   4.002   8.948  0.00  0.00    +0.000 A 
ENDBRANCH  10  11
ENDBRANCH   1  10
TORSDOF 2
ENDMDL
MODEL 6
REMARK VINA RESULT:    -4.922     17.018     18.967
REMARK INTER + INTRA:          -5.626
REMARK INTER:                  -5.526
REMARK INTRA:                  -0.099
REMARK UNBOUND:                -0.128
REMARK  Name = 1550473
REMARK  2 active torsions:
REMARK  status: ('A' for Active; 'I' for Inactive)
REMARK    1  A    between atoms: N_1  and  C_4
REMARK    2  A    between atoms: C_4  and  C_5
REMARK                            x       y       z     vdW  Elec       q    Type
REMARK                         _______ _______ _______ _____ _____    ______ ____
ROOT
ATOM      1  N   UNL     1       5.107  -4.184 -11.652  0.00  0.00    -0.354 N 
ATOM      2  N   UNL     1       6.328  -5.093  -9.906  0.00  0.00    -0.372 N 
ATOM      3  N   UNL     1       7.184  -3.289 -11.037  0.00  0.00    -0.372 N 
ATOM      4  C   UNL     1       6.200  -4.181 -10.878  0.00  0.00    +0.166 C 
ATOM      5  H   UNL     1       4.412  -4.906 -11.500  0.00  0.00    +0.163 HD
ATOM      6  H   UNL     1       7.140  -5.113  -9.304  0.00  0.00    +0.159 HD
ATOM      7  H   UNL     1       5.610  -5.784  -9.726  0.00  0.00    +0.159 HD
ATOM      8  H   UNL     1       7.150  -2.578 -11.756  0.00  0.00    +0.159 HD
ATOM      9  H   UNL     1       8.010  -3.300 -10.452  0.00  0.00    +0.159 HD
ENDROOT
BRANCH   1  10
ATOM     10  C   UNL     1       4.846  -3.202 -12.702  0.00  0.00    +0.151 C 
BRANCH  10  11
ATOM     11  C   UNL     1       3.926  -3.809 -13.726  0.00  0.00    -0.028 A 
ATOM     12  C   UNL     1       2.546  -3.564 -13.677  0.00  0.00    +0.005 A 
ATOM     13  C   UNL     1       4.430  -4.625 -14.750  0.00  0.00    +0.005 A 
ATOM     14  C   UNL     1       1.695  -4.104 -14.645  0.00  0.00    +0.000 A 
ATOM     15  C   UNL     1       3.577  -5.163 -15.714  0.00  0.00    +0.000 A 
ATOM     16  C   UNL     1       2.210  -4.900 -15.662  0.00  0.00    +0.000 A 
ENDBRANCH  10  11
ENDBRANCH   1  10
TORSDOF 2
ENDMDL
MODEL 7
REMARK VINA RESULT:    -4.920     22.428     23.242
REMARK INTER + INTRA:          -5.623
REMARK INTER:                  -5.486
REMARK INTRA:                  -0.137
REMARK UNBOUND:                -0.128
REMARK  Name = 1550473
REMARK  2 active torsions:
REMARK  status: ('A' for Active; 'I' for Inactive)
REMARK    1  A    between atoms: N_1  and  C_4
REMARK    2  A    between atoms: C_4  and  C_5
REMARK                            x       y       z     vdW  Elec       q    Type
REMARK                         _______ _______ _______ _____ _____    ______ ____
ROOT
ATOM      1  N   UNL     1      -9.038   6.324   5.325  0.00  0.00    -0.354 N 
ATOM      2  N   UNL     1      -9.051   5.868   7.596  0.00  0.00    -0.372 N 
ATOM      3  N   UNL     1     -10.893   5.316   6.343  0.00  0.00    -0.372 N 
ATOM      4  C   UNL     1      -9.663   5.838   6.406  0.00  0.00    +0.166 C 
ATOM      5  H   UNL     1      -8.119   6.734   5.445  0.00  0.00    +0.163 HD
ATOM      6  H   UNL     1      -9.497   5.506   8.428  0.00  0.00    +0.159 HD
ATOM      7  H   UNL     1      -8.114   6.237   7.704  0.00  0.00    +0.159 HD
ATOM      8  H   UNL     1     -11.411   5.269   5.476  0.00  0.00    +0.159 HD
ATOM      9  H   UNL     1     -11.360   4.959   7.167  0.00  0.00    +0.159 HD
ENDROOT
BRANCH   1  10
ATOM     10  C   UNL     1      -9.595   6.290   3.974  0.00  0.00    +0.151 C 
BRANCH  10  11
ATOM     11  C   UNL     1      -9.585   7.681   3.403  0.00  0.00    -0.028 A 
ATOM     12  C   UNL     1      -8.546   8.571   3.714  0.00  0.00    +0.005 A 
ATOM     13  C   UNL     1     -10.608   8.114   2.546  0.00  0.00    +0.005 A 
ATOM     14  C   UNL     1      -8.520   9.853   3.161  0.00  0.00    +0.000 A 
ATOM     15  C   UNL     1     -10.579   9.396   1.996  0.00  0.00    +0.000 A 
ATOM     16  C   UNL     1      -9.533  10.264   2.301  0.00  0.00    +0.000 A 
ENDBRANCH  10  11
ENDBRANCH   1  10
TORSDOF 2
ENDMDL
MODEL 8
REMARK VINA RESULT:    -4.871     22.861     23.639
REMARK INTER + INTRA:          -5.569
REMARK INTER:                  -5.437
REMARK INTRA:                  -0.132
REMARK UNBOUND:                -0.128
REMARK  Name = 1550473
REMARK  2 active torsions:
REMARK  status: ('A' for Active; 'I' for Inactive)
REMARK    1  A    between atoms: N_1  and  C_4
REMARK    2  A    between atoms: C_4  and  C_5
REMARK                            x       y       z     vdW  Elec       q    Type
REMARK                         _______ _______ _______ _____ _____    ______ ____
ROOT
ATOM      1  N   UNL     1     -10.441   6.758   4.169  0.00  0.00    -0.354 N 
ATOM      2  N   UNL     1      -9.735   5.232   5.762  0.00  0.00    -0.372 N 
ATOM      3  N   UNL     1     -10.136   4.500   3.625  0.00  0.00    -0.372 N 
ATOM      4  C   UNL     1     -10.109   5.505   4.506  0.00  0.00    +0.166 C 
ATOM      5  H   UNL     1     -10.429   7.470   4.891  0.00  0.00    +0.163 HD
ATOM      6  H   UNL     1      -9.476   4.297   6.045  0.00  0.00    +0.159 HD
ATOM      7  H   UNL     1      -9.680   5.954   6.471  0.00  0.00    +0.159 HD
ATOM      8  H   UNL     1     -10.414   4.638   2.663  0.00  0.00    +0.159 HD
ATOM      9  H   UNL     1      -9.891   3.554   3.892  0.00  0.00    +0.159 HD
ENDROOT
BRANCH   1  10
ATOM     10  C   UNL     1     -10.810   7.171   2.816  0.00  0.00    +0.151 C 
BRANCH  10  11
ATOM     11  C   UNL     1     -10.258   8.545   2.554  0.00  0.00    -0.028 A 
ATOM     12  C   UNL     1     -10.951   9.445   1.731  0.00  0.00    +0.005 A 
ATOM     13  C   UNL     1      -9.046   8.955   3.130  0.00  0.00    +0.005 A 
ATOM     14  C   UNL     1     -10.453  10.732   1.511  0.00  0.00    +0.000 A 
ATOM     15  C   UNL     1      -8.552  10.240   2.907  0.00  0.00    +0.000 A 
ATOM     16  C   UNL     1      -9.257  11.129   2.100  0.00  0.00    +0.000 A 
ENDBRANCH  10  11
ENDBRANCH   1  10
TORSDOF 2
ENDMDL
MODEL 9
REMARK VINA RESULT:    -4.867     11.689     12.244
REMARK INTER + INTRA:          -5.564
REMARK INTER:                  -5.407
REMARK INTRA:                  -0.157
REMARK UNBOUND:                -0.128
REMARK  Name = 1550473
REMARK  2 active torsions:
REMARK  status: ('A' for Active; 'I' for Inactive)
REMARK    1  A    between atoms: N_1  and  C_4
REMARK    2  A    between atoms: C_4  and  C_5
REMARK                            x       y       z     vdW  Elec       q    Type
REMARK                         _______ _______ _______ _____ _____    ______ ____
ROOT
ATOM      1  N   UNL     1       4.094  -7.844  -1.615  0.00  0.00    -0.354 N 
ATOM      2  N   UNL     1       5.106  -9.861  -2.132  0.00  0.00    -0.372 N 
ATOM      3  N   UNL     1       6.321  -8.264  -1.019  0.00  0.00    -0.372 N 
ATOM      4  C   UNL     1       5.169  -8.642  -1.584  0.00  0.00    +0.166 C 
ATOM      5  H   UNL     1       3.260  -8.177  -2.085  0.00  0.00    +0.163 HD
ATOM      6  H   UNL     1       5.901 -10.487  -2.121  0.00  0.00    +0.159 HD
ATOM      7  H   UNL     1       4.258 -10.209  -2.561  0.00  0.00    +0.159 HD
ATOM      8  H   UNL     1       6.435  -7.354  -0.593  0.00  0.00    +0.159 HD
ATOM      9  H   UNL     1       7.130  -8.872  -1.008  0.00  0.00    +0.159 HD
ENDROOT
BRANCH   1  10
ATOM     10  C   UNL     1       4.041  -6.519  -0.999  0.00  0.00    +0.151 C 
BRANCH  10  11
ATOM     11  C   UNL     1       3.771  -5.492  -2.065  0.00  0.00    -0.028 A 
ATOM     12  C   UNL     1       4.709  -5.258  -3.081  0.00  0.00    +0.005 A 
ATOM     13  C   UNL     1       2.577  -4.756  -2.068  0.00  0.00    +0.005 A 
ATOM     14  C   UNL     1       4.446  -4.326  -4.088  0.00  0.00    +0.000 A 
ATOM     15  C   UNL     1       2.318  -3.826  -3.075  0.00  0.00    +0.000 A 
ATOM     16  C   UNL     1       3.252  -3.613  -4.086  0.00  0.00    +0.000 A 
ENDBRANCH  10  11
ENDBRANCH   1  10
TORSDOF 2
ENDMDL
