MODEL 1
REMARK VINA RESULT:    -7.888      0.000      0.000
REMARK INTER + INTRA:          -8.908
REMARK INTER:                  -8.810
REMARK INTRA:                  -0.098
REMARK UNBOUND:                -0.098
REMARK  Name = 1550473
REMARK  2 active torsions:
REMARK  status: ('A' for Active; 'I' for Inactive)
REMARK    1  A    between atoms: N_1  and  C_4
REMARK    2  A    between atoms: C_4  and  C_5
REMARK                            x       y       z     vdW  Elec       q    Type
REMARK                         _______ _______ _______ _____ _____    ______ ____
ROOT
ATOM      1  N   UNL     1      -3.053   2.059  -3.758  0.00  0.00    -0.354 N 
ATOM      2  N   UNL     1      -4.464   0.954  -2.291  0.00  0.00    -0.372 N 
ATOM      3  N   UNL     1      -2.515   1.858  -1.486  0.00  0.00    -0.372 N 
ATOM      4  C   UNL     1      -3.333   1.631  -2.520  0.00  0.00    +0.166 C 
ATOM      5  H   UNL     1      -3.699   1.829  -4.504  0.00  0.00    +0.163 HD
ATOM      6  H   UNL     1      -4.704   0.622  -1.367  0.00  0.00    +0.159 HD
ATOM      7  H   UNL     1      -5.131   0.765  -3.030  0.00  0.00    +0.159 HD
ATOM      8  H   UNL     1      -1.643   2.358  -1.593  0.00  0.00    +0.159 HD
ATOM      9  H   UNL     1      -2.732   1.523  -0.555  0.00  0.00    +0.159 HD
ENDROOT
BRANCH   1  10
ATOM     10  C   UNL     1      -1.874   2.852  -4.102  0.00  0.00    +0.151 C 
BRANCH  10  11
ATOM     11  C   UNL     1      -2.190   3.710  -5.296  0.00  0.00    -0.028 A 
ATOM     12  C   UNL     1      -2.287   3.144  -6.575  0.00  0.00    +0.005 A 
ATOM     13  C   UNL     1      -2.401   5.090  -5.153  0.00  0.00    +0.005 A 
ATOM     14  C   UNL     1      -2.610   3.936  -7.679  0.00  0.00    +0.000 A 
ATOM     15  C   UNL     1      -2.723   5.878  -6.258  0.00  0.00    +0.000 A 
ATOM     16  C   UNL     1      -2.830   5.300  -7.520  0.00  0.00    +0.000 A 
ENDBRANCH  10  11
ENDBRANCH   1  10
TORSDOF 2
ENDMDL
MODEL 2
REMARK VINA RESULT:    -7.033      2.781      3.972
REMARK INTER + INTRA:          -7.953
REMARK INTER:                  -7.832
REMARK INTRA:                  -0.122
REMARK UNBOUND:                -0.098
REMARK  Name = 1550473
REMARK  2 active torsions:
REMARK  status: ('A' for Active; 'I' for Inactive)
REMARK    1  A    between atoms: N_1  and  C_4
REMARK    2  A    between atoms: C_4  and  C_5
REMARK                            x       y       z     vdW  Elec       q    Type
REMARK                         _______ _______ _______ _____ _____    ______ ____
ROOT
ATOM      1  N   UNL     1      -2.332   2.136  -3.711  0.00  0.00    -0.354 N 
ATOM      2  N   UNL     1      -2.838   1.881  -1.465  0.00  0.00    -0.372 N 
ATOM      3  N   UNL     1      -0.640   1.815  -2.121  0.00  0.00    -0.372 N 
ATOM      4  C   UNL     1      -1.930   1.945  -2.447  0.00  0.00    +0.166 C 
ATOM      5  H   UNL     1      -3.326   2.197  -3.896  0.00  0.00    +0.163 HD
ATOM      6  H   UNL     1      -2.565   1.742  -0.502  0.00  0.00    +0.159 HD
ATOM      7  H   UNL     1      -3.828   1.988  -1.647  0.00  0.00    +0.159 HD
ATOM      8  H   UNL     1       0.094   1.848  -2.816  0.00  0.00    +0.159 HD
ATOM      9  H   UNL     1      -0.348   1.663  -1.164  0.00  0.00    +0.159 HD
ENDROOT
BRANCH   1  10
ATOM     10  C   UNL     1      -1.421   2.274  -4.846  0.00  0.00    +0.151 C 
BRANCH  10  11
ATOM     11  C   UNL     1      -1.450   1.008  -5.657  0.00  0.00    -0.028 A 
ATOM     12  C   UNL     1      -1.986   1.005  -6.953  0.00  0.00    +0.005 A 
ATOM     13  C   UNL     1      -0.939  -0.191  -5.136  0.00  0.00    +0.005 A 
ATOM     14  C   UNL     1      -1.987  -0.165  -7.717  0.00  0.00    +0.000 A 
ATOM     15  C   UNL     1      -0.942  -1.356  -5.903  0.00  0.00    +0.000 A 
ATOM     16  C   UNL     1      -1.463  -1.342  -7.194  0.00  0.00    +0.000 A 
ENDBRANCH  10  11
ENDBRANCH   1  10
TORSDOF 2
ENDMDL
MODEL 3
REMARK VINA RESULT:    -6.517      2.918      4.468
REMARK INTER + INTRA:          -7.377
REMARK INTER:                  -7.302
REMARK INTRA:                  -0.075
REMARK UNBOUND:                -0.098
REMARK  Name = 1550473
REMARK  2 active torsions:
REMARK  status: ('A' for Active; 'I' for Inactive)
REMARK    1  A    between atoms: N_1  and  C_4
REMARK    2  A    between atoms: C_4  and  C_5
REMARK                            x       y       z     vdW  Elec       q    Type
REMARK                         _______ _______ _______ _____ _____    ______ ____
ROOT
ATOM      1  N   UNL     1      -1.724   3.470  -4.983  0.00  0.00    -0.354 N 
ATOM      2  N   UNL     1      -2.780   5.395  -5.719  0.00  0.00    -0.372 N 
ATOM      3  N   UNL     1      -3.996   3.842  -4.546  0.00  0.00    -0.372 N 
ATOM      4  C   UNL     1      -2.829   4.222  -5.077  0.00  0.00    +0.166 C 
ATOM      5  H   UNL     1      -0.878   3.799  -5.433  0.00  0.00    +0.163 HD
ATOM      6  H   UNL     1      -3.597   5.986  -5.803  0.00  0.00    +0.159 HD
ATOM      7  H   UNL     1      -1.922   5.743  -6.128  0.00  0.00    +0.159 HD
ATOM      8  H   UNL     1      -4.101   2.965  -4.053  0.00  0.00    +0.159 HD
ATOM      9  H   UNL     1      -4.827   4.414  -4.630  0.00  0.00    +0.159 HD
ENDROOT
BRANCH   1  10
ATOM     10  C   UNL     1      -1.657   2.202  -4.258  0.00  0.00    +0.151 C 
BRANCH  10  11
ATOM     11  C   UNL     1      -1.522   1.077  -5.248  0.00  0.00    -0.028 A 
ATOM     12  C   UNL     1      -1.004  -0.163  -4.849  0.00  0.00    +0.005 A 
ATOM     13  C   UNL     1      -1.915   1.245  -6.585  0.00  0.00    +0.005 A 
ATOM     14  C   UNL     1      -0.906  -1.217  -5.761  0.00  0.00    +0.000 A 
ATOM     15  C   UNL     1      -1.814   0.190  -7.492  0.00  0.00    +0.000 A 
ATOM     16  C   UNL     1      -1.312  -1.041  -7.079  0.00  0.00    +0.000 A 
ENDBRANCH  10  11
ENDBRANCH   1  10
TORSDOF 2
ENDMDL
MODEL 4
REMARK VINA RESULT:    -5.329     12.580     13.943
REMARK INTER + INTRA:          -6.050
REMARK INTER:                  -5.899
REMARK INTRA:                  -0.151
REMARK UNBOUND:                -0.098
REMARK  Name = 1550473
REMARK  2 active torsions:
REMARK  status: ('A' for Active; 'I' for Inactive)
REMARK    1  A    between atoms: N_1  and  C_4
REMARK    2  A    between atoms: C_4  and  C_5
REMARK                            x       y       z     vdW  Elec       q    Type
REMARK                         _______ _______ _______ _____ _____    ______ ____
ROOT
ATOM      1  N   UNL     1     -11.043  12.767  -8.113  0.00  0.00    -0.354 N 
ATOM      2  N   UNL     1      -9.658  11.517  -6.742  0.00  0.00    -0.372 N 
ATOM      3  N   UNL     1      -9.452  13.802  -6.739  0.00  0.00    -0.372 N 
ATOM      4  C   UNL     1     -10.059  12.706  -7.206  0.00  0.00    +0.166 C 
ATOM      5  H   UNL     1     -11.442  11.898  -8.450  0.00  0.00    +0.163 HD
ATOM      6  H   UNL     1      -8.920  11.439  -6.055  0.00  0.00    +0.159 HD
ATOM      7  H   UNL     1     -10.090  10.653  -7.046  0.00  0.00    +0.159 HD
ATOM      8  H   UNL     1      -9.704  14.729  -7.054  0.00  0.00    +0.159 HD
ATOM      9  H   UNL     1      -8.703  13.744  -6.060  0.00  0.00    +0.159 HD
ENDROOT
BRANCH   1  10
ATOM     10  C   UNL     1     -11.591  14.015  -8.643  0.00  0.00    +0.151 C 
BRANCH  10  11
ATOM     11  C   UNL     1     -11.083  14.218 -10.044  0.00  0.00    -0.028 A 
ATOM     12  C   UNL     1     -10.678  13.122 -10.820  0.00  0.00    +0.005 A 
ATOM     13  C   UNL     1     -11.011  15.503 -10.603  0.00  0.00    +0.005 A 
ATOM     14  C   UNL     1     -10.235  13.307 -12.132  0.00  0.00    +0.000 A 
ATOM     15  C   UNL     1     -10.567  15.684 -11.913  0.00  0.00    +0.000 A 
ATOM     16  C   UNL     1     -10.182  14.585 -12.678  0.00  0.00    +0.000 A 
ENDBRANCH  10  11
ENDBRANCH   1  10
TORSDOF 2
ENDMDL
MODEL 5
REMARK VINA RESULT:    -5.300     12.633     13.802
REMARK INTER + INTRA:          -6.017
REMARK INTER:                  -5.959
REMARK INTRA:                  -0.058
REMARK UNBOUND:                -0.098
REMARK  Name = 1550473
REMARK  2 active torsions:
REMARK  status: ('A' for Active; 'I' for Inactive)
REMARK    1  A    between atoms: N_1  and  C_4
REMARK    2  A    between atoms: C_4  and  C_5
REMARK                            x       y       z     vdW  Elec       q    Type
REMARK                         _______ _______ _______ _____ _____    ______ ____
ROOT
ATOM      1  N   UNL     1     -11.351  12.928  -5.834  0.00  0.00    -0.354 N 
ATOM      2  N   UNL     1      -9.485  13.971  -6.725  0.00  0.00    -0.372 N 
ATOM      3  N   UNL     1      -9.605  11.681  -6.777  0.00  0.00    -0.372 N 
ATOM      4  C   UNL     1     -10.158  12.850  -6.440  0.00  0.00    +0.166 C 
ATOM      5  H   UNL     1     -11.701  13.844  -5.577  0.00  0.00    +0.163 HD
ATOM      6  H   UNL     1      -8.584  13.944  -7.185  0.00  0.00    +0.159 HD
ATOM      7  H   UNL     1      -9.858  14.887  -6.509  0.00  0.00    +0.159 HD
ATOM      8  H   UNL     1     -10.060  10.798  -6.584  0.00  0.00    +0.159 HD
ATOM      9  H   UNL     1      -8.700  11.632  -7.227  0.00  0.00    +0.159 HD
ENDROOT
BRANCH   1  10
ATOM     10  C   UNL     1     -12.189  11.770  -5.528  0.00  0.00    +0.151 C 
BRANCH  10  11
ATOM     11  C   UNL     1     -13.228  11.618  -6.604  0.00  0.00    -0.028 A 
ATOM     12  C   UNL     1     -13.388  12.608  -7.585  0.00  0.00    +0.005 A 
ATOM     13  C   UNL     1     -14.053  10.484  -6.652  0.00  0.00    +0.005 A 
ATOM     14  C   UNL     1     -14.333  12.454  -8.602  0.00  0.00    +0.000 A 
ATOM     15  C   UNL     1     -14.995  10.333  -7.669  0.00  0.00    +0.000 A 
ATOM     16  C   UNL     1     -15.134  11.317  -8.645  0.00  0.00    +0.000 A 
ENDBRANCH  10  11
ENDBRANCH   1  10
TORSDOF 2
ENDMDL
MODEL 6
REMARK VINA RESULT:    -5.036     21.463     22.490
REMARK INTER + INTRA:          -5.723
REMARK INTER:                  -5.625
REMARK INTRA:                  -0.098
REMARK UNBOUND:                -0.098
REMARK  Name = 1550473
REMARK  2 active torsions:
REMARK  status: ('A' for Active; 'I' for Inactive)
REMARK    1  A    between atoms: N_1  and  C_4
REMARK    2  A    between atoms: C_4  and  C_5
REMARK                            x       y       z     vdW  Elec       q    Type
REMARK                         _______ _______ _______ _____ _____    ______ ____
ROOT
ATOM      1  N   UNL     1      16.342  -9.643  -1.717  0.00  0.00    -0.354 N 
ATOM      2  N   UNL     1      15.464 -11.439  -0.548  0.00  0.00    -0.372 N 
ATOM      3  N   UNL     1      17.490 -10.579   0.099  0.00  0.00    -0.372 N 
ATOM      4  C   UNL     1      16.440 -10.542  -0.729  0.00  0.00    +0.166 C 
ATOM      5  H   UNL     1      15.535  -9.687  -2.329  0.00  0.00    +0.163 HD
ATOM      6  H   UNL     1      15.508 -12.127   0.191  0.00  0.00    +0.159 HD
ATOM      7  H   UNL     1      14.636 -11.451  -1.133  0.00  0.00    +0.159 HD
ATOM      8  H   UNL     1      18.263  -9.934   0.012  0.00  0.00    +0.159 HD
ATOM      9  H   UNL     1      17.558 -11.268   0.838  0.00  0.00    +0.159 HD
ENDROOT
BRANCH   1  10
ATOM     10  C   UNL     1      17.325  -8.590  -1.965  0.00  0.00    +0.151 C 
BRANCH  10  11
ATOM     11  C   UNL     1      16.707  -7.538  -2.844  0.00  0.00    -0.028 A 
ATOM     12  C   UNL     1      16.584  -6.215  -2.393  0.00  0.00    +0.005 A 
ATOM     13  C   UNL     1      16.246  -7.856  -4.131  0.00  0.00    +0.005 A 
ATOM     14  C   UNL     1      16.037  -5.232  -3.221  0.00  0.00    +0.000 A 
ATOM     15  C   UNL     1      15.700  -6.871  -4.954  0.00  0.00    +0.000 A 
ATOM     16  C   UNL     1      15.598  -5.559  -4.499  0.00  0.00    +0.000 A 
ENDBRANCH  10  11
ENDBRANCH   1  10
TORSDOF 2
ENDMDL
MODEL 7
REMARK VINA RESULT:    -4.967     25.438     26.731
REMARK INTER + INTRA:          -5.646
REMARK INTER:                  -5.498
REMARK INTRA:                  -0.147
REMARK UNBOUND:                -0.098
REMARK  Name = 1550473
REMARK  2 active torsions:
REMARK  status: ('A' for Active; 'I' for Inactive)
REMARK    1  A    between atoms: N_1  and  C_4
REMARK    2  A    between atoms: C_4  and  C_5
REMARK                            x       y       z     vdW  Elec       q    Type
REMARK                         _______ _______ _______ _____ _____    ______ ____
ROOT
ATOM      1  N   UNL     1      -5.500  15.838  17.653  0.00  0.00    -0.354 N 
ATOM      2  N   UNL     1      -6.170  13.874  16.624  0.00  0.00    -0.372 N 
ATOM      3  N   UNL     1      -5.836  13.878  18.894  0.00  0.00    -0.372 N 
ATOM      4  C   UNL     1      -5.831  14.542  17.733  0.00  0.00    +0.166 C 
ATOM      5  H   UNL     1      -5.487  16.275  16.739  0.00  0.00    +0.163 HD
ATOM      6  H   UNL     1      -6.428  12.896  16.654  0.00  0.00    +0.159 HD
ATOM      7  H   UNL     1      -6.200  14.326  15.718  0.00  0.00    +0.159 HD
ATOM      8  H   UNL     1      -5.583  14.323  19.766  0.00  0.00    +0.159 HD
ATOM      9  H   UNL     1      -6.079  12.897  18.942  0.00  0.00    +0.159 HD
ENDROOT
BRANCH   1  10
ATOM     10  C   UNL     1      -5.167  16.669  18.808  0.00  0.00    +0.151 C 
BRANCH  10  11
ATOM     11  C   UNL     1      -3.791  17.245  18.618  0.00  0.00    -0.028 A 
ATOM     12  C   UNL     1      -3.624  18.520  18.056  0.00  0.00    +0.005 A 
ATOM     13  C   UNL     1      -2.650  16.524  19.002  0.00  0.00    +0.005 A 
ATOM     14  C   UNL     1      -2.347  19.067  17.907  0.00  0.00    +0.000 A 
ATOM     15  C   UNL     1      -1.377  17.074  18.851  0.00  0.00    +0.000 A 
ATOM     16  C   UNL     1      -1.227  18.347  18.306  0.00  0.00    +0.000 A 
ENDBRANCH  10  11
ENDBRANCH   1  10
TORSDOF 2
ENDMDL
