MODEL 1
REMARK VINA RESULT:    -5.246      0.000      0.000
REMARK INTER + INTRA:          -5.983
REMARK INTER:                  -5.859
REMARK INTRA:                  -0.124
REMARK UNBOUND:                -0.124
REMARK  Name = 1550473
REMARK  2 active torsions:
REMARK  status: ('A' for Active; 'I' for Inactive)
REMARK    1  A    between atoms: N_1  and  C_4
REMARK    2  A    between atoms: C_4  and  C_5
REMARK                            x       y       z     vdW  Elec       q    Type
REMARK                         _______ _______ _______ _____ _____    ______ ____
ROOT
ATOM      1  N   UNL     1      -4.032   8.964   2.483  0.00  0.00    -0.354 N 
ATOM      2  N   UNL     1      -3.131  10.803   1.402  0.00  0.00    -0.372 N 
ATOM      3  N   UNL     1      -3.010  10.693   3.691  0.00  0.00    -0.372 N 
ATOM      4  C   UNL     1      -3.396  10.142   2.535  0.00  0.00    +0.166 C 
ATOM      5  H   UNL     1      -4.325   8.615   1.578  0.00  0.00    +0.163 HD
ATOM      6  H   UNL     1      -2.650  11.693   1.410  0.00  0.00    +0.159 HD
ATOM      7  H   UNL     1      -3.384  10.430   0.495  0.00  0.00    +0.159 HD
ATOM      8  H   UNL     1      -3.186  10.248   4.581  0.00  0.00    +0.159 HD
ATOM      9  H   UNL     1      -2.538  11.588   3.720  0.00  0.00    +0.159 HD
ENDROOT
BRANCH   1  10
ATOM     10  C   UNL     1      -4.321   8.138   3.655  0.00  0.00    +0.151 C 
BRANCH  10  11
ATOM     11  C   UNL     1      -4.462   6.705   3.223  0.00  0.00    -0.028 A 
ATOM     12  C   UNL     1      -4.683   6.386   1.875  0.00  0.00    +0.005 A 
ATOM     13  C   UNL     1      -4.368   5.661   4.156  0.00  0.00    +0.005 A 
ATOM     14  C   UNL     1      -4.784   5.053   1.469  0.00  0.00    +0.000 A 
ATOM     15  C   UNL     1      -4.471   4.331   3.746  0.00  0.00    +0.000 A 
ATOM     16  C   UNL     1      -4.676   4.028   2.403  0.00  0.00    +0.000 A 
ENDBRANCH  10  11
ENDBRANCH   1  10
TORSDOF 2
ENDMDL
MODEL 2
REMARK VINA RESULT:    -4.556     30.985     32.508
REMARK INTER + INTRA:          -5.213
REMARK INTER:                  -5.085
REMARK INTRA:                  -0.128
REMARK UNBOUND:                -0.124
REMARK  Name = 1550473
REMARK  2 active torsions:
REMARK  status: ('A' for Active; 'I' for Inactive)
REMARK    1  A    between atoms: N_1  and  C_4
REMARK    2  A    between atoms: C_4  and  C_5
REMARK                            x       y       z     vdW  Elec       q    Type
REMARK                         _______ _______ _______ _____ _____    ______ ____
ROOT
ATOM      1  N   UNL     1     -12.911  39.009  -0.818  0.00  0.00    -0.354 N 
ATOM      2  N   UNL     1     -14.293  38.553  -2.620  0.00  0.00    -0.372 N 
ATOM      3  N   UNL     1     -13.146  40.540  -2.576  0.00  0.00    -0.372 N 
ATOM      4  C   UNL     1     -13.440  39.373  -1.993  0.00  0.00    +0.166 C 
ATOM      5  H   UNL     1     -13.198  38.124  -0.414  0.00  0.00    +0.163 HD
ATOM      6  H   UNL     1     -14.705  38.799  -3.509  0.00  0.00    +0.159 HD
ATOM      7  H   UNL     1     -14.542  37.649  -2.236  0.00  0.00    +0.159 HD
ATOM      8  H   UNL     1     -12.514  41.206  -2.153  0.00  0.00    +0.159 HD
ATOM      9  H   UNL     1     -13.557  40.809  -3.461  0.00  0.00    +0.159 HD
ENDROOT
BRANCH   1  10
ATOM     10  C   UNL     1     -11.931  39.805  -0.080  0.00  0.00    +0.151 C 
BRANCH  10  11
ATOM     11  C   UNL     1     -11.144  38.899   0.825  0.00  0.00    -0.028 A 
ATOM     12  C   UNL     1     -11.464  37.537   0.924  0.00  0.00    +0.005 A 
ATOM     13  C   UNL     1     -10.072  39.395   1.584  0.00  0.00    +0.005 A 
ATOM     14  C   UNL     1     -10.714  36.689   1.742  0.00  0.00    +0.000 A 
ATOM     15  C   UNL     1      -9.326  38.545   2.400  0.00  0.00    +0.000 A 
ATOM     16  C   UNL     1      -9.646  37.192   2.477  0.00  0.00    +0.000 A 
ENDBRANCH  10  11
ENDBRANCH   1  10
TORSDOF 2
ENDMDL
MODEL 3
REMARK VINA RESULT:    -4.428     21.479     22.390
REMARK INTER + INTRA:          -5.070
REMARK INTER:                  -4.951
REMARK INTRA:                  -0.119
REMARK UNBOUND:                -0.124
REMARK  Name = 1550473
REMARK  2 active torsions:
REMARK  status: ('A' for Active; 'I' for Inactive)
REMARK    1  A    between atoms: N_1  and  C_4
REMARK    2  A    between atoms: C_4  and  C_5
REMARK                            x       y       z     vdW  Elec       q    Type
REMARK                         _______ _______ _______ _____ _____    ______ ____
ROOT
ATOM      1  N   UNL     1       6.775 -10.896  -3.294  0.00  0.00    -0.354 N 
ATOM      2  N   UNL     1       8.264  -9.126  -3.187  0.00  0.00    -0.372 N 
ATOM      3  N   UNL     1       8.653 -10.813  -4.693  0.00  0.00    -0.372 N 
ATOM      4  C   UNL     1       7.889 -10.292  -3.727  0.00  0.00    +0.166 C 
ATOM      5  H   UNL     1       6.256 -10.464  -2.538  0.00  0.00    +0.163 HD
ATOM      6  H   UNL     1       9.098  -8.645  -3.496  0.00  0.00    +0.159 HD
ATOM      7  H   UNL     1       7.719  -8.674  -2.464  0.00  0.00    +0.159 HD
ATOM      8  H   UNL     1       8.428 -11.693  -5.137  0.00  0.00    +0.159 HD
ATOM      9  H   UNL     1       9.497 -10.353  -5.008  0.00  0.00    +0.159 HD
ENDROOT
BRANCH   1  10
ATOM     10  C   UNL     1       6.249 -12.141  -3.852  0.00  0.00    +0.151 C 
BRANCH  10  11
ATOM     11  C   UNL     1       4.969 -12.494  -3.146  0.00  0.00    -0.028 A 
ATOM     12  C   UNL     1       4.040 -13.356  -3.747  0.00  0.00    +0.005 A 
ATOM     13  C   UNL     1       4.683 -11.976  -1.874  0.00  0.00    +0.005 A 
ATOM     14  C   UNL     1       2.864 -13.708  -3.079  0.00  0.00    +0.000 A 
ATOM     15  C   UNL     1       3.509 -12.330  -1.211  0.00  0.00    +0.000 A 
ATOM     16  C   UNL     1       2.601 -13.198  -1.812  0.00  0.00    +0.000 A 
ENDBRANCH  10  11
ENDBRANCH   1  10
TORSDOF 2
ENDMDL
MODEL 4
REMARK VINA RESULT:    -4.344     21.935     23.034
REMARK INTER + INTRA:          -4.976
REMARK INTER:                  -4.847
REMARK INTRA:                  -0.128
REMARK UNBOUND:                -0.124
REMARK  Name = 1550473
REMARK  2 active torsions:
REMARK  status: ('A' for Active; 'I' for Inactive)
REMARK    1  A    between atoms: N_1  and  C_4
REMARK    2  A    between atoms: C_4  and  C_5
REMARK                            x       y       z     vdW  Elec       q    Type
REMARK                         _______ _______ _______ _____ _____    ______ ____
ROOT
ATOM      1  N   UNL     1       8.412  -9.493  -5.045  0.00  0.00    -0.354 N 
ATOM      2  N   UNL     1       8.736  -8.965  -2.813  0.00  0.00    -0.372 N 
ATOM      3  N   UNL     1       7.059 -10.426  -3.375  0.00  0.00    -0.372 N 
ATOM      4  C   UNL     1       8.064  -9.633  -3.758  0.00  0.00    +0.166 C 
ATOM      5  H   UNL     1       9.164  -8.853  -5.273  0.00  0.00    +0.163 HD
ATOM      6  H   UNL     1       8.498  -9.053  -1.834  0.00  0.00    +0.159 HD
ATOM      7  H   UNL     1       9.517  -8.361  -3.040  0.00  0.00    +0.159 HD
ATOM      8  H   UNL     1       6.509 -10.954  -4.040  0.00  0.00    +0.159 HD
ATOM      9  H   UNL     1       6.798 -10.519  -2.401  0.00  0.00    +0.159 HD
ENDROOT
BRANCH   1  10
ATOM     10  C   UNL     1       7.781 -10.218  -6.146  0.00  0.00    +0.151 C 
BRANCH  10  11
ATOM     11  C   UNL     1       8.007  -9.461  -7.426  0.00  0.00    -0.028 A 
ATOM     12  C   UNL     1       8.615  -8.198  -7.407  0.00  0.00    +0.005 A 
ATOM     13  C   UNL     1       7.621 -10.005  -8.660  0.00  0.00    +0.005 A 
ATOM     14  C   UNL     1       8.853  -7.507  -8.599  0.00  0.00    +0.000 A 
ATOM     15  C   UNL     1       7.860  -9.313  -9.847  0.00  0.00    +0.000 A 
ATOM     16  C   UNL     1       8.478  -8.065  -9.816  0.00  0.00    +0.000 A 
ENDBRANCH  10  11
ENDBRANCH   1  10
TORSDOF 2
ENDMDL
MODEL 5
REMARK VINA RESULT:    -4.282     10.472     11.810
REMARK INTER + INTRA:          -4.907
REMARK INTER:                  -4.728
REMARK INTRA:                  -0.179
REMARK UNBOUND:                -0.124
REMARK  Name = 1550473
REMARK  2 active torsions:
REMARK  status: ('A' for Active; 'I' for Inactive)
REMARK    1  A    between atoms: N_1  and  C_4
REMARK    2  A    between atoms: C_4  and  C_5
REMARK                            x       y       z     vdW  Elec       q    Type
REMARK                         _______ _______ _______ _____ _____    ______ ____
ROOT
ATOM      1  N   UNL     1       3.874  13.252   1.385  0.00  0.00    -0.354 N 
ATOM      2  N   UNL     1       3.050  14.983   0.085  0.00  0.00    -0.372 N 
ATOM      3  N   UNL     1       4.067  15.482   2.081  0.00  0.00    -0.372 N 
ATOM      4  C   UNL     1       3.670  14.562   1.195  0.00  0.00    +0.166 C 
ATOM      5  H   UNL     1       3.522  12.604   0.690  0.00  0.00    +0.163 HD
ATOM      6  H   UNL     1       2.886  15.966  -0.087  0.00  0.00    +0.159 HD
ATOM      7  H   UNL     1       2.740  14.337  -0.630  0.00  0.00    +0.159 HD
ATOM      8  H   UNL     1       4.535  15.229   2.941  0.00  0.00    +0.159 HD
ATOM      9  H   UNL     1       3.901  16.469   1.932  0.00  0.00    +0.159 HD
ENDROOT
BRANCH   1  10
ATOM     10  C   UNL     1       4.586  12.694   2.533  0.00  0.00    +0.151 C 
BRANCH  10  11
ATOM     11  C   UNL     1       5.996  12.367   2.125  0.00  0.00    -0.028 A 
ATOM     12  C   UNL     1       7.031  13.289   2.338  0.00  0.00    +0.005 A 
ATOM     13  C   UNL     1       6.304  11.134   1.529  0.00  0.00    +0.005 A 
ATOM     14  C   UNL     1       8.346  12.974   1.986  0.00  0.00    +0.000 A 
ATOM     15  C   UNL     1       7.618  10.823   1.179  0.00  0.00    +0.000 A 
ATOM     16  C   UNL     1       8.639  11.742   1.410  0.00  0.00    +0.000 A 
ENDBRANCH  10  11
ENDBRANCH   1  10
TORSDOF 2
ENDMDL
MODEL 6
REMARK VINA RESULT:    -4.272      6.960      8.684
REMARK INTER + INTRA:          -4.895
REMARK INTER:                  -4.778
REMARK INTRA:                  -0.118
REMARK UNBOUND:                -0.124
REMARK  Name = 1550473
REMARK  2 active torsions:
REMARK  status: ('A' for Active; 'I' for Inactive)
REMARK    1  A    between atoms: N_1  and  C_4
REMARK    2  A    between atoms: C_4  and  C_5
REMARK                            x       y       z     vdW  Elec       q    Type
REMARK                         _______ _______ _______ _____ _____    ______ ____
ROOT
ATOM      1  N   UNL     1      -4.602   1.469   6.620  0.00  0.00    -0.354 N 
ATOM      2  N   UNL     1      -4.561   3.762   6.943  0.00  0.00    -0.372 N 
ATOM      3  N   UNL     1      -4.282   2.936   4.821  0.00  0.00    -0.372 N 
ATOM      4  C   UNL     1      -4.481   2.707   6.123  0.00  0.00    +0.166 C 
ATOM      5  H   UNL     1      -4.721   1.362   7.621  0.00  0.00    +0.163 HD
ATOM      6  H   UNL     1      -4.477   4.708   6.596  0.00  0.00    +0.159 HD
ATOM      7  H   UNL     1      -4.727   3.654   7.936  0.00  0.00    +0.159 HD
ATOM      8  H   UNL     1      -4.206   2.183   4.150  0.00  0.00    +0.159 HD
ATOM      9  H   UNL     1      -4.184   3.875   4.456  0.00  0.00    +0.159 HD
ENDROOT
BRANCH   1  10
ATOM     10  C   UNL     1      -4.583   0.256   5.805  0.00  0.00    +0.151 C 
BRANCH  10  11
ATOM     11  C   UNL     1      -4.279  -0.924   6.687  0.00  0.00    -0.028 A 
ATOM     12  C   UNL     1      -4.945  -2.144   6.499  0.00  0.00    +0.005 A 
ATOM     13  C   UNL     1      -3.322  -0.829   7.709  0.00  0.00    +0.005 A 
ATOM     14  C   UNL     1      -4.641  -3.248   7.299  0.00  0.00    +0.000 A 
ATOM     15  C   UNL     1      -3.022  -1.934   8.506  0.00  0.00    +0.000 A 
ATOM     16  C   UNL     1      -3.680  -3.144   8.299  0.00  0.00    +0.000 A 
ENDBRANCH  10  11
ENDBRANCH   1  10
TORSDOF 2
ENDMDL
MODEL 7
REMARK VINA RESULT:    -4.246      3.013      4.232
REMARK INTER + INTRA:          -4.866
REMARK INTER:                  -4.744
REMARK INTRA:                  -0.122
REMARK UNBOUND:                -0.124
REMARK  Name = 1550473
REMARK  2 active torsions:
REMARK  status: ('A' for Active; 'I' for Inactive)
REMARK    1  A    between atoms: N_1  and  C_4
REMARK    2  A    between atoms: C_4  and  C_5
REMARK                            x       y       z     vdW  Elec       q    Type
REMARK                         _______ _______ _______ _____ _____    ______ ____
ROOT
ATOM      1  N   UNL     1      -2.738  11.285   5.566  0.00  0.00    -0.354 N 
ATOM      2  N   UNL     1      -0.872  12.005   6.735  0.00  0.00    -0.372 N 
ATOM      3  N   UNL     1      -2.672  13.414   6.544  0.00  0.00    -0.372 N 
ATOM      4  C   UNL     1      -2.108  12.232   6.274  0.00  0.00    +0.166 C 
ATOM      5  H   UNL     1      -2.244  10.422   5.370  0.00  0.00    +0.163 HD
ATOM      6  H   UNL     1      -0.373  12.699   7.274  0.00  0.00    +0.159 HD
ATOM      7  H   UNL     1      -0.398  11.124   6.576  0.00  0.00    +0.159 HD
ATOM      8  H   UNL     1      -3.601  13.651   6.220  0.00  0.00    +0.159 HD
ATOM      9  H   UNL     1      -2.184  14.126   7.073  0.00  0.00    +0.159 HD
ENDROOT
BRANCH   1  10
ATOM     10  C   UNL     1      -4.105  11.413   5.065  0.00  0.00    +0.151 C 
BRANCH  10  11
ATOM     11  C   UNL     1      -4.646  10.043   4.760  0.00  0.00    -0.028 A 
ATOM     12  C   UNL     1      -6.025   9.842   4.601  0.00  0.00    +0.005 A 
ATOM     13  C   UNL     1      -3.785   8.945   4.621  0.00  0.00    +0.005 A 
ATOM     14  C   UNL     1      -6.526   8.575   4.288  0.00  0.00    +0.000 A 
ATOM     15  C   UNL     1      -4.288   7.682   4.309  0.00  0.00    +0.000 A 
ATOM     16  C   UNL     1      -5.658   7.498   4.140  0.00  0.00    +0.000 A 
ENDBRANCH  10  11
ENDBRANCH   1  10
TORSDOF 2
ENDMDL
MODEL 8
REMARK VINA RESULT:    -4.140      8.712     10.114
REMARK INTER + INTRA:          -4.748
REMARK INTER:                  -4.613
REMARK INTRA:                  -0.136
REMARK UNBOUND:                -0.124
REMARK  Name = 1550473
REMARK  2 active torsions:
REMARK  status: ('A' for Active; 'I' for Inactive)
REMARK    1  A    between atoms: N_1  and  C_4
REMARK    2  A    between atoms: C_4  and  C_5
REMARK                            x       y       z     vdW  Elec       q    Type
REMARK                         _______ _______ _______ _____ _____    ______ ____
ROOT
ATOM      1  N   UNL     1      -6.388  -1.237   4.896  0.00  0.00    -0.354 N 
ATOM      2  N   UNL     1      -7.980  -2.822   4.331  0.00  0.00    -0.372 N 
ATOM      3  N   UNL     1      -5.973  -2.821   3.220  0.00  0.00    -0.372 N 
ATOM      4  C   UNL     1      -6.768  -2.284   4.150  0.00  0.00    +0.166 C 
ATOM      5  H   UNL     1      -7.049  -0.857   5.564  0.00  0.00    +0.163 HD
ATOM      6  H   UNL     1      -8.293  -3.614   3.786  0.00  0.00    +0.159 HD
ATOM      7  H   UNL     1      -8.621  -2.469   5.031  0.00  0.00    +0.159 HD
ATOM      8  H   UNL     1      -5.048  -2.458   3.030  0.00  0.00    +0.159 HD
ATOM      9  H   UNL     1      -6.272  -3.607   2.656  0.00  0.00    +0.159 HD
ENDROOT
BRANCH   1  10
ATOM     10  C   UNL     1      -5.070  -0.612   4.816  0.00  0.00    +0.151 C 
BRANCH  10  11
ATOM     11  C   UNL     1      -4.505  -0.476   6.203  0.00  0.00    -0.028 A 
ATOM     12  C   UNL     1      -4.332   0.791   6.780  0.00  0.00    +0.005 A 
ATOM     13  C   UNL     1      -4.147  -1.610   6.948  0.00  0.00    +0.005 A 
ATOM     14  C   UNL     1      -3.836   0.916   8.080  0.00  0.00    +0.000 A 
ATOM     15  C   UNL     1      -3.651  -1.481   8.245  0.00  0.00    +0.000 A 
ATOM     16  C   UNL     1      -3.498  -0.218   8.812  0.00  0.00    +0.000 A 
ENDBRANCH  10  11
ENDBRANCH   1  10
TORSDOF 2
ENDMDL
MODEL 9
REMARK VINA RESULT:    -4.118      6.806      8.127
REMARK INTER + INTRA:          -4.724
REMARK INTER:                  -4.571
REMARK INTRA:                  -0.153
REMARK UNBOUND:                -0.124
REMARK  Name = 1550473
REMARK  2 active torsions:
REMARK  status: ('A' for Active; 'I' for Inactive)
REMARK    1  A    between atoms: N_1  and  C_4
REMARK    2  A    between atoms: C_4  and  C_5
REMARK                            x       y       z     vdW  Elec       q    Type
REMARK                         _______ _______ _______ _____ _____    ______ ____
ROOT
ATOM      1  N   UNL     1      -5.124   1.723   8.203  0.00  0.00    -0.354 N 
ATOM      2  N   UNL     1      -6.619   3.489   8.290  0.00  0.00    -0.372 N 
ATOM      3  N   UNL     1      -4.697   3.724   7.060  0.00  0.00    -0.372 N 
ATOM      4  C   UNL     1      -5.468   2.968   7.849  0.00  0.00    +0.166 C 
ATOM      5  H   UNL     1      -5.738   1.213   8.828  0.00  0.00    +0.163 HD
ATOM      6  H   UNL     1      -6.907   4.425   8.037  0.00  0.00    +0.159 HD
ATOM      7  H   UNL     1      -7.253   2.961   8.877  0.00  0.00    +0.159 HD
ATOM      8  H   UNL     1      -3.813   3.391   6.698  0.00  0.00    +0.159 HD
ATOM      9  H   UNL     1      -4.962   4.667   6.805  0.00  0.00    +0.159 HD
ENDROOT
BRANCH   1  10
ATOM     10  C   UNL     1      -3.918   1.043   7.733  0.00  0.00    +0.151 C 
BRANCH  10  11
ATOM     11  C   UNL     1      -4.301   0.019   6.701  0.00  0.00    -0.028 A 
ATOM     12  C   UNL     1      -4.345  -1.343   7.031  0.00  0.00    +0.005 A 
ATOM     13  C   UNL     1      -4.628   0.406   5.392  0.00  0.00    +0.005 A 
ATOM     14  C   UNL     1      -4.730  -2.291   6.080  0.00  0.00    +0.000 A 
ATOM     15  C   UNL     1      -5.011  -0.544   4.445  0.00  0.00    +0.000 A 
ATOM     16  C   UNL     1      -5.065  -1.892   4.790  0.00  0.00    +0.000 A 
ENDBRANCH  10  11
ENDBRANCH   1  10
TORSDOF 2
ENDMDL
