MODEL 1
REMARK VINA RESULT:    -5.380      0.000      0.000
REMARK INTER + INTRA:          -6.125
REMARK INTER:                  -6.009
REMARK INTRA:                  -0.116
REMARK UNBOUND:                -0.116
REMARK  Name = 1550473
REMARK  2 active torsions:
REMARK  status: ('A' for Active; 'I' for Inactive)
REMARK    1  A    between atoms: N_1  and  C_4
REMARK    2  A    between atoms: C_4  and  C_5
REMARK                            x       y       z     vdW  Elec       q    Type
REMARK                         _______ _______ _______ _____ _____    ______ ____
ROOT
ATOM      1  N   UNL     1     -13.501 -10.963  -3.275  0.00  0.00    -0.354 N 
ATOM      2  N   UNL     1     -13.106 -10.322  -1.084  0.00  0.00    -0.372 N 
ATOM      3  N   UNL     1     -11.708 -11.858  -2.061  0.00  0.00    -0.372 N 
ATOM      4  C   UNL     1     -12.772 -11.054  -2.154  0.00  0.00    +0.166 C 
ATOM      5  H   UNL     1     -14.314 -10.358  -3.272  0.00  0.00    +0.163 HD
ATOM      6  H   UNL     1     -12.573 -10.367  -0.226  0.00  0.00    +0.159 HD
ATOM      7  H   UNL     1     -13.892  -9.684  -1.099  0.00  0.00    +0.159 HD
ATOM      8  H   UNL     1     -11.407 -12.440  -2.830  0.00  0.00    +0.159 HD
ATOM      9  H   UNL     1     -11.168 -11.926  -1.207  0.00  0.00    +0.159 HD
ENDROOT
BRANCH   1  10
ATOM     10  C   UNL     1     -13.191 -11.676  -4.512  0.00  0.00    +0.151 C 
BRANCH  10  11
ATOM     11  C   UNL     1     -13.235 -10.707  -5.662  0.00  0.00    -0.028 A 
ATOM     12  C   UNL     1     -12.051 -10.285  -6.283  0.00  0.00    +0.005 A 
ATOM     13  C   UNL     1     -14.459 -10.212  -6.138  0.00  0.00    +0.005 A 
ATOM     14  C   UNL     1     -12.093  -9.409  -7.370  0.00  0.00    +0.000 A 
ATOM     15  C   UNL     1     -14.497  -9.336  -7.223  0.00  0.00    +0.000 A 
ATOM     16  C   UNL     1     -13.314  -8.937  -7.840  0.00  0.00    +0.000 A 
ENDBRANCH  10  11
ENDBRANCH   1  10
TORSDOF 2
ENDMDL
MODEL 2
REMARK VINA RESULT:    -5.136     21.119     22.317
REMARK INTER + INTRA:          -5.853
REMARK INTER:                  -5.687
REMARK INTRA:                  -0.166
REMARK UNBOUND:                -0.116
REMARK  Name = 1550473
REMARK  2 active torsions:
REMARK  status: ('A' for Active; 'I' for Inactive)
REMARK    1  A    between atoms: N_1  and  C_4
REMARK    2  A    between atoms: C_4  and  C_5
REMARK                            x       y       z     vdW  Elec       q    Type
REMARK                         _______ _______ _______ _____ _____    ______ ____
ROOT
ATOM      1  N   UNL     1       2.725 -14.655  10.041  0.00  0.00    -0.354 N 
ATOM      2  N   UNL     1       1.219 -13.453  11.326  0.00  0.00    -0.372 N 
ATOM      3  N   UNL     1       0.915 -13.541   9.053  0.00  0.00    -0.372 N 
ATOM      4  C   UNL     1       1.629 -13.890  10.129  0.00  0.00    +0.166 C 
ATOM      5  H   UNL     1       3.239 -14.860  10.890  0.00  0.00    +0.163 HD
ATOM      6  H   UNL     1       0.393 -12.878  11.424  0.00  0.00    +0.159 HD
ATOM      7  H   UNL     1       1.708 -13.697  12.178  0.00  0.00    +0.159 HD
ATOM      8  H   UNL     1       1.175 -13.833   8.121  0.00  0.00    +0.159 HD
ATOM      9  H   UNL     1       0.093 -12.956   9.130  0.00  0.00    +0.159 HD
ENDROOT
BRANCH   1  10
ATOM     10  C   UNL     1       3.225 -15.227   8.792  0.00  0.00    +0.151 C 
BRANCH  10  11
ATOM     11  C   UNL     1       4.446 -14.466   8.357  0.00  0.00    -0.028 A 
ATOM     12  C   UNL     1       4.560 -13.992   7.042  0.00  0.00    +0.005 A 
ATOM     13  C   UNL     1       5.492 -14.209   9.258  0.00  0.00    +0.005 A 
ATOM     14  C   UNL     1       5.681 -13.259   6.646  0.00  0.00    +0.000 A 
ATOM     15  C   UNL     1       6.610 -13.477   8.858  0.00  0.00    +0.000 A 
ATOM     16  C   UNL     1       6.703 -13.000   7.553  0.00  0.00    +0.000 A 
ENDBRANCH  10  11
ENDBRANCH   1  10
TORSDOF 2
ENDMDL
MODEL 3
REMARK VINA RESULT:    -4.985     32.225     33.048
REMARK INTER + INTRA:          -5.684
REMARK INTER:                  -5.532
REMARK INTRA:                  -0.153
REMARK UNBOUND:                -0.116
REMARK  Name = 1550473
REMARK  2 active torsions:
REMARK  status: ('A' for Active; 'I' for Inactive)
REMARK    1  A    between atoms: N_1  and  C_4
REMARK    2  A    between atoms: C_4  and  C_5
REMARK                            x       y       z     vdW  Elec       q    Type
REMARK                         _______ _______ _______ _____ _____    ______ ____
ROOT
ATOM      1  N   UNL     1      10.744   9.317   0.499  0.00  0.00    -0.354 N 
ATOM      2  N   UNL     1      10.586  10.307  -1.589  0.00  0.00    -0.372 N 
ATOM      3  N   UNL     1      12.097   8.609  -1.278  0.00  0.00    -0.372 N 
ATOM      4  C   UNL     1      11.146   9.403  -0.777  0.00  0.00    +0.166 C 
ATOM      5  H   UNL     1      10.040   9.968   0.826  0.00  0.00    +0.163 HD
ATOM      6  H   UNL     1      10.866  10.393  -2.557  0.00  0.00    +0.159 HD
ATOM      7  H   UNL     1       9.850  10.926  -1.272  0.00  0.00    +0.159 HD
ATOM      8  H   UNL     1      12.563   7.909  -0.716  0.00  0.00    +0.159 HD
ATOM      9  H   UNL     1      12.400   8.687  -2.241  0.00  0.00    +0.159 HD
ENDROOT
BRANCH   1  10
ATOM     10  C   UNL     1      11.251   8.331   1.451  0.00  0.00    +0.151 C 
BRANCH  10  11
ATOM     11  C   UNL     1      12.006   9.043   2.540  0.00  0.00    -0.028 A 
ATOM     12  C   UNL     1      13.027   8.389   3.243  0.00  0.00    +0.005 A 
ATOM     13  C   UNL     1      11.707  10.374   2.870  0.00  0.00    +0.005 A 
ATOM     14  C   UNL     1      13.749   9.059   4.234  0.00  0.00    +0.000 A 
ATOM     15  C   UNL     1      12.429  11.040   3.860  0.00  0.00    +0.000 A 
ATOM     16  C   UNL     1      13.451  10.383   4.540  0.00  0.00    +0.000 A 
ENDBRANCH  10  11
ENDBRANCH   1  10
TORSDOF 2
ENDMDL
MODEL 4
REMARK VINA RESULT:    -4.874     12.346     13.233
REMARK INTER + INTRA:          -5.560
REMARK INTER:                  -5.379
REMARK INTRA:                  -0.181
REMARK UNBOUND:                -0.116
REMARK  Name = 1550473
REMARK  2 active torsions:
REMARK  status: ('A' for Active; 'I' for Inactive)
REMARK    1  A    between atoms: N_1  and  C_4
REMARK    2  A    between atoms: C_4  and  C_5
REMARK                            x       y       z     vdW  Elec       q    Type
REMARK                         _______ _______ _______ _____ _____    ______ ____
ROOT
ATOM      1  N   UNL     1     -14.002   1.761   0.804  0.00  0.00    -0.354 N 
ATOM      2  N   UNL     1     -11.807   1.130   1.190  0.00  0.00    -0.372 N 
ATOM      3  N   UNL     1     -13.190   1.488   2.986  0.00  0.00    -0.372 N 
ATOM      4  C   UNL     1     -13.015   1.464   1.660  0.00  0.00    +0.166 C 
ATOM      5  H   UNL     1     -13.797   1.753  -0.188  0.00  0.00    +0.163 HD
ATOM      6  H   UNL     1     -11.044   0.898   1.811  0.00  0.00    +0.159 HD
ATOM      7  H   UNL     1     -11.617   1.079   0.196  0.00  0.00    +0.159 HD
ATOM      8  H   UNL     1     -14.076   1.738   3.404  0.00  0.00    +0.159 HD
ATOM      9  H   UNL     1     -12.435   1.270   3.624  0.00  0.00    +0.159 HD
ENDROOT
BRANCH   1  10
ATOM     10  C   UNL     1     -15.368   2.085   1.212  0.00  0.00    +0.151 C 
BRANCH  10  11
ATOM     11  C   UNL     1     -16.248   0.888   0.976  0.00  0.00    -0.028 A 
ATOM     12  C   UNL     1     -16.584   0.031   2.034  0.00  0.00    +0.005 A 
ATOM     13  C   UNL     1     -16.754   0.610  -0.303  0.00  0.00    +0.005 A 
ATOM     14  C   UNL     1     -17.425  -1.063   1.821  0.00  0.00    +0.000 A 
ATOM     15  C   UNL     1     -17.594  -0.484  -0.512  0.00  0.00    +0.000 A 
ATOM     16  C   UNL     1     -17.931  -1.319   0.551  0.00  0.00    +0.000 A 
ENDBRANCH  10  11
ENDBRANCH   1  10
TORSDOF 2
ENDMDL
MODEL 5
REMARK VINA RESULT:    -4.837      2.862      3.921
REMARK INTER + INTRA:          -5.519
REMARK INTER:                  -5.396
REMARK INTRA:                  -0.122
REMARK UNBOUND:                -0.116
REMARK  Name = 1550473
REMARK  2 active torsions:
REMARK  status: ('A' for Active; 'I' for Inactive)
REMARK    1  A    between atoms: N_1  and  C_4
REMARK    2  A    between atoms: C_4  and  C_5
REMARK                            x       y       z     vdW  Elec       q    Type
REMARK                         _______ _______ _______ _____ _____    ______ ____
ROOT
ATOM      1  N   UNL     1     -11.615 -10.356  -6.520  0.00  0.00    -0.354 N 
ATOM      2  N   UNL     1     -10.321 -11.586  -5.045  0.00  0.00    -0.372 N 
ATOM      3  N   UNL     1     -11.904 -12.671  -6.302  0.00  0.00    -0.372 N 
ATOM      4  C   UNL     1     -11.290 -11.532  -5.966  0.00  0.00    +0.166 C 
ATOM      5  H   UNL     1     -11.133  -9.524  -6.200  0.00  0.00    +0.163 HD
ATOM      6  H   UNL     1     -10.052 -12.459  -4.612  0.00  0.00    +0.159 HD
ATOM      7  H   UNL     1      -9.809 -10.760  -4.761  0.00  0.00    +0.159 HD
ATOM      8  H   UNL     1     -12.648 -12.697  -6.986  0.00  0.00    +0.159 HD
ATOM      9  H   UNL     1     -11.657 -13.553  -5.872  0.00  0.00    +0.159 HD
ENDROOT
BRANCH   1  10
ATOM     10  C   UNL     1     -12.619 -10.196  -7.570  0.00  0.00    +0.151 C 
BRANCH  10  11
ATOM     11  C   UNL     1     -12.510  -8.812  -8.148  0.00  0.00    -0.028 A 
ATOM     12  C   UNL     1     -13.580  -8.252  -8.862  0.00  0.00    +0.005 A 
ATOM     13  C   UNL     1     -11.342  -8.052  -7.979  0.00  0.00    +0.005 A 
ATOM     14  C   UNL     1     -13.490  -6.955  -9.373  0.00  0.00    +0.000 A 
ATOM     15  C   UNL     1     -11.257  -6.758  -8.491  0.00  0.00    +0.000 A 
ATOM     16  C   UNL     1     -12.332  -6.209  -9.185  0.00  0.00    +0.000 A 
ENDBRANCH  10  11
ENDBRANCH   1  10
TORSDOF 2
ENDMDL
MODEL 6
REMARK VINA RESULT:    -4.736      3.901      5.600
REMARK INTER + INTRA:          -5.406
REMARK INTER:                  -5.270
REMARK INTRA:                  -0.136
REMARK UNBOUND:                -0.116
REMARK  Name = 1550473
REMARK  2 active torsions:
REMARK  status: ('A' for Active; 'I' for Inactive)
REMARK    1  A    between atoms: N_1  and  C_4
REMARK    2  A    between atoms: C_4  and  C_5
REMARK                            x       y       z     vdW  Elec       q    Type
REMARK                         _______ _______ _______ _____ _____    ______ ____
ROOT
ATOM      1  N   UNL     1     -13.131  -8.285  -8.580  0.00  0.00    -0.354 N 
ATOM      2  N   UNL     1     -14.399  -6.657  -9.630  0.00  0.00    -0.372 N 
ATOM      3  N   UNL     1     -12.323  -6.100  -8.828  0.00  0.00    -0.372 N 
ATOM      4  C   UNL     1     -13.274  -7.023  -9.005  0.00  0.00    +0.166 C 
ATOM      5  H   UNL     1     -13.902  -8.930  -8.718  0.00  0.00    +0.163 HD
ATOM      6  H   UNL     1     -14.534  -5.712  -9.965  0.00  0.00    +0.159 HD
ATOM      7  H   UNL     1     -15.149  -7.314  -9.807  0.00  0.00    +0.159 HD
ATOM      8  H   UNL     1     -11.453  -6.311  -8.358  0.00  0.00    +0.159 HD
ATOM      9  H   UNL     1     -12.444  -5.146  -9.146  0.00  0.00    +0.159 HD
ENDROOT
BRANCH   1  10
ATOM     10  C   UNL     1     -11.924  -8.800  -7.936  0.00  0.00    +0.151 C 
BRANCH  10  11
ATOM     11  C   UNL     1     -12.318  -9.774  -6.860  0.00  0.00    -0.028 A 
ATOM     12  C   UNL     1     -13.631  -9.796  -6.366  0.00  0.00    +0.005 A 
ATOM     13  C   UNL     1     -11.385 -10.680  -6.334  0.00  0.00    +0.005 A 
ATOM     14  C   UNL     1     -14.005 -10.721  -5.388  0.00  0.00    +0.000 A 
ATOM     15  C   UNL     1     -11.762 -11.601  -5.357  0.00  0.00    +0.000 A 
ATOM     16  C   UNL     1     -13.073 -11.623  -4.886  0.00  0.00    +0.000 A 
ENDBRANCH  10  11
ENDBRANCH   1  10
TORSDOF 2
ENDMDL
MODEL 7
REMARK VINA RESULT:    -4.669     24.365     25.805
REMARK INTER + INTRA:          -5.332
REMARK INTER:                  -5.184
REMARK INTRA:                  -0.147
REMARK UNBOUND:                -0.116
REMARK  Name = 1550473
REMARK  2 active torsions:
REMARK  status: ('A' for Active; 'I' for Inactive)
REMARK    1  A    between atoms: N_1  and  C_4
REMARK    2  A    between atoms: C_4  and  C_5
REMARK                            x       y       z     vdW  Elec       q    Type
REMARK                         _______ _______ _______ _____ _____    ______ ____
ROOT
ATOM      1  N   UNL     1       9.878 -10.553   9.632  0.00  0.00    -0.354 N 
ATOM      2  N   UNL     1      10.263  -8.269   9.607  0.00  0.00    -0.372 N 
ATOM      3  N   UNL     1       8.785  -9.128  11.138  0.00  0.00    -0.372 N 
ATOM      4  C   UNL     1       9.637  -9.332  10.128  0.00  0.00    +0.166 C 
ATOM      5  H   UNL     1      10.513 -10.637   8.846  0.00  0.00    +0.163 HD
ATOM      6  H   UNL     1      10.104  -7.336   9.963  0.00  0.00    +0.159 HD
ATOM      7  H   UNL     1      10.931  -8.362   8.852  0.00  0.00    +0.159 HD
ATOM      8  H   UNL     1       8.277  -9.888  11.571  0.00  0.00    +0.159 HD
ATOM      9  H   UNL     1       8.603  -8.200  11.500  0.00  0.00    +0.159 HD
ENDROOT
BRANCH   1  10
ATOM     10  C   UNL     1       9.290 -11.782  10.163  0.00  0.00    +0.151 C 
BRANCH  10  11
ATOM     11  C   UNL     1       8.271 -12.300   9.187  0.00  0.00    -0.028 A 
ATOM     12  C   UNL     1       8.298 -11.891   7.845  0.00  0.00    +0.005 A 
ATOM     13  C   UNL     1       7.280 -13.206   9.595  0.00  0.00    +0.005 A 
ATOM     14  C   UNL     1       7.370 -12.396   6.931  0.00  0.00    +0.000 A 
ATOM     15  C   UNL     1       6.355 -13.707   8.679  0.00  0.00    +0.000 A 
ATOM     16  C   UNL     1       6.402 -13.304   7.347  0.00  0.00    +0.000 A 
ENDBRANCH  10  11
ENDBRANCH   1  10
TORSDOF 2
ENDMDL
MODEL 8
REMARK VINA RESULT:    -4.635      1.532      2.349
REMARK INTER + INTRA:          -5.293
REMARK INTER:                  -5.121
REMARK INTRA:                  -0.172
REMARK UNBOUND:                -0.116
REMARK  Name = 1550473
REMARK  2 active torsions:
REMARK  status: ('A' for Active; 'I' for Inactive)
REMARK    1  A    between atoms: N_1  and  C_4
REMARK    2  A    between atoms: C_4  and  C_5
REMARK                            x       y       z     vdW  Elec       q    Type
REMARK                         _______ _______ _______ _____ _____    ______ ____
ROOT
ATOM      1  N   UNL     1     -11.565 -11.239  -5.192  0.00  0.00    -0.354 N 
ATOM      2  N   UNL     1     -12.442 -11.457  -3.060  0.00  0.00    -0.372 N 
ATOM      3  N   UNL     1     -13.628 -12.293  -4.837  0.00  0.00    -0.372 N 
ATOM      4  C   UNL     1     -12.541 -11.663  -4.378  0.00  0.00    +0.166 C 
ATOM      5  H   UNL     1     -10.782 -10.741  -4.785  0.00  0.00    +0.163 HD
ATOM      6  H   UNL     1     -13.161 -11.769  -2.421  0.00  0.00    +0.159 HD
ATOM      7  H   UNL     1     -11.636 -11.000  -2.651  0.00  0.00    +0.159 HD
ATOM      8  H   UNL     1     -13.766 -12.473  -5.823  0.00  0.00    +0.159 HD
ATOM      9  H   UNL     1     -14.364 -12.602  -4.215  0.00  0.00    +0.159 HD
ENDROOT
BRANCH   1  10
ATOM     10  C   UNL     1     -11.551 -11.460  -6.637  0.00  0.00    +0.151 C 
BRANCH  10  11
ATOM     11  C   UNL     1     -11.837 -10.159  -7.336  0.00  0.00    -0.028 A 
ATOM     12  C   UNL     1     -10.787  -9.367  -7.823  0.00  0.00    +0.005 A 
ATOM     13  C   UNL     1     -13.156  -9.717  -7.519  0.00  0.00    +0.005 A 
ATOM     14  C   UNL     1     -11.053  -8.174  -8.498  0.00  0.00    +0.000 A 
ATOM     15  C   UNL     1     -13.418  -8.524  -8.193  0.00  0.00    +0.000 A 
ATOM     16  C   UNL     1     -12.366  -7.754  -8.685  0.00  0.00    +0.000 A 
ENDBRANCH  10  11
ENDBRANCH   1  10
TORSDOF 2
ENDMDL
MODEL 9
REMARK VINA RESULT:    -4.526      4.070      4.791
REMARK INTER + INTRA:          -5.172
REMARK INTER:                  -5.050
REMARK INTRA:                  -0.122
REMARK UNBOUND:                -0.116
REMARK  Name = 1550473
REMARK  2 active torsions:
REMARK  status: ('A' for Active; 'I' for Inactive)
REMARK    1  A    between atoms: N_1  and  C_4
REMARK    2  A    between atoms: C_4  and  C_5
REMARK                            x       y       z     vdW  Elec       q    Type
REMARK                         _______ _______ _______ _____ _____    ______ ____
ROOT
ATOM      1  N   UNL     1     -11.478 -10.498  -7.622  0.00  0.00    -0.354 N 
ATOM      2  N   UNL     1     -11.849 -12.719  -7.079  0.00  0.00    -0.372 N 
ATOM      3  N   UNL     1      -9.696 -12.007  -7.429  0.00  0.00    -0.372 N 
ATOM      4  C   UNL     1     -11.002 -11.727  -7.381  0.00  0.00    +0.166 C 
ATOM      5  H   UNL     1     -12.481 -10.357  -7.600  0.00  0.00    +0.163 HD
ATOM      6  H   UNL     1     -11.519 -13.655  -6.889  0.00  0.00    +0.159 HD
ATOM      7  H   UNL     1     -12.848 -12.565  -7.012  0.00  0.00    +0.159 HD
ATOM      8  H   UNL     1      -9.005 -11.305  -7.656  0.00  0.00    +0.159 HD
ATOM      9  H   UNL     1      -9.347 -12.941  -7.253  0.00  0.00    +0.159 HD
ENDROOT
BRANCH   1  10
ATOM     10  C   UNL     1     -10.636  -9.337  -7.907  0.00  0.00    +0.151 C 
BRANCH  10  11
ATOM     11  C   UNL     1     -11.411  -8.365  -8.753  0.00  0.00    -0.028 A 
ATOM     12  C   UNL     1     -11.365  -6.990  -8.480  0.00  0.00    +0.005 A 
ATOM     13  C   UNL     1     -12.187  -8.811  -9.833  0.00  0.00    +0.005 A 
ATOM     14  C   UNL     1     -12.060  -6.083  -9.285  0.00  0.00    +0.000 A 
ATOM     15  C   UNL     1     -12.881  -7.903 -10.633  0.00  0.00    +0.000 A 
ATOM     16  C   UNL     1     -12.815  -6.539 -10.360  0.00  0.00    +0.000 A 
ENDBRANCH  10  11
ENDBRANCH   1  10
TORSDOF 2
ENDMDL
