MODEL 1
REMARK VINA RESULT:    -4.385      0.000      0.000
REMARK INTER + INTRA:          -5.047
REMARK INTER:                  -4.898
REMARK INTRA:                  -0.150
REMARK UNBOUND:                -0.150
REMARK  Name = 1550473
REMARK  2 active torsions:
REMARK  status: ('A' for Active; 'I' for Inactive)
REMARK    1  A    between atoms: N_1  and  C_4
REMARK    2  A    between atoms: C_4  and  C_5
REMARK                            x       y       z     vdW  Elec       q    Type
REMARK                         _______ _______ _______ _____ _____    ______ ____
ROOT
ATOM      1  N   UNL     1       3.539  18.172   6.476  0.00  0.00    -0.354 N 
ATOM      2  N   UNL     1       5.185  17.303   7.855  0.00  0.00    -0.372 N 
ATOM      3  N   UNL     1       3.332  18.265   8.808  0.00  0.00    -0.372 N 
ATOM      4  C   UNL     1       4.006  17.920   7.706  0.00  0.00    +0.166 C 
ATOM      5  H   UNL     1       4.113  17.912   5.681  0.00  0.00    +0.163 HD
ATOM      6  H   UNL     1       5.561  17.097   8.771  0.00  0.00    +0.159 HD
ATOM      7  H   UNL     1       5.734  17.004   7.059  0.00  0.00    +0.159 HD
ATOM      8  H   UNL     1       2.439  18.738   8.764  0.00  0.00    +0.159 HD
ATOM      9  H   UNL     1       3.697  18.077   9.733  0.00  0.00    +0.159 HD
ENDROOT
BRANCH   1  10
ATOM     10  C   UNL     1       2.243  18.790   6.204  0.00  0.00    +0.151 C 
BRANCH  10  11
ATOM     11  C   UNL     1       2.458  20.066   5.437  0.00  0.00    -0.028 A 
ATOM     12  C   UNL     1       3.672  20.302   4.775  0.00  0.00    +0.005 A 
ATOM     13  C   UNL     1       1.451  21.040   5.364  0.00  0.00    +0.005 A 
ATOM     14  C   UNL     1       3.862  21.474   4.038  0.00  0.00    +0.000 A 
ATOM     15  C   UNL     1       1.644  22.208   4.628  0.00  0.00    +0.000 A 
ATOM     16  C   UNL     1       2.849  22.424   3.963  0.00  0.00    +0.000 A 
ENDBRANCH  10  11
ENDBRANCH   1  10
TORSDOF 2
ENDMDL
MODEL 2
REMARK VINA RESULT:    -4.375     87.138     87.993
REMARK INTER + INTRA:          -5.037
REMARK INTER:                  -5.005
REMARK INTRA:                  -0.032
REMARK UNBOUND:                -0.150
REMARK  Name = 1550473
REMARK  2 active torsions:
REMARK  status: ('A' for Active; 'I' for Inactive)
REMARK    1  A    between atoms: N_1  and  C_4
REMARK    2  A    between atoms: C_4  and  C_5
REMARK                            x       y       z     vdW  Elec       q    Type
REMARK                         _______ _______ _______ _____ _____    ______ ____
ROOT
ATOM      1  N   UNL     1     -26.518 -42.142 -46.676  0.00  0.00    -0.354 N 
ATOM      2  N   UNL     1     -25.284 -40.951 -45.119  0.00  0.00    -0.372 N 
ATOM      3  N   UNL     1     -24.995 -40.492 -47.349  0.00  0.00    -0.372 N 
ATOM      4  C   UNL     1     -25.606 -41.202 -46.394  0.00  0.00    +0.166 C 
ATOM      5  H   UNL     1     -26.923 -42.666 -45.909  0.00  0.00    +0.163 HD
ATOM      6  H   UNL     1     -24.602 -40.246 -44.875  0.00  0.00    +0.159 HD
ATOM      7  H   UNL     1     -25.724 -41.444 -44.352  0.00  0.00    +0.159 HD
ATOM      8  H   UNL     1     -25.189 -40.637 -48.331  0.00  0.00    +0.159 HD
ATOM      9  H   UNL     1     -24.301 -39.790 -47.125  0.00  0.00    +0.159 HD
ENDROOT
BRANCH   1  10
ATOM     10  C   UNL     1     -26.979 -42.454 -48.028  0.00  0.00    +0.151 C 
BRANCH  10  11
ATOM     11  C   UNL     1     -26.368 -43.757 -48.466  0.00  0.00    -0.028 A 
ATOM     12  C   UNL     1     -25.127 -44.167 -47.959  0.00  0.00    +0.005 A 
ATOM     13  C   UNL     1     -27.029 -44.588 -49.383  0.00  0.00    +0.005 A 
ATOM     14  C   UNL     1     -24.573 -45.391 -48.343  0.00  0.00    +0.000 A 
ATOM     15  C   UNL     1     -26.473 -45.809 -49.764  0.00  0.00    +0.000 A 
ATOM     16  C   UNL     1     -25.246 -46.212 -49.242  0.00  0.00    +0.000 A 
ENDBRANCH  10  11
ENDBRANCH   1  10
TORSDOF 2
ENDMDL
MODEL 3
REMARK VINA RESULT:    -4.244     25.656     26.275
REMARK INTER + INTRA:          -4.890
REMARK INTER:                  -4.789
REMARK INTRA:                  -0.101
REMARK UNBOUND:                -0.150
REMARK  Name = 1550473
REMARK  2 active torsions:
REMARK  status: ('A' for Active; 'I' for Inactive)
REMARK    1  A    between atoms: N_1  and  C_4
REMARK    2  A    between atoms: C_4  and  C_5
REMARK                            x       y       z     vdW  Elec       q    Type
REMARK                         _______ _______ _______ _____ _____    ______ ____
ROOT
ATOM      1  N   UNL     1       2.852  -0.510 -11.087  0.00  0.00    -0.354 N 
ATOM      2  N   UNL     1       4.236  -1.335  -9.424  0.00  0.00    -0.372 N 
ATOM      3  N   UNL     1       2.800  -2.774 -10.487  0.00  0.00    -0.372 N 
ATOM      4  C   UNL     1       3.286  -1.536 -10.344  0.00  0.00    +0.166 C 
ATOM      5  H   UNL     1       3.238   0.410 -10.910  0.00  0.00    +0.163 HD
ATOM      6  H   UNL     1       4.586  -2.091  -8.851  0.00  0.00    +0.159 HD
ATOM      7  H   UNL     1       4.654  -0.423  -9.280  0.00  0.00    +0.159 HD
ATOM      8  H   UNL     1       2.077  -2.992 -11.160  0.00  0.00    +0.159 HD
ATOM      9  H   UNL     1       3.129  -3.542  -9.915  0.00  0.00    +0.159 HD
ENDROOT
BRANCH   1  10
ATOM     10  C   UNL     1       1.859  -0.633 -12.153  0.00  0.00    +0.151 C 
BRANCH  10  11
ATOM     11  C   UNL     1       1.114   0.667 -12.283  0.00  0.00    -0.028 A 
ATOM     12  C   UNL     1      -0.261   0.730 -12.012  0.00  0.00    +0.005 A 
ATOM     13  C   UNL     1       1.778   1.840 -12.673  0.00  0.00    +0.005 A 
ATOM     14  C   UNL     1      -0.947   1.943 -12.104  0.00  0.00    +0.000 A 
ATOM     15  C   UNL     1       1.089   3.049 -12.765  0.00  0.00    +0.000 A 
ATOM     16  C   UNL     1      -0.273   3.101 -12.478  0.00  0.00    +0.000 A 
ENDBRANCH  10  11
ENDBRANCH   1  10
TORSDOF 2
ENDMDL
MODEL 4
REMARK VINA RESULT:    -4.212     10.045     11.760
REMARK INTER + INTRA:          -4.854
REMARK INTER:                  -4.745
REMARK INTRA:                  -0.109
REMARK UNBOUND:                -0.150
REMARK  Name = 1550473
REMARK  2 active torsions:
REMARK  status: ('A' for Active; 'I' for Inactive)
REMARK    1  A    between atoms: N_1  and  C_4
REMARK    2  A    between atoms: C_4  and  C_5
REMARK                            x       y       z     vdW  Elec       q    Type
REMARK                         _______ _______ _______ _____ _____    ______ ____
ROOT
ATOM      1  N   UNL     1      -3.218  11.957   6.147  0.00  0.00    -0.354 N 
ATOM      2  N   UNL     1      -1.221  10.937   5.566  0.00  0.00    -0.372 N 
ATOM      3  N   UNL     1      -1.233  12.449   7.292  0.00  0.00    -0.372 N 
ATOM      4  C   UNL     1      -1.903  11.790   6.341  0.00  0.00    +0.166 C 
ATOM      5  H   UNL     1      -3.661  11.450   5.389  0.00  0.00    +0.163 HD
ATOM      6  H   UNL     1      -0.229  10.788   5.692  0.00  0.00    +0.159 HD
ATOM      7  H   UNL     1      -1.675  10.397   4.840  0.00  0.00    +0.159 HD
ATOM      8  H   UNL     1      -1.689  13.111   7.906  0.00  0.00    +0.159 HD
ATOM      9  H   UNL     1      -0.238  12.322   7.425  0.00  0.00    +0.159 HD
ENDROOT
BRANCH   1  10
ATOM     10  C   UNL     1      -4.063  12.820   6.970  0.00  0.00    +0.151 C 
BRANCH  10  11
ATOM     11  C   UNL     1      -4.728  11.989   8.032  0.00  0.00    -0.028 A 
ATOM     12  C   UNL     1      -5.225  12.589   9.198  0.00  0.00    +0.005 A 
ATOM     13  C   UNL     1      -4.869  10.602   7.875  0.00  0.00    +0.005 A 
ATOM     14  C   UNL     1      -5.870  11.821  10.171  0.00  0.00    +0.000 A 
ATOM     15  C   UNL     1      -5.513   9.839   8.849  0.00  0.00    +0.000 A 
ATOM     16  C   UNL     1      -6.015  10.449   9.996  0.00  0.00    +0.000 A 
ENDBRANCH  10  11
ENDBRANCH   1  10
TORSDOF 2
ENDMDL
MODEL 5
REMARK VINA RESULT:    -4.125     29.719     30.643
REMARK INTER + INTRA:          -4.757
REMARK INTER:                  -4.600
REMARK INTRA:                  -0.157
REMARK UNBOUND:                -0.150
REMARK  Name = 1550473
REMARK  2 active torsions:
REMARK  status: ('A' for Active; 'I' for Inactive)
REMARK    1  A    between atoms: N_1  and  C_4
REMARK    2  A    between atoms: C_4  and  C_5
REMARK                            x       y       z     vdW  Elec       q    Type
REMARK                         _______ _______ _______ _____ _____    ______ ____
ROOT
ATOM      1  N   UNL     1     -10.684   0.880 -11.180  0.00  0.00    -0.354 N 
ATOM      2  N   UNL     1      -9.267   1.926  -9.677  0.00  0.00    -0.372 N 
ATOM      3  N   UNL     1     -10.912   0.544  -8.872  0.00  0.00    -0.372 N 
ATOM      4  C   UNL     1     -10.299   1.109  -9.918  0.00  0.00    +0.166 C 
ATOM      5  H   UNL     1     -10.197   1.362 -11.927  0.00  0.00    +0.163 HD
ATOM      6  H   UNL     1      -8.951   2.116  -8.735  0.00  0.00    +0.159 HD
ATOM      7  H   UNL     1      -8.753   2.371 -10.428  0.00  0.00    +0.159 HD
ATOM      8  H   UNL     1     -11.701  -0.078  -8.986  0.00  0.00    +0.159 HD
ATOM      9  H   UNL     1     -10.618   0.730  -7.921  0.00  0.00    +0.159 HD
ENDROOT
BRANCH   1  10
ATOM     10  C   UNL     1     -11.761  -0.036 -11.553  0.00  0.00    +0.151 C 
BRANCH  10  11
ATOM     11  C   UNL     1     -11.168  -1.249 -12.213  0.00  0.00    -0.028 A 
ATOM     12  C   UNL     1     -10.033  -1.133 -13.029  0.00  0.00    +0.005 A 
ATOM     13  C   UNL     1     -11.733  -2.520 -12.023  0.00  0.00    +0.005 A 
ATOM     14  C   UNL     1      -9.463  -2.264 -13.618  0.00  0.00    +0.000 A 
ATOM     15  C   UNL     1     -11.162  -3.647 -12.615  0.00  0.00    +0.000 A 
ATOM     16  C   UNL     1     -10.026  -3.519 -13.410  0.00  0.00    +0.000 A 
ENDBRANCH  10  11
ENDBRANCH   1  10
TORSDOF 2
ENDMDL
MODEL 6
REMARK VINA RESULT:    -4.096     31.737     33.145
REMARK INTER + INTRA:          -4.725
REMARK INTER:                  -4.571
REMARK INTRA:                  -0.154
REMARK UNBOUND:                -0.150
REMARK  Name = 1550473
REMARK  2 active torsions:
REMARK  status: ('A' for Active; 'I' for Inactive)
REMARK    1  A    between atoms: N_1  and  C_4
REMARK    2  A    between atoms: C_4  and  C_5
REMARK                            x       y       z     vdW  Elec       q    Type
REMARK                         _______ _______ _______ _____ _____    ______ ____
ROOT
ATOM      1  N   UNL     1       5.343 -13.283  -3.487  0.00  0.00    -0.354 N 
ATOM      2  N   UNL     1       3.364 -14.166  -4.304  0.00  0.00    -0.372 N 
ATOM      3  N   UNL     1       4.419 -12.516  -5.499  0.00  0.00    -0.372 N 
ATOM      4  C   UNL     1       4.388 -13.314  -4.427  0.00  0.00    +0.166 C 
ATOM      5  H   UNL     1       5.246 -13.892  -2.683  0.00  0.00    +0.163 HD
ATOM      6  H   UNL     1       2.631 -14.215  -4.999  0.00  0.00    +0.159 HD
ATOM      7  H   UNL     1       3.294 -14.806  -3.523  0.00  0.00    +0.159 HD
ATOM      8  H   UNL     1       5.162 -11.846  -5.648  0.00  0.00    +0.159 HD
ATOM      9  H   UNL     1       3.688 -12.541  -6.200  0.00  0.00    +0.159 HD
ENDROOT
BRANCH   1  10
ATOM     10  C   UNL     1       6.528 -12.429  -3.553  0.00  0.00    +0.151 C 
BRANCH  10  11
ATOM     11  C   UNL     1       6.581 -11.568  -2.321  0.00  0.00    -0.028 A 
ATOM     12  C   UNL     1       5.581 -10.616  -2.074  0.00  0.00    +0.005 A 
ATOM     13  C   UNL     1       7.627 -11.702  -1.395  0.00  0.00    +0.005 A 
ATOM     14  C   UNL     1       5.615  -9.836  -0.916  0.00  0.00    +0.000 A 
ATOM     15  C   UNL     1       7.657 -10.921  -0.240  0.00  0.00    +0.000 A 
ATOM     16  C   UNL     1       6.650  -9.990   0.001  0.00  0.00    +0.000 A 
ENDBRANCH  10  11
ENDBRANCH   1  10
TORSDOF 2
ENDMDL
MODEL 7
REMARK VINA RESULT:    -4.022     61.106     62.094
REMARK INTER + INTRA:          -4.642
REMARK INTER:                  -4.487
REMARK INTRA:                  -0.155
REMARK UNBOUND:                -0.150
REMARK  Name = 1550473
REMARK  2 active torsions:
REMARK  status: ('A' for Active; 'I' for Inactive)
REMARK    1  A    between atoms: N_1  and  C_4
REMARK    2  A    between atoms: C_4  and  C_5
REMARK                            x       y       z     vdW  Elec       q    Type
REMARK                         _______ _______ _______ _____ _____    ______ ____
ROOT
ATOM      1  N   UNL     1     -11.623 -32.362 -27.078  0.00  0.00    -0.354 N 
ATOM      2  N   UNL     1     -13.304 -33.953 -27.166  0.00  0.00    -0.372 N 
ATOM      3  N   UNL     1     -13.861 -31.776 -26.698  0.00  0.00    -0.372 N 
ATOM      4  C   UNL     1     -12.920 -32.684 -26.979  0.00  0.00    +0.166 C 
ATOM      5  H   UNL     1     -10.956 -33.102 -27.263  0.00  0.00    +0.163 HD
ATOM      6  H   UNL     1     -14.276 -34.225 -27.102  0.00  0.00    +0.159 HD
ATOM      7  H   UNL     1     -12.640 -34.682 -27.397  0.00  0.00    +0.159 HD
ATOM      8  H   UNL     1     -13.635 -30.803 -26.539  0.00  0.00    +0.159 HD
ATOM      9  H   UNL     1     -14.837 -32.032 -26.617  0.00  0.00    +0.159 HD
ENDROOT
BRANCH   1  10
ATOM     10  C   UNL     1     -11.107 -31.001 -26.945  0.00  0.00    +0.151 C 
BRANCH  10  11
ATOM     11  C   UNL     1     -10.098 -30.965 -25.830  0.00  0.00    -0.028 A 
ATOM     12  C   UNL     1     -10.511 -31.068 -24.493  0.00  0.00    +0.005 A 
ATOM     13  C   UNL     1      -8.728 -30.833 -26.104  0.00  0.00    +0.005 A 
ATOM     14  C   UNL     1      -9.572 -31.065 -23.459  0.00  0.00    +0.000 A 
ATOM     15  C   UNL     1      -7.794 -30.829 -25.068  0.00  0.00    +0.000 A 
ATOM     16  C   UNL     1      -8.216 -30.948 -23.746  0.00  0.00    +0.000 A 
ENDBRANCH  10  11
ENDBRANCH   1  10
TORSDOF 2
ENDMDL
MODEL 8
REMARK VINA RESULT:    -4.011      3.755      6.143
REMARK INTER + INTRA:          -4.629
REMARK INTER:                  -4.522
REMARK INTRA:                  -0.107
REMARK UNBOUND:                -0.150
REMARK  Name = 1550473
REMARK  2 active torsions:
REMARK  status: ('A' for Active; 'I' for Inactive)
REMARK    1  A    between atoms: N_1  and  C_4
REMARK    2  A    between atoms: C_4  and  C_5
REMARK                            x       y       z     vdW  Elec       q    Type
REMARK                         _______ _______ _______ _____ _____    ______ ____
ROOT
ATOM      1  N   UNL     1       5.710  19.856   4.191  0.00  0.00    -0.354 N 
ATOM      2  N   UNL     1       4.267  21.625   3.800  0.00  0.00    -0.372 N 
ATOM      3  N   UNL     1       6.516  22.046   3.976  0.00  0.00    -0.372 N 
ATOM      4  C   UNL     1       5.510  21.165   3.992  0.00  0.00    +0.166 C 
ATOM      5  H   UNL     1       4.902  19.245   4.221  0.00  0.00    +0.163 HD
ATOM      6  H   UNL     1       4.086  22.608   3.643  0.00  0.00    +0.159 HD
ATOM      7  H   UNL     1       3.466  21.006   3.785  0.00  0.00    +0.159 HD
ATOM      8  H   UNL     1       7.476  21.764   4.120  0.00  0.00    +0.159 HD
ATOM      9  H   UNL     1       6.353  23.035   3.833  0.00  0.00    +0.159 HD
ENDROOT
BRANCH   1  10
ATOM     10  C   UNL     1       7.028  19.246   4.356  0.00  0.00    +0.151 C 
BRANCH  10  11
ATOM     11  C   UNL     1       6.926  18.114   5.341  0.00  0.00    -0.028 A 
ATOM     12  C   UNL     1       6.028  17.059   5.123  0.00  0.00    +0.005 A 
ATOM     13  C   UNL     1       7.728  18.088   6.492  0.00  0.00    +0.005 A 
ATOM     14  C   UNL     1       5.954  15.993   6.022  0.00  0.00    +0.000 A 
ATOM     15  C   UNL     1       7.651  17.022   7.388  0.00  0.00    +0.000 A 
ATOM     16  C   UNL     1       6.765  15.974   7.151  0.00  0.00    +0.000 A 
ENDBRANCH  10  11
ENDBRANCH   1  10
TORSDOF 2
ENDMDL
MODEL 9
REMARK VINA RESULT:    -3.873     27.213     28.555
REMARK INTER + INTRA:          -4.475
REMARK INTER:                  -4.354
REMARK INTRA:                  -0.121
REMARK UNBOUND:                -0.150
REMARK  Name = 1550473
REMARK  2 active torsions:
REMARK  status: ('A' for Active; 'I' for Inactive)
REMARK    1  A    between atoms: N_1  and  C_4
REMARK    2  A    between atoms: C_4  and  C_5
REMARK                            x       y       z     vdW  Elec       q    Type
REMARK                         _______ _______ _______ _____ _____    ______ ____
ROOT
ATOM      1  N   UNL     1      -3.453  -6.745   5.162  0.00  0.00    -0.354 N 
ATOM      2  N   UNL     1      -3.346  -5.636   7.192  0.00  0.00    -0.372 N 
ATOM      3  N   UNL     1      -3.255  -7.929   7.175  0.00  0.00    -0.372 N 
ATOM      4  C   UNL     1      -3.352  -6.780   6.497  0.00  0.00    +0.166 C 
ATOM      5  H   UNL     1      -3.554  -5.844   4.710  0.00  0.00    +0.163 HD
ATOM      6  H   UNL     1      -3.267  -5.631   8.200  0.00  0.00    +0.159 HD
ATOM      7  H   UNL     1      -3.400  -4.734   6.734  0.00  0.00    +0.159 HD
ATOM      8  H   UNL     1      -3.260  -8.827   6.710  0.00  0.00    +0.159 HD
ATOM      9  H   UNL     1      -3.188  -7.944   8.185  0.00  0.00    +0.159 HD
ENDROOT
BRANCH   1  10
ATOM     10  C   UNL     1      -3.415  -7.931   4.308  0.00  0.00    +0.151 C 
BRANCH  10  11
ATOM     11  C   UNL     1      -4.583  -7.893   3.361  0.00  0.00    -0.028 A 
ATOM     12  C   UNL     1      -5.553  -8.906   3.385  0.00  0.00    +0.005 A 
ATOM     13  C   UNL     1      -4.729  -6.842   2.442  0.00  0.00    +0.005 A 
ATOM     14  C   UNL     1      -6.654  -8.855   2.527  0.00  0.00    +0.000 A 
ATOM     15  C   UNL     1      -5.830  -6.795   1.587  0.00  0.00    +0.000 A 
ATOM     16  C   UNL     1      -6.793  -7.800   1.631  0.00  0.00    +0.000 A 
ENDBRANCH  10  11
ENDBRANCH   1  10
TORSDOF 2
ENDMDL
