MODEL 1
REMARK VINA RESULT:    -5.422      0.000      0.000
REMARK INTER + INTRA:          -6.202
REMARK INTER:                  -6.056
REMARK INTRA:                  -0.146
REMARK UNBOUND:                -0.146
REMARK  Name = 1550473
REMARK  2 active torsions:
REMARK  status: ('A' for Active; 'I' for Inactive)
REMARK    1  A    between atoms: N_1  and  C_4
REMARK    2  A    between atoms: C_4  and  C_5
REMARK                            x       y       z     vdW  Elec       q    Type
REMARK                         _______ _______ _______ _____ _____    ______ ____
ROOT
ATOM      1  N   UNL     1      -8.452  -1.458 -12.643  0.00  0.00    -0.354 N 
ATOM      2  N   UNL     1     -10.488  -2.084 -13.554  0.00  0.00    -0.372 N 
ATOM      3  N   UNL     1      -8.580  -2.378 -14.795  0.00  0.00    -0.372 N 
ATOM      4  C   UNL     1      -9.158  -1.970 -13.660  0.00  0.00    +0.166 C 
ATOM      5  H   UNL     1      -8.953  -1.139 -11.822  0.00  0.00    +0.163 HD
ATOM      6  H   UNL     1     -11.047  -2.469 -14.304  0.00  0.00    +0.159 HD
ATOM      7  H   UNL     1     -10.981  -1.806 -12.714  0.00  0.00    +0.159 HD
ATOM      8  H   UNL     1      -7.582  -2.314 -14.940  0.00  0.00    +0.159 HD
ATOM      9  H   UNL     1      -9.124  -2.756 -15.561  0.00  0.00    +0.159 HD
ENDROOT
BRANCH   1  10
ATOM     10  C   UNL     1      -6.995  -1.341 -12.637  0.00  0.00    +0.151 C 
BRANCH  10  11
ATOM     11  C   UNL     1      -6.618   0.083 -12.333  0.00  0.00    -0.028 A 
ATOM     12  C   UNL     1      -5.276   0.487 -12.370  0.00  0.00    +0.005 A 
ATOM     13  C   UNL     1      -7.600   1.033 -12.013  0.00  0.00    +0.005 A 
ATOM     14  C   UNL     1      -4.928   1.817 -12.117  0.00  0.00    +0.000 A 
ATOM     15  C   UNL     1      -7.249   2.359 -11.760  0.00  0.00    +0.000 A 
ATOM     16  C   UNL     1      -5.913   2.751 -11.815  0.00  0.00    +0.000 A 
ENDBRANCH  10  11
ENDBRANCH   1  10
TORSDOF 2
ENDMDL
MODEL 2
REMARK VINA RESULT:    -5.366      9.334     10.314
REMARK INTER + INTRA:          -6.140
REMARK INTER:                  -5.956
REMARK INTRA:                  -0.184
REMARK UNBOUND:                -0.146
REMARK  Name = 1550473
REMARK  2 active torsions:
REMARK  status: ('A' for Active; 'I' for Inactive)
REMARK    1  A    between atoms: N_1  and  C_4
REMARK    2  A    between atoms: C_4  and  C_5
REMARK                            x       y       z     vdW  Elec       q    Type
REMARK                         _______ _______ _______ _____ _____    ______ ____
ROOT
ATOM      1  N   UNL     1      -2.168   6.059 -19.250  0.00  0.00    -0.354 N 
ATOM      2  N   UNL     1      -0.203   5.546 -18.137  0.00  0.00    -0.372 N 
ATOM      3  N   UNL     1      -2.147   5.723 -16.931  0.00  0.00    -0.372 N 
ATOM      4  C   UNL     1      -1.521   5.780 -18.111  0.00  0.00    +0.166 C 
ATOM      5  H   UNL     1      -1.631   6.117 -20.107  0.00  0.00    +0.163 HD
ATOM      6  H   UNL     1       0.312   5.329 -17.294  0.00  0.00    +0.159 HD
ATOM      7  H   UNL     1       0.323   5.558 -19.002  0.00  0.00    +0.159 HD
ATOM      8  H   UNL     1      -3.140   5.896 -16.842  0.00  0.00    +0.159 HD
ATOM      9  H   UNL     1      -1.647   5.519 -16.074  0.00  0.00    +0.159 HD
ENDROOT
BRANCH   1  10
ATOM     10  C   UNL     1      -3.611   6.277 -19.338  0.00  0.00    +0.151 C 
BRANCH  10  11
ATOM     11  C   UNL     1      -4.269   5.016 -19.826  0.00  0.00    -0.028 A 
ATOM     12  C   UNL     1      -4.193   4.650 -21.178  0.00  0.00    +0.005 A 
ATOM     13  C   UNL     1      -4.965   4.179 -18.940  0.00  0.00    +0.005 A 
ATOM     14  C   UNL     1      -4.778   3.463 -21.626  0.00  0.00    +0.000 A 
ATOM     15  C   UNL     1      -5.549   2.995 -19.392  0.00  0.00    +0.000 A 
ATOM     16  C   UNL     1      -5.453   2.637 -20.735  0.00  0.00    +0.000 A 
ENDBRANCH  10  11
ENDBRANCH   1  10
TORSDOF 2
ENDMDL
MODEL 3
REMARK VINA RESULT:    -4.868     10.036     10.864
REMARK INTER + INTRA:          -5.583
REMARK INTER:                  -5.407
REMARK INTRA:                  -0.176
REMARK UNBOUND:                -0.146
REMARK  Name = 1550473
REMARK  2 active torsions:
REMARK  status: ('A' for Active; 'I' for Inactive)
REMARK    1  A    between atoms: N_1  and  C_4
REMARK    2  A    between atoms: C_4  and  C_5
REMARK                            x       y       z     vdW  Elec       q    Type
REMARK                         _______ _______ _______ _____ _____    ______ ____
ROOT
ATOM      1  N   UNL     1      -4.032   7.341 -19.543  0.00  0.00    -0.354 N 
ATOM      2  N   UNL     1      -5.392   9.215 -19.590  0.00  0.00    -0.372 N 
ATOM      3  N   UNL     1      -4.558   8.399 -21.566  0.00  0.00    -0.372 N 
ATOM      4  C   UNL     1      -4.651   8.306 -20.236  0.00  0.00    +0.166 C 
ATOM      5  H   UNL     1      -4.117   7.343 -18.533  0.00  0.00    +0.163 HD
ATOM      6  H   UNL     1      -5.874   9.952 -20.087  0.00  0.00    +0.159 HD
ATOM      7  H   UNL     1      -5.513   9.187 -18.585  0.00  0.00    +0.159 HD
ATOM      8  H   UNL     1      -4.010   7.748 -22.112  0.00  0.00    +0.159 HD
ATOM      9  H   UNL     1      -5.023   9.137 -22.080  0.00  0.00    +0.159 HD
ENDROOT
BRANCH   1  10
ATOM     10  C   UNL     1      -3.245   6.271 -20.155  0.00  0.00    +0.151 C 
BRANCH  10  11
ATOM     11  C   UNL     1      -4.076   5.018 -20.206  0.00  0.00    -0.028 A 
ATOM     12  C   UNL     1      -4.705   4.533 -19.051  0.00  0.00    +0.005 A 
ATOM     13  C   UNL     1      -4.242   4.316 -21.410  0.00  0.00    +0.005 A 
ATOM     14  C   UNL     1      -5.501   3.386 -19.105  0.00  0.00    +0.000 A 
ATOM     15  C   UNL     1      -5.037   3.171 -21.459  0.00  0.00    +0.000 A 
ATOM     16  C   UNL     1      -5.668   2.708 -20.307  0.00  0.00    +0.000 A 
ENDBRANCH  10  11
ENDBRANCH   1  10
TORSDOF 2
ENDMDL
MODEL 4
REMARK VINA RESULT:    -4.782      4.340      5.438
REMARK INTER + INTRA:          -5.487
REMARK INTER:                  -5.337
REMARK INTRA:                  -0.150
REMARK UNBOUND:                -0.146
REMARK  Name = 1550473
REMARK  2 active torsions:
REMARK  status: ('A' for Active; 'I' for Inactive)
REMARK    1  A    between atoms: N_1  and  C_4
REMARK    2  A    between atoms: C_4  and  C_5
REMARK                            x       y       z     vdW  Elec       q    Type
REMARK                         _______ _______ _______ _____ _____    ______ ____
ROOT
ATOM      1  N   UNL     1      -9.058  -4.035 -14.493  0.00  0.00    -0.354 N 
ATOM      2  N   UNL     1      -8.992  -4.957 -16.616  0.00  0.00    -0.372 N 
ATOM      3  N   UNL     1      -8.507  -2.729 -16.359  0.00  0.00    -0.372 N 
ATOM      4  C   UNL     1      -8.852  -3.898 -15.809  0.00  0.00    +0.166 C 
ATOM      5  H   UNL     1      -9.346  -4.941 -14.142  0.00  0.00    +0.163 HD
ATOM      6  H   UNL     1      -8.840  -4.885 -17.613  0.00  0.00    +0.159 HD
ATOM      7  H   UNL     1      -9.236  -5.872 -16.257  0.00  0.00    +0.159 HD
ATOM      8  H   UNL     1      -8.392  -1.890 -15.806  0.00  0.00    +0.159 HD
ATOM      9  H   UNL     1      -8.362  -2.634 -17.357  0.00  0.00    +0.159 HD
ENDROOT
BRANCH   1  10
ATOM     10  C   UNL     1      -8.879  -2.957 -13.521  0.00  0.00    +0.151 C 
BRANCH  10  11
ATOM     11  C   UNL     1     -10.189  -2.700 -12.827  0.00  0.00    -0.028 A 
ATOM     12  C   UNL     1     -11.042  -1.679 -13.271  0.00  0.00    +0.005 A 
ATOM     13  C   UNL     1     -10.584  -3.478 -11.728  0.00  0.00    +0.005 A 
ATOM     14  C   UNL     1     -12.271  -1.460 -12.645  0.00  0.00    +0.000 A 
ATOM     15  C   UNL     1     -11.812  -3.256 -11.105  0.00  0.00    +0.000 A 
ATOM     16  C   UNL     1     -12.657  -2.248 -11.566  0.00  0.00    +0.000 A 
ENDBRANCH  10  11
ENDBRANCH   1  10
TORSDOF 2
ENDMDL
MODEL 5
REMARK VINA RESULT:    -4.625      1.896      2.385
REMARK INTER + INTRA:          -5.312
REMARK INTER:                  -5.165
REMARK INTRA:                  -0.146
REMARK UNBOUND:                -0.146
REMARK  Name = 1550473
REMARK  2 active torsions:
REMARK  status: ('A' for Active; 'I' for Inactive)
REMARK    1  A    between atoms: N_1  and  C_4
REMARK    2  A    between atoms: C_4  and  C_5
REMARK                            x       y       z     vdW  Elec       q    Type
REMARK                         _______ _______ _______ _____ _____    ______ ____
ROOT
ATOM      1  N   UNL     1      -6.968  -1.771 -11.300  0.00  0.00    -0.354 N 
ATOM      2  N   UNL     1      -5.831  -3.651 -10.568  0.00  0.00    -0.372 N 
ATOM      3  N   UNL     1      -6.231  -3.402 -12.813  0.00  0.00    -0.372 N 
ATOM      4  C   UNL     1      -6.351  -2.930 -11.568  0.00  0.00    +0.166 C 
ATOM      5  H   UNL     1      -7.053  -1.483 -10.332  0.00  0.00    +0.163 HD
ATOM      6  H   UNL     1      -5.357  -4.527 -10.739  0.00  0.00    +0.159 HD
ATOM      7  H   UNL     1      -5.877  -3.338  -9.605  0.00  0.00    +0.159 HD
ATOM      8  H   UNL     1      -6.607  -2.908 -13.612  0.00  0.00    +0.159 HD
ATOM      9  H   UNL     1      -5.770  -4.283 -13.004  0.00  0.00    +0.159 HD
ENDROOT
BRANCH   1  10
ATOM     10  C   UNL     1      -7.521  -0.884 -12.322  0.00  0.00    +0.151 C 
BRANCH  10  11
ATOM     11  C   UNL     1      -6.910   0.481 -12.171  0.00  0.00    -0.028 A 
ATOM     12  C   UNL     1      -5.522   0.655 -12.271  0.00  0.00    +0.005 A 
ATOM     13  C   UNL     1      -7.714   1.606 -11.932  0.00  0.00    +0.005 A 
ATOM     14  C   UNL     1      -4.956   1.927 -12.161  0.00  0.00    +0.000 A 
ATOM     15  C   UNL     1      -7.145   2.875 -11.822  0.00  0.00    +0.000 A 
ATOM     16  C   UNL     1      -5.766   3.035 -11.938  0.00  0.00    +0.000 A 
ENDBRANCH  10  11
ENDBRANCH   1  10
TORSDOF 2
ENDMDL
MODEL 6
REMARK VINA RESULT:    -4.553     31.254     32.476
REMARK INTER + INTRA:          -5.232
REMARK INTER:                  -5.106
REMARK INTRA:                  -0.126
REMARK UNBOUND:                -0.146
REMARK  Name = 1550473
REMARK  2 active torsions:
REMARK  status: ('A' for Active; 'I' for Inactive)
REMARK    1  A    between atoms: N_1  and  C_4
REMARK    2  A    between atoms: C_4  and  C_5
REMARK                            x       y       z     vdW  Elec       q    Type
REMARK                         _______ _______ _______ _____ _____    ______ ____
ROOT
ATOM      1  N   UNL     1      21.075  10.230   0.055  0.00  0.00    -0.354 N 
ATOM      2  N   UNL     1      20.897  11.918   1.631  0.00  0.00    -0.372 N 
ATOM      3  N   UNL     1      19.424  11.883  -0.129  0.00  0.00    -0.372 N 
ATOM      4  C   UNL     1      20.465  11.334   0.507  0.00  0.00    +0.166 C 
ATOM      5  H   UNL     1      21.877   9.880   0.566  0.00  0.00    +0.163 HD
ATOM      6  H   UNL     1      20.454  12.750   1.998  0.00  0.00    +0.159 HD
ATOM      7  H   UNL     1      21.670  11.540   2.165  0.00  0.00    +0.159 HD
ATOM      8  H   UNL     1      19.054  11.494  -0.985  0.00  0.00    +0.159 HD
ATOM      9  H   UNL     1      18.975  12.722   0.216  0.00  0.00    +0.159 HD
ENDROOT
BRANCH   1  10
ATOM     10  C   UNL     1      20.649   9.486  -1.129  0.00  0.00    +0.151 C 
BRANCH  10  11
ATOM     11  C   UNL     1      21.019   8.038  -0.959  0.00  0.00    -0.028 A 
ATOM     12  C   UNL     1      20.453   7.057  -1.786  0.00  0.00    +0.005 A 
ATOM     13  C   UNL     1      21.939   7.642   0.023  0.00  0.00    +0.005 A 
ATOM     14  C   UNL     1      20.819   5.716  -1.649  0.00  0.00    +0.000 A 
ATOM     15  C   UNL     1      22.301   6.302   0.158  0.00  0.00    +0.000 A 
ATOM     16  C   UNL     1      21.743   5.340  -0.680  0.00  0.00    +0.000 A 
ENDBRANCH  10  11
ENDBRANCH   1  10
TORSDOF 2
ENDMDL
MODEL 7
REMARK VINA RESULT:    -4.481     12.378     13.826
REMARK INTER + INTRA:          -5.151
REMARK INTER:                  -5.015
REMARK INTRA:                  -0.135
REMARK UNBOUND:                -0.146
REMARK  Name = 1550473
REMARK  2 active torsions:
REMARK  status: ('A' for Active; 'I' for Inactive)
REMARK    1  A    between atoms: N_1  and  C_4
REMARK    2  A    between atoms: C_4  and  C_5
REMARK                            x       y       z     vdW  Elec       q    Type
REMARK                         _______ _______ _______ _____ _____    ______ ____
ROOT
ATOM      1  N   UNL     1       3.181   8.333  -7.535  0.00  0.00    -0.354 N 
ATOM      2  N   UNL     1       2.613  10.364  -6.579  0.00  0.00    -0.372 N 
ATOM      3  N   UNL     1       2.699   8.498  -5.247  0.00  0.00    -0.372 N 
ATOM      4  C   UNL     1       2.834   9.050  -6.458  0.00  0.00    +0.166 C 
ATOM      5  H   UNL     1       3.237   8.805  -8.430  0.00  0.00    +0.163 HD
ATOM      6  H   UNL     1       2.353  10.932  -5.783  0.00  0.00    +0.159 HD
ATOM      7  H   UNL     1       2.715  10.842  -7.466  0.00  0.00    +0.159 HD
ATOM      8  H   UNL     1       2.846   7.510  -5.090  0.00  0.00    +0.159 HD
ATOM      9  H   UNL     1       2.428   9.047  -4.441  0.00  0.00    +0.159 HD
ENDROOT
BRANCH   1  10
ATOM     10  C   UNL     1       3.496   6.906  -7.500  0.00  0.00    +0.151 C 
BRANCH  10  11
ATOM     11  C   UNL     1       2.941   6.250  -8.734  0.00  0.00    -0.028 A 
ATOM     12  C   UNL     1       3.028   4.860  -8.902  0.00  0.00    +0.005 A 
ATOM     13  C   UNL     1       2.322   7.012  -9.737  0.00  0.00    +0.005 A 
ATOM     14  C   UNL     1       2.485   4.247 -10.034  0.00  0.00    +0.000 A 
ATOM     15  C   UNL     1       1.783   6.396 -10.866  0.00  0.00    +0.000 A 
ATOM     16  C   UNL     1       1.863   5.013 -11.013  0.00  0.00    +0.000 A 
ENDBRANCH  10  11
ENDBRANCH   1  10
TORSDOF 2
ENDMDL
MODEL 8
REMARK VINA RESULT:    -4.435     25.487     26.563
REMARK INTER + INTRA:          -5.099
REMARK INTER:                  -4.960
REMARK INTRA:                  -0.140
REMARK UNBOUND:                -0.146
REMARK  Name = 1550473
REMARK  2 active torsions:
REMARK  status: ('A' for Active; 'I' for Inactive)
REMARK    1  A    between atoms: N_1  and  C_4
REMARK    2  A    between atoms: C_4  and  C_5
REMARK                            x       y       z     vdW  Elec       q    Type
REMARK                         _______ _______ _______ _____ _____    ______ ____
ROOT
ATOM      1  N   UNL     1      14.536 -14.181  -6.946  0.00  0.00    -0.354 N 
ATOM      2  N   UNL     1      15.953 -12.920  -8.275  0.00  0.00    -0.372 N 
ATOM      3  N   UNL     1      16.828 -14.046  -6.476  0.00  0.00    -0.372 N 
ATOM      4  C   UNL     1      15.765 -13.725  -7.222  0.00  0.00    +0.166 C 
ATOM      5  H   UNL     1      13.767 -13.876  -7.532  0.00  0.00    +0.163 HD
ATOM      6  H   UNL     1      16.870 -12.563  -8.509  0.00  0.00    +0.159 HD
ATOM      7  H   UNL     1      15.191 -12.654  -8.885  0.00  0.00    +0.159 HD
ATOM      8  H   UNL     1      16.751 -14.644  -5.665  0.00  0.00    +0.159 HD
ATOM      9  H   UNL     1      17.751 -13.689  -6.688  0.00  0.00    +0.159 HD
ENDROOT
BRANCH   1  10
ATOM     10  C   UNL     1      14.232 -15.105  -5.855  0.00  0.00    +0.151 C 
BRANCH  10  11
ATOM     11  C   UNL     1      13.205 -14.479  -4.952  0.00  0.00    -0.028 A 
ATOM     12  C   UNL     1      13.286 -14.641  -3.561  0.00  0.00    +0.005 A 
ATOM     13  C   UNL     1      12.151 -13.717  -5.482  0.00  0.00    +0.005 A 
ATOM     14  C   UNL     1      12.349 -14.034  -2.721  0.00  0.00    +0.000 A 
ATOM     15  C   UNL     1      11.218 -13.114  -4.639  0.00  0.00    +0.000 A 
ATOM     16  C   UNL     1      11.318 -13.271  -3.259  0.00  0.00    +0.000 A 
ENDBRANCH  10  11
ENDBRANCH   1  10
TORSDOF 2
ENDMDL
MODEL 9
REMARK VINA RESULT:    -4.428      8.796     10.748
REMARK INTER + INTRA:          -5.092
REMARK INTER:                  -4.950
REMARK INTRA:                  -0.142
REMARK UNBOUND:                -0.146
REMARK  Name = 1550473
REMARK  2 active torsions:
REMARK  status: ('A' for Active; 'I' for Inactive)
REMARK    1  A    between atoms: N_1  and  C_4
REMARK    2  A    between atoms: C_4  and  C_5
REMARK                            x       y       z     vdW  Elec       q    Type
REMARK                         _______ _______ _______ _____ _____    ______ ____
ROOT
ATOM      1  N   UNL     1       1.873   5.515 -10.920  0.00  0.00    -0.354 N 
ATOM      2  N   UNL     1       1.866   7.735 -10.258  0.00  0.00    -0.372 N 
ATOM      3  N   UNL     1       2.928   6.187  -8.938  0.00  0.00    -0.372 N 
ATOM      4  C   UNL     1       2.224   6.463 -10.041  0.00  0.00    +0.166 C 
ATOM      5  H   UNL     1       1.313   5.785 -11.721  0.00  0.00    +0.163 HD
ATOM      6  H   UNL     1       2.119   8.472  -9.614  0.00  0.00    +0.159 HD
ATOM      7  H   UNL     1       1.346   8.009 -11.082  0.00  0.00    +0.159 HD
ATOM      8  H   UNL     1       3.224   5.246  -8.714  0.00  0.00    +0.159 HD
ATOM      9  H   UNL     1       3.181   6.909  -8.276  0.00  0.00    +0.159 HD
ENDROOT
BRANCH   1  10
ATOM     10  C   UNL     1       2.258   4.110 -10.804  0.00  0.00    +0.151 C 
BRANCH  10  11
ATOM     11  C   UNL     1       1.044   3.249 -11.020  0.00  0.00    -0.028 A 
ATOM     12  C   UNL     1      -0.237   3.818 -11.048  0.00  0.00    +0.005 A 
ATOM     13  C   UNL     1       1.169   1.863 -11.203  0.00  0.00    +0.005 A 
ATOM     14  C   UNL     1      -1.362   3.023 -11.278  0.00  0.00    +0.000 A 
ATOM     15  C   UNL     1       0.043   1.072 -11.431  0.00  0.00    +0.000 A 
ATOM     16  C   UNL     1      -1.222   1.653 -11.471  0.00  0.00    +0.000 A 
ENDBRANCH  10  11
ENDBRANCH   1  10
TORSDOF 2
ENDMDL
