MODEL 1
REMARK VINA RESULT:    -5.978      0.000      0.000
REMARK INTER + INTRA:          -6.791
REMARK INTER:                  -6.677
REMARK INTRA:                  -0.114
REMARK UNBOUND:                -0.114
REMARK  Name = 1550473
REMARK  2 active torsions:
REMARK  status: ('A' for Active; 'I' for Inactive)
REMARK    1  A    between atoms: N_1  and  C_4
REMARK    2  A    between atoms: C_4  and  C_5
REMARK                            x       y       z     vdW  Elec       q    Type
REMARK                         _______ _______ _______ _____ _____    ______ ____
ROOT
ATOM      1  N   UNL     1       0.058 -14.604 -12.698  0.00  0.00    -0.354 N 
ATOM      2  N   UNL     1       0.375 -15.333 -10.523  0.00  0.00    -0.372 N 
ATOM      3  N   UNL     1       2.208 -15.026 -11.868  0.00  0.00    -0.372 N 
ATOM      4  C   UNL     1       0.881 -14.983 -11.711  0.00  0.00    +0.166 C 
ATOM      5  H   UNL     1      -0.941 -14.621 -12.525  0.00  0.00    +0.163 HD
ATOM      6  H   UNL     1       0.972 -15.620  -9.758  0.00  0.00    +0.159 HD
ATOM      7  H   UNL     1      -0.620 -15.306 -10.338  0.00  0.00    +0.159 HD
ATOM      8  H   UNL     1       2.652 -14.780 -12.743  0.00  0.00    +0.159 HD
ATOM      9  H   UNL     1       2.821 -15.322 -11.119  0.00  0.00    +0.159 HD
ENDROOT
BRANCH   1  10
ATOM     10  C   UNL     1       0.510 -14.152 -14.012  0.00  0.00    +0.151 C 
BRANCH  10  11
ATOM     11  C   UNL     1      -0.348 -13.001 -14.458  0.00  0.00    -0.028 A 
ATOM     12  C   UNL     1      -1.428 -13.213 -15.329  0.00  0.00    +0.005 A 
ATOM     13  C   UNL     1      -0.091 -11.696 -14.010  0.00  0.00    +0.005 A 
ATOM     14  C   UNL     1      -2.244 -12.148 -15.720  0.00  0.00    +0.000 A 
ATOM     15  C   UNL     1      -0.908 -10.636 -14.403  0.00  0.00    +0.000 A 
ATOM     16  C   UNL     1      -1.985 -10.863 -15.256  0.00  0.00    +0.000 A 
ENDBRANCH  10  11
ENDBRANCH   1  10
TORSDOF 2
ENDMDL
MODEL 2
REMARK VINA RESULT:    -5.949     20.266     21.665
REMARK INTER + INTRA:          -6.758
REMARK INTER:                  -6.664
REMARK INTRA:                  -0.094
REMARK UNBOUND:                -0.114
REMARK  Name = 1550473
REMARK  2 active torsions:
REMARK  status: ('A' for Active; 'I' for Inactive)
REMARK    1  A    between atoms: N_1  and  C_4
REMARK    2  A    between atoms: C_4  and  C_5
REMARK                            x       y       z     vdW  Elec       q    Type
REMARK                         _______ _______ _______ _____ _____    ______ ____
ROOT
ATOM      1  N   UNL     1      -3.907 -19.022   8.020  0.00  0.00    -0.354 N 
ATOM      2  N   UNL     1      -5.572 -20.142   9.177  0.00  0.00    -0.372 N 
ATOM      3  N   UNL     1      -4.039 -21.362   7.981  0.00  0.00    -0.372 N 
ATOM      4  C   UNL     1      -4.494 -20.170   8.384  0.00  0.00    +0.166 C 
ATOM      5  H   UNL     1      -4.318 -18.151   8.334  0.00  0.00    +0.163 HD
ATOM      6  H   UNL     1      -6.033 -20.993   9.471  0.00  0.00    +0.159 HD
ATOM      7  H   UNL     1      -5.953 -19.272   9.527  0.00  0.00    +0.159 HD
ATOM      8  H   UNL     1      -3.234 -21.451   7.376  0.00  0.00    +0.159 HD
ATOM      9  H   UNL     1      -4.495 -22.223   8.255  0.00  0.00    +0.159 HD
ENDROOT
BRANCH   1  10
ATOM     10  C   UNL     1      -2.697 -18.945   7.203  0.00  0.00    +0.151 C 
BRANCH  10  11
ATOM     11  C   UNL     1      -2.496 -17.523   6.756  0.00  0.00    -0.028 A 
ATOM     12  C   UNL     1      -1.584 -16.691   7.421  0.00  0.00    +0.005 A 
ATOM     13  C   UNL     1      -3.210 -17.005   5.665  0.00  0.00    +0.005 A 
ATOM     14  C   UNL     1      -1.375 -15.379   6.988  0.00  0.00    +0.000 A 
ATOM     15  C   UNL     1      -2.999 -15.694   5.236  0.00  0.00    +0.000 A 
ATOM     16  C   UNL     1      -2.079 -14.883   5.896  0.00  0.00    +0.000 A 
ENDBRANCH  10  11
ENDBRANCH   1  10
TORSDOF 2
ENDMDL
MODEL 3
REMARK VINA RESULT:    -5.738      1.950      2.854
REMARK INTER + INTRA:          -6.523
REMARK INTER:                  -6.341
REMARK INTRA:                  -0.182
REMARK UNBOUND:                -0.114
REMARK  Name = 1550473
REMARK  2 active torsions:
REMARK  status: ('A' for Active; 'I' for Inactive)
REMARK    1  A    between atoms: N_1  and  C_4
REMARK    2  A    between atoms: C_4  and  C_5
REMARK                            x       y       z     vdW  Elec       q    Type
REMARK                         _______ _______ _______ _____ _____    ______ ____
ROOT
ATOM      1  N   UNL     1       0.415 -14.692 -13.249  0.00  0.00    -0.354 N 
ATOM      2  N   UNL     1       1.094 -15.585 -11.223  0.00  0.00    -0.372 N 
ATOM      3  N   UNL     1      -0.034 -13.587 -11.232  0.00  0.00    -0.372 N 
ATOM      4  C   UNL     1       0.486 -14.613 -11.914  0.00  0.00    +0.166 C 
ATOM      5  H   UNL     1       0.856 -15.481 -13.709  0.00  0.00    +0.163 HD
ATOM      6  H   UNL     1       1.161 -15.554 -10.214  0.00  0.00    +0.159 HD
ATOM      7  H   UNL     1       1.493 -16.395 -11.681  0.00  0.00    +0.159 HD
ATOM      8  H   UNL     1      -0.500 -12.818 -11.695  0.00  0.00    +0.159 HD
ATOM      9  H   UNL     1       0.033 -13.532 -10.223  0.00  0.00    +0.159 HD
ENDROOT
BRANCH   1  10
ATOM     10  C   UNL     1      -0.272 -13.714 -14.091  0.00  0.00    +0.151 C 
BRANCH  10  11
ATOM     11  C   UNL     1       0.746 -12.789 -14.699  0.00  0.00    -0.028 A 
ATOM     12  C   UNL     1       0.876 -11.471 -14.236  0.00  0.00    +0.005 A 
ATOM     13  C   UNL     1       1.587 -13.225 -15.734  0.00  0.00    +0.005 A 
ATOM     14  C   UNL     1       1.841 -10.620 -14.780  0.00  0.00    +0.000 A 
ATOM     15  C   UNL     1       2.549 -12.372 -16.275  0.00  0.00    +0.000 A 
ATOM     16  C   UNL     1       2.678 -11.071 -15.796  0.00  0.00    +0.000 A 
ENDBRANCH  10  11
ENDBRANCH   1  10
TORSDOF 2
ENDMDL
MODEL 4
REMARK VINA RESULT:    -5.237     21.307     21.995
REMARK INTER + INTRA:          -5.963
REMARK INTER:                  -5.840
REMARK INTRA:                  -0.123
REMARK UNBOUND:                -0.114
REMARK  Name = 1550473
REMARK  2 active torsions:
REMARK  status: ('A' for Active; 'I' for Inactive)
REMARK    1  A    between atoms: N_1  and  C_4
REMARK    2  A    between atoms: C_4  and  C_5
REMARK                            x       y       z     vdW  Elec       q    Type
REMARK                         _______ _______ _______ _____ _____    ______ ____
ROOT
ATOM      1  N   UNL     1     -16.545  -7.913   1.849  0.00  0.00    -0.354 N 
ATOM      2  N   UNL     1     -18.400  -7.239   3.061  0.00  0.00    -0.372 N 
ATOM      3  N   UNL     1     -17.197  -5.663   1.905  0.00  0.00    -0.372 N 
ATOM      4  C   UNL     1     -17.367  -6.941   2.263  0.00  0.00    +0.166 C 
ATOM      5  H   UNL     1     -16.710  -8.857   2.180  0.00  0.00    +0.163 HD
ATOM      6  H   UNL     1     -19.039  -6.527   3.387  0.00  0.00    +0.159 HD
ATOM      7  H   UNL     1     -18.590  -8.190   3.353  0.00  0.00    +0.159 HD
ATOM      8  H   UNL     1     -16.434  -5.371   1.310  0.00  0.00    +0.159 HD
ATOM      9  H   UNL     1     -17.820  -4.934   2.230  0.00  0.00    +0.159 HD
ENDROOT
BRANCH   1  10
ATOM     10  C   UNL     1     -15.423  -7.702   0.935  0.00  0.00    +0.151 C 
BRANCH  10  11
ATOM     11  C   UNL     1     -15.041  -9.018   0.315  0.00  0.00    -0.028 A 
ATOM     12  C   UNL     1     -15.473 -10.225   0.883  0.00  0.00    +0.005 A 
ATOM     13  C   UNL     1     -14.251  -9.063  -0.845  0.00  0.00    +0.005 A 
ATOM     14  C   UNL     1     -15.143 -11.446   0.290  0.00  0.00    +0.000 A 
ATOM     15  C   UNL     1     -13.923 -10.284  -1.433  0.00  0.00    +0.000 A 
ATOM     16  C   UNL     1     -14.371 -11.475  -0.867  0.00  0.00    +0.000 A 
ENDBRANCH  10  11
ENDBRANCH   1  10
TORSDOF 2
ENDMDL
MODEL 5
REMARK VINA RESULT:    -5.216     20.556     21.302
REMARK INTER + INTRA:          -5.939
REMARK INTER:                  -5.823
REMARK INTRA:                  -0.116
REMARK UNBOUND:                -0.114
REMARK  Name = 1550473
REMARK  2 active torsions:
REMARK  status: ('A' for Active; 'I' for Inactive)
REMARK    1  A    between atoms: N_1  and  C_4
REMARK    2  A    between atoms: C_4  and  C_5
REMARK                            x       y       z     vdW  Elec       q    Type
REMARK                         _______ _______ _______ _____ _____    ______ ____
ROOT
ATOM      1  N   UNL     1     -17.827 -10.329  -0.151  0.00  0.00    -0.354 N 
ATOM      2  N   UNL     1     -19.107  -8.638   0.782  0.00  0.00    -0.372 N 
ATOM      3  N   UNL     1     -18.707  -8.609  -1.477  0.00  0.00    -0.372 N 
ATOM      4  C   UNL     1     -18.538  -9.202  -0.291  0.00  0.00    +0.166 C 
ATOM      5  H   UNL     1     -17.711 -10.712   0.780  0.00  0.00    +0.163 HD
ATOM      6  H   UNL     1     -19.652  -7.790   0.707  0.00  0.00    +0.159 HD
ATOM      7  H   UNL     1     -19.028  -9.049   1.704  0.00  0.00    +0.159 HD
ATOM      8  H   UNL     1     -18.299  -8.980  -2.325  0.00  0.00    +0.159 HD
ATOM      9  H   UNL     1     -19.239  -7.753  -1.571  0.00  0.00    +0.159 HD
ENDROOT
BRANCH   1  10
ATOM     10  C   UNL     1     -17.213 -11.051  -1.263  0.00  0.00    +0.151 C 
BRANCH  10  11
ATOM     11  C   UNL     1     -15.799 -11.408  -0.895  0.00  0.00    -0.028 A 
ATOM     12  C   UNL     1     -14.720 -10.693  -1.435  0.00  0.00    +0.005 A 
ATOM     13  C   UNL     1     -15.531 -12.458  -0.003  0.00  0.00    +0.005 A 
ATOM     14  C   UNL     1     -13.408 -11.005  -1.071  0.00  0.00    +0.000 A 
ATOM     15  C   UNL     1     -14.220 -12.767   0.357  0.00  0.00    +0.000 A 
ATOM     16  C   UNL     1     -13.159 -12.039  -0.175  0.00  0.00    +0.000 A 
ENDBRANCH  10  11
ENDBRANCH   1  10
TORSDOF 2
ENDMDL
MODEL 6
REMARK VINA RESULT:    -5.140     13.806     15.133
REMARK INTER + INTRA:          -5.854
REMARK INTER:                  -5.709
REMARK INTRA:                  -0.145
REMARK UNBOUND:                -0.114
REMARK  Name = 1550473
REMARK  2 active torsions:
REMARK  status: ('A' for Active; 'I' for Inactive)
REMARK    1  A    between atoms: N_1  and  C_4
REMARK    2  A    between atoms: C_4  and  C_5
REMARK                            x       y       z     vdW  Elec       q    Type
REMARK                         _______ _______ _______ _____ _____    ______ ____
ROOT
ATOM      1  N   UNL     1       1.296   2.327 -18.082  0.00  0.00    -0.354 N 
ATOM      2  N   UNL     1       3.459   2.896 -18.685  0.00  0.00    -0.372 N 
ATOM      3  N   UNL     1       3.060   2.158 -16.549  0.00  0.00    -0.372 N 
ATOM      4  C   UNL     1       2.591   2.456 -17.765  0.00  0.00    +0.166 C 
ATOM      5  H   UNL     1       0.999   2.597 -19.012  0.00  0.00    +0.163 HD
ATOM      6  H   UNL     1       4.443   3.000 -18.476  0.00  0.00    +0.159 HD
ATOM      7  H   UNL     1       3.166   3.122 -19.628  0.00  0.00    +0.159 HD
ATOM      8  H   UNL     1       2.457   1.827 -15.808  0.00  0.00    +0.159 HD
ATOM      9  H   UNL     1       4.040   2.267 -16.317  0.00  0.00    +0.159 HD
ENDROOT
BRANCH   1  10
ATOM     10  C   UNL     1       0.279   1.805 -17.170  0.00  0.00    +0.151 C 
BRANCH  10  11
ATOM     11  C   UNL     1      -0.309   0.551 -17.755  0.00  0.00    -0.028 A 
ATOM     12  C   UNL     1      -1.165  -0.256 -16.992  0.00  0.00    +0.005 A 
ATOM     13  C   UNL     1      -0.017   0.167 -19.073  0.00  0.00    +0.005 A 
ATOM     14  C   UNL     1      -1.735  -1.406 -17.545  0.00  0.00    +0.000 A 
ATOM     15  C   UNL     1      -0.588  -0.982 -19.621  0.00  0.00    +0.000 A 
ATOM     16  C   UNL     1      -1.449  -1.766 -18.857  0.00  0.00    +0.000 A 
ENDBRANCH  10  11
ENDBRANCH   1  10
TORSDOF 2
ENDMDL
MODEL 7
REMARK VINA RESULT:    -5.127     13.543     15.102
REMARK INTER + INTRA:          -5.840
REMARK INTER:                  -5.688
REMARK INTRA:                  -0.152
REMARK UNBOUND:                -0.114
REMARK  Name = 1550473
REMARK  2 active torsions:
REMARK  status: ('A' for Active; 'I' for Inactive)
REMARK    1  A    between atoms: N_1  and  C_4
REMARK    2  A    between atoms: C_4  and  C_5
REMARK                            x       y       z     vdW  Elec       q    Type
REMARK                         _______ _______ _______ _____ _____    ______ ____
ROOT
ATOM      1  N   UNL     1       2.650   1.701 -17.221  0.00  0.00    -0.354 N 
ATOM      2  N   UNL     1       3.762   2.748 -18.962  0.00  0.00    -0.372 N 
ATOM      3  N   UNL     1       1.557   3.260 -18.587  0.00  0.00    -0.372 N 
ATOM      4  C   UNL     1       2.646   2.564 -18.246  0.00  0.00    +0.166 C 
ATOM      5  H   UNL     1       3.499   1.182 -17.032  0.00  0.00    +0.163 HD
ATOM      6  H   UNL     1       3.790   3.395 -19.739  0.00  0.00    +0.159 HD
ATOM      7  H   UNL     1       4.622   2.262 -18.742  0.00  0.00    +0.159 HD
ATOM      8  H   UNL     1       0.681   3.162 -18.091  0.00  0.00    +0.159 HD
ATOM      9  H   UNL     1       1.562   3.904 -19.369  0.00  0.00    +0.159 HD
ENDROOT
BRANCH   1  10
ATOM     10  C   UNL     1       1.503   1.468 -16.345  0.00  0.00    +0.151 C 
BRANCH  10  11
ATOM     11  C   UNL     1       0.687   0.331 -16.897  0.00  0.00    -0.028 A 
ATOM     12  C   UNL     1       1.308  -0.857 -17.309  0.00  0.00    +0.005 A 
ATOM     13  C   UNL     1      -0.708   0.434 -17.004  0.00  0.00    +0.005 A 
ATOM     14  C   UNL     1       0.547  -1.924 -17.793  0.00  0.00    +0.000 A 
ATOM     15  C   UNL     1      -1.464  -0.633 -17.489  0.00  0.00    +0.000 A 
ATOM     16  C   UNL     1      -0.836  -1.813 -17.881  0.00  0.00    +0.000 A 
ENDBRANCH  10  11
ENDBRANCH   1  10
TORSDOF 2
ENDMDL
MODEL 8
REMARK VINA RESULT:    -5.036     12.929     14.578
REMARK INTER + INTRA:          -5.738
REMARK INTER:                  -5.613
REMARK INTRA:                  -0.126
REMARK UNBOUND:                -0.114
REMARK  Name = 1550473
REMARK  2 active torsions:
REMARK  status: ('A' for Active; 'I' for Inactive)
REMARK    1  A    between atoms: N_1  and  C_4
REMARK    2  A    between atoms: C_4  and  C_5
REMARK                            x       y       z     vdW  Elec       q    Type
REMARK                         _______ _______ _______ _____ _____    ______ ____
ROOT
ATOM      1  N   UNL     1      -1.175  -1.150 -17.896  0.00  0.00    -0.354 N 
ATOM      2  N   UNL     1      -2.547  -2.720 -18.903  0.00  0.00    -0.372 N 
ATOM      3  N   UNL     1      -3.107  -1.930 -16.822  0.00  0.00    -0.372 N 
ATOM      4  C   UNL     1      -2.269  -1.923 -17.864  0.00  0.00    +0.166 C 
ATOM      5  H   UNL     1      -0.564  -1.213 -18.702  0.00  0.00    +0.163 HD
ATOM      6  H   UNL     1      -3.367  -3.312 -18.909  0.00  0.00    +0.159 HD
ATOM      7  H   UNL     1      -1.959  -2.747 -19.727  0.00  0.00    +0.159 HD
ATOM      8  H   UNL     1      -2.950  -1.355 -16.005  0.00  0.00    +0.159 HD
ATOM      9  H   UNL     1      -3.926  -2.524 -16.805  0.00  0.00    +0.159 HD
ENDROOT
BRANCH   1  10
ATOM     10  C   UNL     1      -0.810  -0.206 -16.840  0.00  0.00    +0.151 C 
BRANCH  10  11
ATOM     11  C   UNL     1       0.035   0.889 -17.431  0.00  0.00    -0.028 A 
ATOM     12  C   UNL     1      -0.147   1.289 -18.762  0.00  0.00    +0.005 A 
ATOM     13  C   UNL     1       1.016   1.533 -16.662  0.00  0.00    +0.005 A 
ATOM     14  C   UNL     1       0.617   2.326 -19.302  0.00  0.00    +0.000 A 
ATOM     15  C   UNL     1       1.778   2.568 -17.204  0.00  0.00    +0.000 A 
ATOM     16  C   UNL     1       1.577   2.966 -18.524  0.00  0.00    +0.000 A 
ENDBRANCH  10  11
ENDBRANCH   1  10
TORSDOF 2
ENDMDL
MODEL 9
REMARK VINA RESULT:    -4.781     19.101     19.771
REMARK INTER + INTRA:          -5.453
REMARK INTER:                  -5.354
REMARK INTRA:                  -0.099
REMARK UNBOUND:                -0.114
REMARK  Name = 1550473
REMARK  2 active torsions:
REMARK  status: ('A' for Active; 'I' for Inactive)
REMARK    1  A    between atoms: N_1  and  C_4
REMARK    2  A    between atoms: C_4  and  C_5
REMARK                            x       y       z     vdW  Elec       q    Type
REMARK                         _______ _______ _______ _____ _____    ______ ____
ROOT
ATOM      1  N   UNL     1     -18.567 -16.090  -3.920  0.00  0.00    -0.354 N 
ATOM      2  N   UNL     1     -20.054 -14.899  -2.602  0.00  0.00    -0.372 N 
ATOM      3  N   UNL     1     -20.057 -17.191  -2.485  0.00  0.00    -0.372 N 
ATOM      4  C   UNL     1     -19.551 -16.070  -3.010  0.00  0.00    +0.166 C 
ATOM      5  H   UNL     1     -18.248 -15.207  -4.302  0.00  0.00    +0.163 HD
ATOM      6  H   UNL     1     -20.794 -14.853  -1.914  0.00  0.00    +0.159 HD
ATOM      7  H   UNL     1     -19.701 -14.017  -2.951  0.00  0.00    +0.159 HD
ATOM      8  H   UNL     1     -19.725 -18.107  -2.756  0.00  0.00    +0.159 HD
ATOM      9  H   UNL     1     -20.806 -17.166  -1.804  0.00  0.00    +0.159 HD
ENDROOT
BRANCH   1  10
ATOM     10  C   UNL     1     -17.914 -17.309  -4.392  0.00  0.00    +0.151 C 
BRANCH  10  11
ATOM     11  C   UNL     1     -16.789 -16.937  -5.318  0.00  0.00    -0.028 A 
ATOM     12  C   UNL     1     -16.827 -17.310  -6.670  0.00  0.00    +0.005 A 
ATOM     13  C   UNL     1     -15.686 -16.206  -4.852  0.00  0.00    +0.005 A 
ATOM     14  C   UNL     1     -15.797 -16.939  -7.537  0.00  0.00    +0.000 A 
ATOM     15  C   UNL     1     -14.659 -15.837  -5.722  0.00  0.00    +0.000 A 
ATOM     16  C   UNL     1     -14.717 -16.202  -7.065  0.00  0.00    +0.000 A 
ENDBRANCH  10  11
ENDBRANCH   1  10
TORSDOF 2
ENDMDL
