MODEL 1
REMARK VINA RESULT:    -5.259      0.000      0.000
REMARK INTER + INTRA:          -5.984
REMARK INTER:                  -5.874
REMARK INTRA:                  -0.110
REMARK UNBOUND:                -0.110
REMARK  Name = 1550473
REMARK  2 active torsions:
REMARK  status: ('A' for Active; 'I' for Inactive)
REMARK    1  A    between atoms: N_1  and  C_4
REMARK    2  A    between atoms: C_4  and  C_5
REMARK                            x       y       z     vdW  Elec       q    Type
REMARK                         _______ _______ _______ _____ _____    ______ ____
ROOT
ATOM      1  N   UNL     1      -9.638  -7.387   0.046  0.00  0.00    -0.354 N 
ATOM      2  N   UNL     1      -9.465  -5.581  -1.395  0.00  0.00    -0.372 N 
ATOM      3  N   UNL     1     -11.106  -5.567   0.209  0.00  0.00    -0.372 N 
ATOM      4  C   UNL     1     -10.074  -6.190  -0.369  0.00  0.00    +0.166 C 
ATOM      5  H   UNL     1      -8.870  -7.819  -0.454  0.00  0.00    +0.163 HD
ATOM      6  H   UNL     1      -9.769  -4.676  -1.728  0.00  0.00    +0.159 HD
ATOM      7  H   UNL     1      -8.668  -5.995  -1.863  0.00  0.00    +0.159 HD
ATOM      8  H   UNL     1     -11.612  -5.976   0.984  0.00  0.00    +0.159 HD
ATOM      9  H   UNL     1     -11.433  -4.666  -0.118  0.00  0.00    +0.159 HD
ENDROOT
BRANCH   1  10
ATOM     10  C   UNL     1     -10.197  -8.109   1.188  0.00  0.00    +0.151 C 
BRANCH  10  11
ATOM     11  C   UNL     1      -9.242  -9.198   1.594  0.00  0.00    -0.028 A 
ATOM     12  C   UNL     1      -9.685 -10.523   1.717  0.00  0.00    +0.005 A 
ATOM     13  C   UNL     1      -7.893  -8.911   1.853  0.00  0.00    +0.005 A 
ATOM     14  C   UNL     1      -8.792 -11.539   2.066  0.00  0.00    +0.000 A 
ATOM     15  C   UNL     1      -7.005  -9.929   2.202  0.00  0.00    +0.000 A 
ATOM     16  C   UNL     1      -7.455 -11.243   2.306  0.00  0.00    +0.000 A 
ENDBRANCH  10  11
ENDBRANCH   1  10
TORSDOF 2
ENDMDL
MODEL 2
REMARK VINA RESULT:    -5.248      3.544      6.134
REMARK INTER + INTRA:          -5.971
REMARK INTER:                  -5.830
REMARK INTRA:                  -0.142
REMARK UNBOUND:                -0.110
REMARK  Name = 1550473
REMARK  2 active torsions:
REMARK  status: ('A' for Active; 'I' for Inactive)
REMARK    1  A    between atoms: N_1  and  C_4
REMARK    2  A    between atoms: C_4  and  C_5
REMARK                            x       y       z     vdW  Elec       q    Type
REMARK                         _______ _______ _______ _____ _____    ______ ____
ROOT
ATOM      1  N   UNL     1     -10.217  -6.374  -0.945  0.00  0.00    -0.354 N 
ATOM      2  N   UNL     1     -12.088  -7.043   0.245  0.00  0.00    -0.372 N 
ATOM      3  N   UNL     1     -10.013  -7.678   0.991  0.00  0.00    -0.372 N 
ATOM      4  C   UNL     1     -10.758  -7.029   0.091  0.00  0.00    +0.166 C 
ATOM      5  H   UNL     1     -10.838  -5.927  -1.610  0.00  0.00    +0.163 HD
ATOM      6  H   UNL     1     -12.525  -7.526   1.018  0.00  0.00    +0.159 HD
ATOM      7  H   UNL     1     -12.704  -6.557  -0.395  0.00  0.00    +0.159 HD
ATOM      8  H   UNL     1      -9.004  -7.711   0.928  0.00  0.00    +0.159 HD
ATOM      9  H   UNL     1     -10.433  -8.177   1.766  0.00  0.00    +0.159 HD
ENDROOT
BRANCH   1  10
ATOM     10  C   UNL     1      -8.778  -6.252  -1.173  0.00  0.00    +0.151 C 
BRANCH  10  11
ATOM     11  C   UNL     1      -8.450  -4.819  -1.488  0.00  0.00    -0.028 A 
ATOM     12  C   UNL     1      -9.462  -3.848  -1.523  0.00  0.00    +0.005 A 
ATOM     13  C   UNL     1      -7.129  -4.424  -1.748  0.00  0.00    +0.005 A 
ATOM     14  C   UNL     1      -9.154  -2.511  -1.786  0.00  0.00    +0.000 A 
ATOM     15  C   UNL     1      -6.826  -3.088  -2.011  0.00  0.00    +0.000 A 
ATOM     16  C   UNL     1      -7.838  -2.132  -2.028  0.00  0.00    +0.000 A 
ENDBRANCH  10  11
ENDBRANCH   1  10
TORSDOF 2
ENDMDL
MODEL 3
REMARK VINA RESULT:    -5.217      2.579      4.195
REMARK INTER + INTRA:          -5.937
REMARK INTER:                  -5.814
REMARK INTRA:                  -0.123
REMARK UNBOUND:                -0.110
REMARK  Name = 1550473
REMARK  2 active torsions:
REMARK  status: ('A' for Active; 'I' for Inactive)
REMARK    1  A    between atoms: N_1  and  C_4
REMARK    2  A    between atoms: C_4  and  C_5
REMARK                            x       y       z     vdW  Elec       q    Type
REMARK                         _______ _______ _______ _____ _____    ______ ____
ROOT
ATOM      1  N   UNL     1     -10.091  -3.782  -1.076  0.00  0.00    -0.354 N 
ATOM      2  N   UNL     1     -10.521  -1.523  -0.800  0.00  0.00    -0.372 N 
ATOM      3  N   UNL     1      -8.547  -2.164  -1.778  0.00  0.00    -0.372 N 
ATOM      4  C   UNL     1      -9.714  -2.504  -1.221  0.00  0.00    +0.166 C 
ATOM      5  H   UNL     1     -10.975  -3.974  -0.618  0.00  0.00    +0.163 HD
ATOM      6  H   UNL     1     -10.266  -0.550  -0.898  0.00  0.00    +0.159 HD
ATOM      7  H   UNL     1     -11.424  -1.717  -0.384  0.00  0.00    +0.159 HD
ATOM      8  H   UNL     1      -7.891  -2.858  -2.111  0.00  0.00    +0.159 HD
ATOM      9  H   UNL     1      -8.268  -1.196  -1.875  0.00  0.00    +0.159 HD
ENDROOT
BRANCH   1  10
ATOM     10  C   UNL     1      -9.310  -4.923  -1.550  0.00  0.00    +0.151 C 
BRANCH  10  11
ATOM     11  C   UNL     1      -9.556  -6.097  -0.642  0.00  0.00    -0.028 A 
ATOM     12  C   UNL     1      -8.595  -7.110  -0.513  0.00  0.00    +0.005 A 
ATOM     13  C   UNL     1     -10.745  -6.198   0.096  0.00  0.00    +0.005 A 
ATOM     14  C   UNL     1      -8.810  -8.186   0.352  0.00  0.00    +0.000 A 
ATOM     15  C   UNL     1     -10.956  -7.274   0.958  0.00  0.00    +0.000 A 
ATOM     16  C   UNL     1      -9.987  -8.266   1.088  0.00  0.00    +0.000 A 
ENDBRANCH  10  11
ENDBRANCH   1  10
TORSDOF 2
ENDMDL
MODEL 4
REMARK VINA RESULT:    -5.172      0.524      1.541
REMARK INTER + INTRA:          -5.886
REMARK INTER:                  -5.777
REMARK INTRA:                  -0.109
REMARK UNBOUND:                -0.110
REMARK  Name = 1550473
REMARK  2 active torsions:
REMARK  status: ('A' for Active; 'I' for Inactive)
REMARK    1  A    between atoms: N_1  and  C_4
REMARK    2  A    between atoms: C_4  and  C_5
REMARK                            x       y       z     vdW  Elec       q    Type
REMARK                         _______ _______ _______ _____ _____    ______ ____
ROOT
ATOM      1  N   UNL     1      -9.637  -7.534   0.498  0.00  0.00    -0.354 N 
ATOM      2  N   UNL     1      -9.813  -5.732  -0.946  0.00  0.00    -0.372 N 
ATOM      3  N   UNL     1     -11.649  -6.352   0.284  0.00  0.00    -0.372 N 
ATOM      4  C   UNL     1     -10.368  -6.551  -0.044  0.00  0.00    +0.166 C 
ATOM      5  H   UNL     1      -8.680  -7.651   0.185  0.00  0.00    +0.163 HD
ATOM      6  H   UNL     1     -10.339  -4.979  -1.369  0.00  0.00    +0.159 HD
ATOM      7  H   UNL     1      -8.844  -5.823  -1.223  0.00  0.00    +0.159 HD
ATOM      8  H   UNL     1     -12.128  -6.939   0.954  0.00  0.00    +0.159 HD
ATOM      9  H   UNL     1     -12.195  -5.611  -0.138  0.00  0.00    +0.159 HD
ENDROOT
BRANCH   1  10
ATOM     10  C   UNL     1     -10.129  -8.447   1.528  0.00  0.00    +0.151 C 
BRANCH  10  11
ATOM     11  C   UNL     1      -9.115  -9.536   1.745  0.00  0.00    -0.028 A 
ATOM     12  C   UNL     1      -7.745  -9.237   1.779  0.00  0.00    +0.005 A 
ATOM     13  C   UNL     1      -9.518 -10.868   1.924  0.00  0.00    +0.005 A 
ATOM     14  C   UNL     1      -6.805 -10.243   2.010  0.00  0.00    +0.000 A 
ATOM     15  C   UNL     1      -8.576 -11.870   2.154  0.00  0.00    +0.000 A 
ATOM     16  C   UNL     1      -7.220 -11.557   2.200  0.00  0.00    +0.000 A 
ENDBRANCH  10  11
ENDBRANCH   1  10
TORSDOF 2
ENDMDL
MODEL 5
REMARK VINA RESULT:    -5.171      3.085      4.995
REMARK INTER + INTRA:          -5.886
REMARK INTER:                  -5.764
REMARK INTRA:                  -0.121
REMARK UNBOUND:                -0.110
REMARK  Name = 1550473
REMARK  2 active torsions:
REMARK  status: ('A' for Active; 'I' for Inactive)
REMARK    1  A    between atoms: N_1  and  C_4
REMARK    2  A    between atoms: C_4  and  C_5
REMARK                            x       y       z     vdW  Elec       q    Type
REMARK                         _______ _______ _______ _____ _____    ______ ____
ROOT
ATOM      1  N   UNL     1      -6.735  -9.923   1.035  0.00  0.00    -0.354 N 
ATOM      2  N   UNL     1      -5.605 -11.797   0.278  0.00  0.00    -0.372 N 
ATOM      3  N   UNL     1      -6.587 -11.856   2.351  0.00  0.00    -0.372 N 
ATOM      4  C   UNL     1      -6.317 -11.181   1.229  0.00  0.00    +0.166 C 
ATOM      5  H   UNL     1      -6.472  -9.455   0.175  0.00  0.00    +0.163 HD
ATOM      6  H   UNL     1      -5.279 -12.747   0.394  0.00  0.00    +0.159 HD
ATOM      7  H   UNL     1      -5.382 -11.343  -0.599  0.00  0.00    +0.159 HD
ATOM      8  H   UNL     1      -7.115 -11.446   3.109  0.00  0.00    +0.159 HD
ATOM      9  H   UNL     1      -6.259 -12.804   2.491  0.00  0.00    +0.159 HD
ENDROOT
BRANCH   1  10
ATOM     10  C   UNL     1      -7.562  -9.180   1.985  0.00  0.00    +0.151 C 
BRANCH  10  11
ATOM     11  C   UNL     1      -8.626  -8.432   1.230  0.00  0.00    -0.028 A 
ATOM     12  C   UNL     1      -9.927  -8.332   1.744  0.00  0.00    +0.005 A 
ATOM     13  C   UNL     1      -8.338  -7.816   0.003  0.00  0.00    +0.005 A 
ATOM     14  C   UNL     1     -10.907  -7.612   1.058  0.00  0.00    +0.000 A 
ATOM     15  C   UNL     1      -9.320  -7.098  -0.680  0.00  0.00    +0.000 A 
ATOM     16  C   UNL     1     -10.604  -6.994  -0.151  0.00  0.00    +0.000 A 
ENDBRANCH  10  11
ENDBRANCH   1  10
TORSDOF 2
ENDMDL
MODEL 6
REMARK VINA RESULT:    -5.061      2.561      5.619
REMARK INTER + INTRA:          -5.762
REMARK INTER:                  -5.630
REMARK INTRA:                  -0.133
REMARK UNBOUND:                -0.110
REMARK  Name = 1550473
REMARK  2 active torsions:
REMARK  status: ('A' for Active; 'I' for Inactive)
REMARK    1  A    between atoms: N_1  and  C_4
REMARK    2  A    between atoms: C_4  and  C_5
REMARK                            x       y       z     vdW  Elec       q    Type
REMARK                         _______ _______ _______ _____ _____    ______ ____
ROOT
ATOM      1  N   UNL     1      -8.018  -7.847   0.110  0.00  0.00    -0.354 N 
ATOM      2  N   UNL     1      -7.216  -8.807   2.059  0.00  0.00    -0.372 N 
ATOM      3  N   UNL     1      -9.469  -8.420   1.859  0.00  0.00    -0.372 N 
ATOM      4  C   UNL     1      -8.242  -8.351   1.331  0.00  0.00    +0.166 C 
ATOM      5  H   UNL     1      -7.061  -7.795  -0.221  0.00  0.00    +0.163 HD
ATOM      6  H   UNL     1      -7.355  -9.197   2.982  0.00  0.00    +0.159 HD
ATOM      7  H   UNL     1      -6.266  -8.796   1.707  0.00  0.00    +0.159 HD
ATOM      8  H   UNL     1     -10.285  -8.087   1.363  0.00  0.00    +0.159 HD
ATOM      9  H   UNL     1      -9.627  -8.795   2.786  0.00  0.00    +0.159 HD
ENDROOT
BRANCH   1  10
ATOM     10  C   UNL     1      -9.072  -7.373  -0.785  0.00  0.00    +0.151 C 
BRANCH  10  11
ATOM     11  C   UNL     1      -8.775  -5.954  -1.186  0.00  0.00    -0.028 A 
ATOM     12  C   UNL     1      -9.770  -4.969  -1.106  0.00  0.00    +0.005 A 
ATOM     13  C   UNL     1      -7.499  -5.588  -1.641  0.00  0.00    +0.005 A 
ATOM     14  C   UNL     1      -9.487  -3.645  -1.450  0.00  0.00    +0.000 A 
ATOM     15  C   UNL     1      -7.221  -4.265  -1.984  0.00  0.00    +0.000 A 
ATOM     16  C   UNL     1      -8.214  -3.293  -1.886  0.00  0.00    +0.000 A 
ENDBRANCH  10  11
ENDBRANCH   1  10
TORSDOF 2
ENDMDL
MODEL 7
REMARK VINA RESULT:    -4.904     18.180     20.097
REMARK INTER + INTRA:          -5.587
REMARK INTER:                  -5.449
REMARK INTRA:                  -0.138
REMARK UNBOUND:                -0.110
REMARK  Name = 1550473
REMARK  2 active torsions:
REMARK  status: ('A' for Active; 'I' for Inactive)
REMARK    1  A    between atoms: N_1  and  C_4
REMARK    2  A    between atoms: C_4  and  C_5
REMARK                            x       y       z     vdW  Elec       q    Type
REMARK                         _______ _______ _______ _____ _____    ______ ____
ROOT
ATOM      1  N   UNL     1      -2.318   7.962 -11.043  0.00  0.00    -0.354 N 
ATOM      2  N   UNL     1      -1.782   8.839 -13.118  0.00  0.00    -0.372 N 
ATOM      3  N   UNL     1      -0.225   8.938 -11.437  0.00  0.00    -0.372 N 
ATOM      4  C   UNL     1      -1.443   8.575 -11.851  0.00  0.00    +0.166 C 
ATOM      5  H   UNL     1      -3.237   7.739 -11.409  0.00  0.00    +0.163 HD
ATOM      6  H   UNL     1      -1.142   9.297 -13.752  0.00  0.00    +0.159 HD
ATOM      7  H   UNL     1      -2.684   8.574 -13.495  0.00  0.00    +0.159 HD
ATOM      8  H   UNL     1       0.091   8.773 -10.490  0.00  0.00    +0.159 HD
ATOM      9  H   UNL     1       0.427   9.408 -12.053  0.00  0.00    +0.159 HD
ENDROOT
BRANCH   1  10
ATOM     10  C   UNL     1      -2.028   7.580  -9.662  0.00  0.00    +0.151 C 
BRANCH  10  11
ATOM     11  C   UNL     1      -2.522   6.180  -9.425  0.00  0.00    -0.028 A 
ATOM     12  C   UNL     1      -2.201   5.503  -8.239  0.00  0.00    +0.005 A 
ATOM     13  C   UNL     1      -3.315   5.526 -10.380  0.00  0.00    +0.005 A 
ATOM     14  C   UNL     1      -2.685   4.214  -8.005  0.00  0.00    +0.000 A 
ATOM     15  C   UNL     1      -3.795   4.238 -10.143  0.00  0.00    +0.000 A 
ATOM     16  C   UNL     1      -3.482   3.583  -8.955  0.00  0.00    +0.000 A 
ENDBRANCH  10  11
ENDBRANCH   1  10
TORSDOF 2
ENDMDL
MODEL 8
REMARK VINA RESULT:    -4.815     17.142     18.188
REMARK INTER + INTRA:          -5.488
REMARK INTER:                  -5.429
REMARK INTRA:                  -0.059
REMARK UNBOUND:                -0.110
REMARK  Name = 1550473
REMARK  2 active torsions:
REMARK  status: ('A' for Active; 'I' for Inactive)
REMARK    1  A    between atoms: N_1  and  C_4
REMARK    2  A    between atoms: C_4  and  C_5
REMARK                            x       y       z     vdW  Elec       q    Type
REMARK                         _______ _______ _______ _____ _____    ______ ____
ROOT
ATOM      1  N   UNL     1      -8.116   7.252   9.225  0.00  0.00    -0.354 N 
ATOM      2  N   UNL     1      -7.040   6.693  11.199  0.00  0.00    -0.372 N 
ATOM      3  N   UNL     1      -7.123   5.148   9.504  0.00  0.00    -0.372 N 
ATOM      4  C   UNL     1      -7.433   6.365   9.962  0.00  0.00    +0.166 C 
ATOM      5  H   UNL     1      -8.346   8.147   9.641  0.00  0.00    +0.163 HD
ATOM      6  H   UNL     1      -6.521   6.046  11.777  0.00  0.00    +0.159 HD
ATOM      7  H   UNL     1      -7.232   7.605  11.595  0.00  0.00    +0.159 HD
ATOM      8  H   UNL     1      -7.395   4.837   8.581  0.00  0.00    +0.159 HD
ATOM      9  H   UNL     1      -6.613   4.482  10.072  0.00  0.00    +0.159 HD
ENDROOT
BRANCH   1  10
ATOM     10  C   UNL     1      -8.543   7.014   7.848  0.00  0.00    +0.151 C 
BRANCH  10  11
ATOM     11  C   UNL     1      -7.676   7.819   6.919  0.00  0.00    -0.028 A 
ATOM     12  C   UNL     1      -8.246   8.547   5.865  0.00  0.00    +0.005 A 
ATOM     13  C   UNL     1      -6.284   7.862   7.091  0.00  0.00    +0.005 A 
ATOM     14  C   UNL     1      -7.445   9.319   5.020  0.00  0.00    +0.000 A 
ATOM     15  C   UNL     1      -5.487   8.633   6.245  0.00  0.00    +0.000 A 
ATOM     16  C   UNL     1      -6.068   9.363   5.211  0.00  0.00    +0.000 A 
ENDBRANCH  10  11
ENDBRANCH   1  10
TORSDOF 2
ENDMDL
MODEL 9
REMARK VINA RESULT:    -4.668      2.100      3.305
REMARK INTER + INTRA:          -5.324
REMARK INTER:                  -5.145
REMARK INTRA:                  -0.179
REMARK UNBOUND:                -0.110
REMARK  Name = 1550473
REMARK  2 active torsions:
REMARK  status: ('A' for Active; 'I' for Inactive)
REMARK    1  A    between atoms: N_1  and  C_4
REMARK    2  A    between atoms: C_4  and  C_5
REMARK                            x       y       z     vdW  Elec       q    Type
REMARK                         _______ _______ _______ _____ _____    ______ ____
ROOT
ATOM      1  N   UNL     1      -7.797  -5.870  -1.953  0.00  0.00    -0.354 N 
ATOM      2  N   UNL     1      -7.338  -3.608  -1.766  0.00  0.00    -0.372 N 
ATOM      3  N   UNL     1      -9.501  -4.273  -2.149  0.00  0.00    -0.372 N 
ATOM      4  C   UNL     1      -8.218  -4.599  -1.958  0.00  0.00    +0.166 C 
ATOM      5  H   UNL     1      -6.806  -6.049  -1.833  0.00  0.00    +0.163 HD
ATOM      6  H   UNL     1      -7.627  -2.639  -1.762  0.00  0.00    +0.159 HD
ATOM      7  H   UNL     1      -6.356  -3.792  -1.601  0.00  0.00    +0.159 HD
ATOM      8  H   UNL     1     -10.213  -4.974  -2.306  0.00  0.00    +0.159 HD
ATOM      9  H   UNL     1      -9.807  -3.309  -2.160  0.00  0.00    +0.159 HD
ENDROOT
BRANCH   1  10
ATOM     10  C   UNL     1      -8.681  -7.025  -2.099  0.00  0.00    +0.151 C 
BRANCH  10  11
ATOM     11  C   UNL     1      -9.018  -7.562  -0.735  0.00  0.00    -0.028 A 
ATOM     12  C   UNL     1      -8.104  -8.370  -0.043  0.00  0.00    +0.005 A 
ATOM     13  C   UNL     1     -10.246  -7.261  -0.126  0.00  0.00    +0.005 A 
ATOM     14  C   UNL     1      -8.403  -8.844   1.237  0.00  0.00    +0.000 A 
ATOM     15  C   UNL     1     -10.541  -7.737   1.151  0.00  0.00    +0.000 A 
ATOM     16  C   UNL     1      -9.619  -8.526   1.833  0.00  0.00    +0.000 A 
ENDBRANCH  10  11
ENDBRANCH   1  10
TORSDOF 2
ENDMDL
