MODEL 1
REMARK VINA RESULT:    -5.718      0.000      0.000
REMARK INTER + INTRA:          -6.506
REMARK INTER:                  -6.387
REMARK INTRA:                  -0.119
REMARK UNBOUND:                -0.119
REMARK  Name = 1550473
REMARK  2 active torsions:
REMARK  status: ('A' for Active; 'I' for Inactive)
REMARK    1  A    between atoms: N_1  and  C_4
REMARK    2  A    between atoms: C_4  and  C_5
REMARK                            x       y       z     vdW  Elec       q    Type
REMARK                         _______ _______ _______ _____ _____    ______ ____
ROOT
ATOM      1  N   UNL     1       4.967   8.854  28.490  0.00  0.00    -0.354 N 
ATOM      2  N   UNL     1       6.940   9.532  29.495  0.00  0.00    -0.372 N 
ATOM      3  N   UNL     1       5.221   8.787  30.819  0.00  0.00    -0.372 N 
ATOM      4  C   UNL     1       5.695   9.053  29.597  0.00  0.00    +0.166 C 
ATOM      5  H   UNL     1       5.373   9.103  27.596  0.00  0.00    +0.163 HD
ATOM      6  H   UNL     1       7.514   9.689  30.312  0.00  0.00    +0.159 HD
ATOM      7  H   UNL     1       7.360   9.738  28.597  0.00  0.00    +0.159 HD
ATOM      8  H   UNL     1       4.286   8.429  30.965  0.00  0.00    +0.159 HD
ATOM      9  H   UNL     1       5.776   8.949  31.650  0.00  0.00    +0.159 HD
ENDROOT
BRANCH   1  10
ATOM     10  C   UNL     1       3.620   8.285  28.489  0.00  0.00    +0.151 C 
BRANCH  10  11
ATOM     11  C   UNL     1       3.388   7.575  27.183  0.00  0.00    -0.028 A 
ATOM     12  C   UNL     1       4.314   6.633  26.711  0.00  0.00    +0.005 A 
ATOM     13  C   UNL     1       2.242   7.837  26.417  0.00  0.00    +0.005 A 
ATOM     14  C   UNL     1       4.084   5.952  25.513  0.00  0.00    +0.000 A 
ATOM     15  C   UNL     1       2.017   7.155  25.221  0.00  0.00    +0.000 A 
ATOM     16  C   UNL     1       2.937   6.211  24.771  0.00  0.00    +0.000 A 
ENDBRANCH  10  11
ENDBRANCH   1  10
TORSDOF 2
ENDMDL
MODEL 2
REMARK VINA RESULT:    -5.665     39.022     40.505
REMARK INTER + INTRA:          -6.446
REMARK INTER:                  -6.273
REMARK INTRA:                  -0.173
REMARK UNBOUND:                -0.119
REMARK  Name = 1550473
REMARK  2 active torsions:
REMARK  status: ('A' for Active; 'I' for Inactive)
REMARK    1  A    between atoms: N_1  and  C_4
REMARK    2  A    between atoms: C_4  and  C_5
REMARK                            x       y       z     vdW  Elec       q    Type
REMARK                         _______ _______ _______ _____ _____    ______ ____
ROOT
ATOM      1  N   UNL     1      -7.405   0.430 -10.429  0.00  0.00    -0.354 N 
ATOM      2  N   UNL     1      -8.698   2.003  -9.325  0.00  0.00    -0.372 N 
ATOM      3  N   UNL     1      -7.264   0.692  -8.105  0.00  0.00    -0.372 N 
ATOM      4  C   UNL     1      -7.779   1.030  -9.292  0.00  0.00    +0.166 C 
ATOM      5  H   UNL     1      -7.855   0.712 -11.293  0.00  0.00    +0.163 HD
ATOM      6  H   UNL     1      -8.998   2.476  -8.483  0.00  0.00    +0.159 HD
ATOM      7  H   UNL     1      -9.113   2.314 -10.195  0.00  0.00    +0.159 HD
ATOM      8  H   UNL     1      -6.571  -0.039  -8.011  0.00  0.00    +0.159 HD
ATOM      9  H   UNL     1      -7.559   1.145  -7.250  0.00  0.00    +0.159 HD
ENDROOT
BRANCH   1  10
ATOM     10  C   UNL     1      -6.373  -0.603 -10.508  0.00  0.00    +0.151 C 
BRANCH  10  11
ATOM     11  C   UNL     1      -7.030  -1.956 -10.480  0.00  0.00    -0.028 A 
ATOM     12  C   UNL     1      -7.983  -2.305 -11.448  0.00  0.00    +0.005 A 
ATOM     13  C   UNL     1      -6.698  -2.895  -9.492  0.00  0.00    +0.005 A 
ATOM     14  C   UNL     1      -8.571  -3.572 -11.440  0.00  0.00    +0.000 A 
ATOM     15  C   UNL     1      -7.288  -4.159  -9.487  0.00  0.00    +0.000 A 
ATOM     16  C   UNL     1      -8.223  -4.498 -10.462  0.00  0.00    +0.000 A 
ENDBRANCH  10  11
ENDBRANCH   1  10
TORSDOF 2
ENDMDL
MODEL 3
REMARK VINA RESULT:    -5.636     37.015     38.392
REMARK INTER + INTRA:          -6.414
REMARK INTER:                  -6.253
REMARK INTRA:                  -0.161
REMARK UNBOUND:                -0.119
REMARK  Name = 1550473
REMARK  2 active torsions:
REMARK  status: ('A' for Active; 'I' for Inactive)
REMARK    1  A    between atoms: N_1  and  C_4
REMARK    2  A    between atoms: C_4  and  C_5
REMARK                            x       y       z     vdW  Elec       q    Type
REMARK                         _______ _______ _______ _____ _____    ______ ____
ROOT
ATOM      1  N   UNL     1      -6.936   0.858  -8.232  0.00  0.00    -0.354 N 
ATOM      2  N   UNL     1      -8.336   2.507  -9.059  0.00  0.00    -0.372 N 
ATOM      3  N   UNL     1      -7.811   0.722 -10.402  0.00  0.00    -0.372 N 
ATOM      4  C   UNL     1      -7.685   1.350  -9.228  0.00  0.00    +0.166 C 
ATOM      5  H   UNL     1      -6.857   1.397  -7.378  0.00  0.00    +0.163 HD
ATOM      6  H   UNL     1      -8.911   2.901  -9.791  0.00  0.00    +0.159 HD
ATOM      7  H   UNL     1      -8.292   3.021  -8.188  0.00  0.00    +0.159 HD
ATOM      8  H   UNL     1      -7.340  -0.152 -10.595  0.00  0.00    +0.159 HD
ATOM      9  H   UNL     1      -8.373   1.106 -11.151  0.00  0.00    +0.159 HD
ENDROOT
BRANCH   1  10
ATOM     10  C   UNL     1      -6.230  -0.420  -8.295  0.00  0.00    +0.151 C 
BRANCH  10  11
ATOM     11  C   UNL     1      -4.752  -0.161  -8.398  0.00  0.00    -0.028 A 
ATOM     12  C   UNL     1      -4.110   0.678  -7.475  0.00  0.00    +0.005 A 
ATOM     13  C   UNL     1      -3.987  -0.756  -9.413  0.00  0.00    +0.005 A 
ATOM     14  C   UNL     1      -2.733   0.895  -7.552  0.00  0.00    +0.000 A 
ATOM     15  C   UNL     1      -2.612  -0.535  -9.487  0.00  0.00    +0.000 A 
ATOM     16  C   UNL     1      -1.985   0.288  -8.555  0.00  0.00    +0.000 A 
ENDBRANCH  10  11
ENDBRANCH   1  10
TORSDOF 2
ENDMDL
MODEL 4
REMARK VINA RESULT:    -5.549     51.648     53.091
REMARK INTER + INTRA:          -6.316
REMARK INTER:                  -6.183
REMARK INTRA:                  -0.133
REMARK UNBOUND:                -0.119
REMARK  Name = 1550473
REMARK  2 active torsions:
REMARK  status: ('A' for Active; 'I' for Inactive)
REMARK    1  A    between atoms: N_1  and  C_4
REMARK    2  A    between atoms: C_4  and  C_5
REMARK                            x       y       z     vdW  Elec       q    Type
REMARK                         _______ _______ _______ _____ _____    ______ ____
ROOT
ATOM      1  N   UNL     1      -7.473 -16.152 -18.738  0.00  0.00    -0.354 N 
ATOM      2  N   UNL     1      -5.598 -17.507 -18.635  0.00  0.00    -0.372 N 
ATOM      3  N   UNL     1      -7.247 -18.009 -20.149  0.00  0.00    -0.372 N 
ATOM      4  C   UNL     1      -6.786 -17.215 -19.177  0.00  0.00    +0.166 C 
ATOM      5  H   UNL     1      -7.083 -15.608 -17.977  0.00  0.00    +0.163 HD
ATOM      6  H   UNL     1      -5.055 -18.301 -18.948  0.00  0.00    +0.159 HD
ATOM      7  H   UNL     1      -5.189 -16.934 -17.907  0.00  0.00    +0.159 HD
ATOM      8  H   UNL     1      -8.140 -17.847 -20.595  0.00  0.00    +0.159 HD
ATOM      9  H   UNL     1      -6.724 -18.815 -20.468  0.00  0.00    +0.159 HD
ENDROOT
BRANCH   1  10
ATOM     10  C   UNL     1      -8.752 -15.717 -19.297  0.00  0.00    +0.151 C 
BRANCH  10  11
ATOM     11  C   UNL     1      -9.595 -15.131 -18.198  0.00  0.00    -0.028 A 
ATOM     12  C   UNL     1     -10.792 -14.464 -18.497  0.00  0.00    +0.005 A 
ATOM     13  C   UNL     1      -9.205 -15.246 -16.855  0.00  0.00    +0.005 A 
ATOM     14  C   UNL     1     -11.590 -13.947 -17.474  0.00  0.00    +0.000 A 
ATOM     15  C   UNL     1     -10.005 -14.727 -15.836  0.00  0.00    +0.000 A 
ATOM     16  C   UNL     1     -11.199 -14.080 -16.147  0.00  0.00    +0.000 A 
ENDBRANCH  10  11
ENDBRANCH   1  10
TORSDOF 2
ENDMDL
MODEL 5
REMARK VINA RESULT:    -5.523     37.317     38.602
REMARK INTER + INTRA:          -6.287
REMARK INTER:                  -6.165
REMARK INTRA:                  -0.122
REMARK UNBOUND:                -0.119
REMARK  Name = 1550473
REMARK  2 active torsions:
REMARK  status: ('A' for Active; 'I' for Inactive)
REMARK    1  A    between atoms: N_1  and  C_4
REMARK    2  A    between atoms: C_4  and  C_5
REMARK                            x       y       z     vdW  Elec       q    Type
REMARK                         _______ _______ _______ _____ _____    ______ ____
ROOT
ATOM      1  N   UNL     1      -6.135  -0.115  -9.580  0.00  0.00    -0.354 N 
ATOM      2  N   UNL     1      -7.751   0.151 -11.217  0.00  0.00    -0.372 N 
ATOM      3  N   UNL     1      -8.103   1.082  -9.150  0.00  0.00    -0.372 N 
ATOM      4  C   UNL     1      -7.320   0.372  -9.969  0.00  0.00    +0.166 C 
ATOM      5  H   UNL     1      -5.603  -0.671 -10.239  0.00  0.00    +0.163 HD
ATOM      6  H   UNL     1      -8.639   0.509 -11.541  0.00  0.00    +0.159 HD
ATOM      7  H   UNL     1      -7.196  -0.366 -11.889  0.00  0.00    +0.159 HD
ATOM      8  H   UNL     1      -7.839   1.279  -8.194  0.00  0.00    +0.159 HD
ATOM      9  H   UNL     1      -9.001   1.439  -9.452  0.00  0.00    +0.159 HD
ENDROOT
BRANCH   1  10
ATOM     10  C   UNL     1      -5.550   0.115  -8.260  0.00  0.00    +0.151 C 
BRANCH  10  11
ATOM     11  C   UNL     1      -4.052   0.126  -8.381  0.00  0.00    -0.028 A 
ATOM     12  C   UNL     1      -3.415  -0.594  -9.402  0.00  0.00    +0.005 A 
ATOM     13  C   UNL     1      -3.263   0.859  -7.481  0.00  0.00    +0.005 A 
ATOM     14  C   UNL     1      -2.025  -0.560  -9.534  0.00  0.00    +0.000 A 
ATOM     15  C   UNL     1      -1.875   0.889  -7.615  0.00  0.00    +0.000 A 
ATOM     16  C   UNL     1      -1.256   0.182  -8.643  0.00  0.00    +0.000 A 
ENDBRANCH  10  11
ENDBRANCH   1  10
TORSDOF 2
ENDMDL
MODEL 6
REMARK VINA RESULT:    -5.423     25.843     27.399
REMARK INTER + INTRA:          -6.176
REMARK INTER:                  -6.126
REMARK INTRA:                  -0.050
REMARK UNBOUND:                -0.119
REMARK  Name = 1550473
REMARK  2 active torsions:
REMARK  status: ('A' for Active; 'I' for Inactive)
REMARK    1  A    between atoms: N_1  and  C_4
REMARK    2  A    between atoms: C_4  and  C_5
REMARK                            x       y       z     vdW  Elec       q    Type
REMARK                         _______ _______ _______ _____ _____    ______ ____
ROOT
ATOM      1  N   UNL     1       1.683   4.550   1.640  0.00  0.00    -0.354 N 
ATOM      2  N   UNL     1       0.382   6.424   1.241  0.00  0.00    -0.372 N 
ATOM      3  N   UNL     1       2.496   6.702   2.089  0.00  0.00    -0.372 N 
ATOM      4  C   UNL     1       1.531   5.881   1.660  0.00  0.00    +0.166 C 
ATOM      5  H   UNL     1       0.903   3.981   1.333  0.00  0.00    +0.163 HD
ATOM      6  H   UNL     1       0.240   7.425   1.241  0.00  0.00    +0.159 HD
ATOM      7  H   UNL     1      -0.379   5.855   0.891  0.00  0.00    +0.159 HD
ATOM      8  H   UNL     1       3.385   6.354   2.424  0.00  0.00    +0.159 HD
ATOM      9  H   UNL     1       2.368   7.706   2.108  0.00  0.00    +0.159 HD
ENDROOT
BRANCH   1  10
ATOM     10  C   UNL     1       2.914   3.861   2.025  0.00  0.00    +0.151 C 
BRANCH  10  11
ATOM     11  C   UNL     1       3.588   3.332   0.789  0.00  0.00    -0.028 A 
ATOM     12  C   UNL     1       3.302   3.882  -0.469  0.00  0.00    +0.005 A 
ATOM     13  C   UNL     1       4.518   2.284   0.870  0.00  0.00    +0.005 A 
ATOM     14  C   UNL     1       3.949   3.411  -1.614  0.00  0.00    +0.000 A 
ATOM     15  C   UNL     1       5.162   1.816  -0.276  0.00  0.00    +0.000 A 
ATOM     16  C   UNL     1       4.879   2.382  -1.517  0.00  0.00    +0.000 A 
ENDBRANCH  10  11
ENDBRANCH   1  10
TORSDOF 2
ENDMDL
MODEL 7
REMARK VINA RESULT:    -5.382     34.378     36.105
REMARK INTER + INTRA:          -6.130
REMARK INTER:                  -5.967
REMARK INTRA:                  -0.163
REMARK UNBOUND:                -0.119
REMARK  Name = 1550473
REMARK  2 active torsions:
REMARK  status: ('A' for Active; 'I' for Inactive)
REMARK    1  A    between atoms: N_1  and  C_4
REMARK    2  A    between atoms: C_4  and  C_5
REMARK                            x       y       z     vdW  Elec       q    Type
REMARK                         _______ _______ _______ _____ _____    ______ ____
ROOT
ATOM      1  N   UNL     1       0.837   2.217  -7.521  0.00  0.00    -0.354 N 
ATOM      2  N   UNL     1       1.269   4.434  -7.008  0.00  0.00    -0.372 N 
ATOM      3  N   UNL     1       0.475   3.049  -5.360  0.00  0.00    -0.372 N 
ATOM      4  C   UNL     1       0.856   3.218  -6.630  0.00  0.00    +0.166 C 
ATOM      5  H   UNL     1       1.109   2.418  -8.476  0.00  0.00    +0.163 HD
ATOM      6  H   UNL     1       1.299   5.207  -6.357  0.00  0.00    +0.159 HD
ATOM      7  H   UNL     1       1.585   4.620  -7.952  0.00  0.00    +0.159 HD
ATOM      8  H   UNL     1       0.148   2.157  -5.013  0.00  0.00    +0.159 HD
ATOM      9  H   UNL     1       0.486   3.814  -4.697  0.00  0.00    +0.159 HD
ENDROOT
BRANCH   1  10
ATOM     10  C   UNL     1       0.455   0.843  -7.198  0.00  0.00    +0.151 C 
BRANCH  10  11
ATOM     11  C   UNL     1      -0.889   0.551  -7.806  0.00  0.00    -0.028 A 
ATOM     12  C   UNL     1      -0.990  -0.226  -8.969  0.00  0.00    +0.005 A 
ATOM     13  C   UNL     1      -2.065   1.043  -7.221  0.00  0.00    +0.005 A 
ATOM     14  C   UNL     1      -2.240  -0.523  -9.518  0.00  0.00    +0.000 A 
ATOM     15  C   UNL     1      -3.311   0.745  -7.771  0.00  0.00    +0.000 A 
ATOM     16  C   UNL     1      -3.399  -0.040  -8.918  0.00  0.00    +0.000 A 
ENDBRANCH  10  11
ENDBRANCH   1  10
TORSDOF 2
ENDMDL
MODEL 8
REMARK VINA RESULT:    -5.338     34.532     35.732
REMARK INTER + INTRA:          -6.081
REMARK INTER:                  -5.952
REMARK INTRA:                  -0.129
REMARK UNBOUND:                -0.119
REMARK  Name = 1550473
REMARK  2 active torsions:
REMARK  status: ('A' for Active; 'I' for Inactive)
REMARK    1  A    between atoms: N_1  and  C_4
REMARK    2  A    between atoms: C_4  and  C_5
REMARK                            x       y       z     vdW  Elec       q    Type
REMARK                         _______ _______ _______ _____ _____    ______ ____
ROOT
ATOM      1  N   UNL     1       0.275   2.614  -6.553  0.00  0.00    -0.354 N 
ATOM      2  N   UNL     1       1.377   4.585  -6.039  0.00  0.00    -0.372 N 
ATOM      3  N   UNL     1       2.194   3.265  -7.729  0.00  0.00    -0.372 N 
ATOM      4  C   UNL     1       1.277   3.474  -6.779  0.00  0.00    +0.166 C 
ATOM      5  H   UNL     1      -0.371   2.815  -5.798  0.00  0.00    +0.163 HD
ATOM      6  H   UNL     1       2.121   5.254  -6.189  0.00  0.00    +0.159 HD
ATOM      7  H   UNL     1       0.704   4.806  -5.315  0.00  0.00    +0.159 HD
ATOM      8  H   UNL     1       2.178   2.443  -8.318  0.00  0.00    +0.159 HD
ATOM      9  H   UNL     1       2.953   3.918  -7.886  0.00  0.00    +0.159 HD
ENDROOT
BRANCH   1  10
ATOM     10  C   UNL     1       0.045   1.402  -7.338  0.00  0.00    +0.151 C 
BRANCH  10  11
ATOM     11  C   UNL     1      -1.436   1.160  -7.444  0.00  0.00    -0.028 A 
ATOM     12  C   UNL     1      -2.327   1.805  -6.575  0.00  0.00    +0.005 A 
ATOM     13  C   UNL     1      -1.954   0.290  -8.416  0.00  0.00    +0.005 A 
ATOM     14  C   UNL     1      -3.704   1.604  -6.692  0.00  0.00    +0.000 A 
ATOM     15  C   UNL     1      -3.330   0.091  -8.530  0.00  0.00    +0.000 A 
ATOM     16  C   UNL     1      -4.205   0.750  -7.670  0.00  0.00    +0.000 A 
ENDBRANCH  10  11
ENDBRANCH   1  10
TORSDOF 2
ENDMDL
MODEL 9
REMARK VINA RESULT:    -5.032      4.139      5.896
REMARK INTER + INTRA:          -5.739
REMARK INTER:                  -5.589
REMARK INTRA:                  -0.150
REMARK UNBOUND:                -0.119
REMARK  Name = 1550473
REMARK  2 active torsions:
REMARK  status: ('A' for Active; 'I' for Inactive)
REMARK    1  A    between atoms: N_1  and  C_4
REMARK    2  A    between atoms: C_4  and  C_5
REMARK                            x       y       z     vdW  Elec       q    Type
REMARK                         _______ _______ _______ _____ _____    ______ ____
ROOT
ATOM      1  N   UNL     1      -0.033   6.878  26.628  0.00  0.00    -0.354 N 
ATOM      2  N   UNL     1       1.846   6.161  25.480  0.00  0.00    -0.372 N 
ATOM      3  N   UNL     1       1.507   8.414  25.754  0.00  0.00    -0.372 N 
ATOM      4  C   UNL     1       1.095   7.158  25.961  0.00  0.00    +0.166 C 
ATOM      5  H   UNL     1      -0.306   5.907  26.725  0.00  0.00    +0.163 HD
ATOM      6  H   UNL     1       2.704   6.342  24.976  0.00  0.00    +0.159 HD
ATOM      7  H   UNL     1       1.595   5.190  25.618  0.00  0.00    +0.159 HD
ATOM      8  H   UNL     1       0.982   9.211  26.087  0.00  0.00    +0.159 HD
ATOM      9  H   UNL     1       2.356   8.615  25.242  0.00  0.00    +0.159 HD
ENDROOT
BRANCH   1  10
ATOM     10  C   UNL     1      -0.894   7.889  27.239  0.00  0.00    +0.151 C 
BRANCH  10  11
ATOM     11  C   UNL     1      -0.450   8.121  28.657  0.00  0.00    -0.028 A 
ATOM     12  C   UNL     1      -0.096   7.041  29.478  0.00  0.00    +0.005 A 
ATOM     13  C   UNL     1      -0.375   9.420  29.183  0.00  0.00    +0.005 A 
ATOM     14  C   UNL     1       0.346   7.259  30.786  0.00  0.00    +0.000 A 
ATOM     15  C   UNL     1       0.066   9.633  30.489  0.00  0.00    +0.000 A 
ATOM     16  C   UNL     1       0.428   8.553  31.289  0.00  0.00    +0.000 A 
ENDBRANCH  10  11
ENDBRANCH   1  10
TORSDOF 2
ENDMDL
