MODEL 1
REMARK VINA RESULT:    -4.780      0.000      0.000
REMARK INTER + INTRA:          -5.440
REMARK INTER:                  -5.339
REMARK INTRA:                  -0.101
REMARK UNBOUND:                -0.101
REMARK  Name = 1550473
REMARK  2 active torsions:
REMARK  status: ('A' for Active; 'I' for Inactive)
REMARK    1  A    between atoms: N_1  and  C_4
REMARK    2  A    between atoms: C_4  and  C_5
REMARK                            x       y       z     vdW  Elec       q    Type
REMARK                         _______ _______ _______ _____ _____    ______ ____
ROOT
ATOM      1  N   UNL     1      13.039  -6.964   2.799  0.00  0.00    -0.354 N 
ATOM      2  N   UNL     1      14.096  -5.500   1.348  0.00  0.00    -0.372 N 
ATOM      3  N   UNL     1      11.943  -6.150   0.894  0.00  0.00    -0.372 N 
ATOM      4  C   UNL     1      13.017  -6.215   1.688  0.00  0.00    +0.166 C 
ATOM      5  H   UNL     1      13.894  -6.994   3.342  0.00  0.00    +0.163 HD
ATOM      6  H   UNL     1      14.108  -4.923   0.518  0.00  0.00    +0.159 HD
ATOM      7  H   UNL     1      14.934  -5.496   1.918  0.00  0.00    +0.159 HD
ATOM      8  H   UNL     1      11.098  -6.670   1.092  0.00  0.00    +0.159 HD
ATOM      9  H   UNL     1      11.939  -5.587   0.053  0.00  0.00    +0.159 HD
ENDROOT
BRANCH   1  10
ATOM     10  C   UNL     1      11.898  -7.737   3.287  0.00  0.00    +0.151 C 
BRANCH  10  11
ATOM     11  C   UNL     1      11.932  -7.767   4.790  0.00  0.00    -0.028 A 
ATOM     12  C   UNL     1      12.940  -8.472   5.465  0.00  0.00    +0.005 A 
ATOM     13  C   UNL     1      10.963  -7.089   5.545  0.00  0.00    +0.005 A 
ATOM     14  C   UNL     1      12.989  -8.476   6.861  0.00  0.00    +0.000 A 
ATOM     15  C   UNL     1      11.016  -7.096   6.939  0.00  0.00    +0.000 A 
ATOM     16  C   UNL     1      12.031  -7.788   7.596  0.00  0.00    +0.000 A 
ENDBRANCH  10  11
ENDBRANCH   1  10
TORSDOF 2
ENDMDL
MODEL 2
REMARK VINA RESULT:    -4.727     30.102     31.270
REMARK INTER + INTRA:          -5.381
REMARK INTER:                  -5.219
REMARK INTRA:                  -0.163
REMARK UNBOUND:                -0.101
REMARK  Name = 1550473
REMARK  2 active torsions:
REMARK  status: ('A' for Active; 'I' for Inactive)
REMARK    1  A    between atoms: N_1  and  C_4
REMARK    2  A    between atoms: C_4  and  C_5
REMARK                            x       y       z     vdW  Elec       q    Type
REMARK                         _______ _______ _______ _____ _____    ______ ____
ROOT
ATOM      1  N   UNL     1       5.977  13.042  26.332  0.00  0.00    -0.354 N 
ATOM      2  N   UNL     1       7.560  14.125  25.034  0.00  0.00    -0.372 N 
ATOM      3  N   UNL     1       6.378  15.337  26.583  0.00  0.00    -0.372 N 
ATOM      4  C   UNL     1       6.627  14.163  25.993  0.00  0.00    +0.166 C 
ATOM      5  H   UNL     1       6.191  12.190  25.826  0.00  0.00    +0.163 HD
ATOM      6  H   UNL     1       8.069  14.954  24.759  0.00  0.00    +0.159 HD
ATOM      7  H   UNL     1       7.804  13.263  24.562  0.00  0.00    +0.159 HD
ATOM      8  H   UNL     1       5.682  15.434  27.309  0.00  0.00    +0.159 HD
ATOM      9  H   UNL     1       6.869  16.181  26.313  0.00  0.00    +0.159 HD
ENDROOT
BRANCH   1  10
ATOM     10  C   UNL     1       4.982  12.965  27.400  0.00  0.00    +0.151 C 
BRANCH  10  11
ATOM     11  C   UNL     1       3.617  12.807  26.789  0.00  0.00    -0.028 A 
ATOM     12  C   UNL     1       2.565  13.653  27.168  0.00  0.00    +0.005 A 
ATOM     13  C   UNL     1       3.371  11.817  25.825  0.00  0.00    +0.005 A 
ATOM     14  C   UNL     1       1.304  13.526  26.579  0.00  0.00    +0.000 A 
ATOM     15  C   UNL     1       2.111  11.693  25.240  0.00  0.00    +0.000 A 
ATOM     16  C   UNL     1       1.079  12.549  25.615  0.00  0.00    +0.000 A 
ENDBRANCH  10  11
ENDBRANCH   1  10
TORSDOF 2
ENDMDL
MODEL 3
REMARK VINA RESULT:    -4.407     30.730     31.801
REMARK INTER + INTRA:          -5.024
REMARK INTER:                  -4.863
REMARK INTRA:                  -0.161
REMARK UNBOUND:                -0.101
REMARK  Name = 1550473
REMARK  2 active torsions:
REMARK  status: ('A' for Active; 'I' for Inactive)
REMARK    1  A    between atoms: N_1  and  C_4
REMARK    2  A    between atoms: C_4  and  C_5
REMARK                            x       y       z     vdW  Elec       q    Type
REMARK                         _______ _______ _______ _____ _____    ______ ____
ROOT
ATOM      1  N   UNL     1       2.314  11.359  28.549  0.00  0.00    -0.354 N 
ATOM      2  N   UNL     1       1.810   9.100  28.636  0.00  0.00    -0.372 N 
ATOM      3  N   UNL     1       1.123  10.320  26.818  0.00  0.00    -0.372 N 
ATOM      4  C   UNL     1       1.751  10.275  27.998  0.00  0.00    +0.166 C 
ATOM      5  H   UNL     1       2.749  11.265  29.459  0.00  0.00    +0.163 HD
ATOM      6  H   UNL     1       1.398   8.265  28.243  0.00  0.00    +0.159 HD
ATOM      7  H   UNL     1       2.286   9.000  29.524  0.00  0.00    +0.159 HD
ATOM      8  H   UNL     1       1.038  11.178  26.289  0.00  0.00    +0.159 HD
ATOM      9  H   UNL     1       0.693   9.497  26.415  0.00  0.00    +0.159 HD
ENDROOT
BRANCH   1  10
ATOM     10  C   UNL     1       2.352  12.674  27.911  0.00  0.00    +0.151 C 
BRANCH  10  11
ATOM     11  C   UNL     1       3.775  13.008  27.557  0.00  0.00    -0.028 A 
ATOM     12  C   UNL     1       4.232  12.867  26.239  0.00  0.00    +0.005 A 
ATOM     13  C   UNL     1       4.669  13.471  28.535  0.00  0.00    +0.005 A 
ATOM     14  C   UNL     1       5.546  13.206  25.904  0.00  0.00    +0.000 A 
ATOM     15  C   UNL     1       5.980  13.807  28.196  0.00  0.00    +0.000 A 
ATOM     16  C   UNL     1       6.417  13.676  26.881  0.00  0.00    +0.000 A 
ENDBRANCH  10  11
ENDBRANCH   1  10
TORSDOF 2
ENDMDL
MODEL 4
REMARK VINA RESULT:    -4.385     27.171     28.237
REMARK INTER + INTRA:          -4.999
REMARK INTER:                  -4.887
REMARK INTRA:                  -0.112
REMARK UNBOUND:                -0.101
REMARK  Name = 1550473
REMARK  2 active torsions:
REMARK  status: ('A' for Active; 'I' for Inactive)
REMARK    1  A    between atoms: N_1  and  C_4
REMARK    2  A    between atoms: C_4  and  C_5
REMARK                            x       y       z     vdW  Elec       q    Type
REMARK                         _______ _______ _______ _____ _____    ______ ____
ROOT
ATOM      1  N   UNL     1      -4.832  12.790   2.032  0.00  0.00    -0.354 N 
ATOM      2  N   UNL     1      -2.672  12.348   1.323  0.00  0.00    -0.372 N 
ATOM      3  N   UNL     1      -4.189  10.628   1.397  0.00  0.00    -0.372 N 
ATOM      4  C   UNL     1      -3.913  11.922   1.589  0.00  0.00    +0.166 C 
ATOM      5  H   UNL     1      -4.552  13.751   2.186  0.00  0.00    +0.163 HD
ATOM      6  H   UNL     1      -1.959  11.717   0.984  0.00  0.00    +0.159 HD
ATOM      7  H   UNL     1      -2.407  13.319   1.433  0.00  0.00    +0.159 HD
ATOM      8  H   UNL     1      -5.105  10.242   1.584  0.00  0.00    +0.159 HD
ATOM      9  H   UNL     1      -3.485   9.978   1.069  0.00  0.00    +0.159 HD
ENDROOT
BRANCH   1  10
ATOM     10  C   UNL     1      -6.226  12.439   2.300  0.00  0.00    +0.151 C 
BRANCH  10  11
ATOM     11  C   UNL     1      -7.100  13.620   1.980  0.00  0.00    -0.028 A 
ATOM     12  C   UNL     1      -7.707  14.356   3.008  0.00  0.00    +0.005 A 
ATOM     13  C   UNL     1      -7.321  14.011   0.650  0.00  0.00    +0.005 A 
ATOM     14  C   UNL     1      -8.495  15.471   2.712  0.00  0.00    +0.000 A 
ATOM     15  C   UNL     1      -8.109  15.125   0.359  0.00  0.00    +0.000 A 
ATOM     16  C   UNL     1      -8.693  15.856   1.390  0.00  0.00    +0.000 A 
ENDBRANCH  10  11
ENDBRANCH   1  10
TORSDOF 2
ENDMDL
MODEL 5
REMARK VINA RESULT:    -4.341     37.700     39.290
REMARK INTER + INTRA:          -4.950
REMARK INTER:                  -4.782
REMARK INTRA:                  -0.168
REMARK UNBOUND:                -0.101
REMARK  Name = 1550473
REMARK  2 active torsions:
REMARK  status: ('A' for Active; 'I' for Inactive)
REMARK    1  A    between atoms: N_1  and  C_4
REMARK    2  A    between atoms: C_4  and  C_5
REMARK                            x       y       z     vdW  Elec       q    Type
REMARK                         _______ _______ _______ _____ _____    ______ ____
ROOT
ATOM      1  N   UNL     1      -7.768  -4.549 -30.032  0.00  0.00    -0.354 N 
ATOM      2  N   UNL     1      -9.677  -4.728 -31.331  0.00  0.00    -0.372 N 
ATOM      3  N   UNL     1      -7.669  -4.318 -32.361  0.00  0.00    -0.372 N 
ATOM      4  C   UNL     1      -8.357  -4.529 -31.235  0.00  0.00    +0.166 C 
ATOM      5  H   UNL     1      -8.351  -4.684 -29.213  0.00  0.00    +0.163 HD
ATOM      6  H   UNL     1     -10.149  -4.722 -32.225  0.00  0.00    +0.159 HD
ATOM      7  H   UNL     1     -10.250  -4.909 -30.515  0.00  0.00    +0.159 HD
ATOM      8  H   UNL     1      -6.670  -4.155 -32.357  0.00  0.00    +0.159 HD
ATOM      9  H   UNL     1      -8.124  -4.297 -33.265  0.00  0.00    +0.159 HD
ENDROOT
BRANCH   1  10
ATOM     10  C   UNL     1      -6.329  -4.397 -29.823  0.00  0.00    +0.151 C 
BRANCH  10  11
ATOM     11  C   UNL     1      -6.069  -3.088 -29.130  0.00  0.00    -0.028 A 
ATOM     12  C   UNL     1      -5.704  -1.953 -29.868  0.00  0.00    +0.005 A 
ATOM     13  C   UNL     1      -6.190  -2.975 -27.737  0.00  0.00    +0.005 A 
ATOM     14  C   UNL     1      -5.491  -0.729 -29.229  0.00  0.00    +0.000 A 
ATOM     15  C   UNL     1      -5.976  -1.752 -27.102  0.00  0.00    +0.000 A 
ATOM     16  C   UNL     1      -5.629  -0.629 -27.848  0.00  0.00    +0.000 A 
ENDBRANCH  10  11
ENDBRANCH   1  10
TORSDOF 2
ENDMDL
MODEL 6
REMARK VINA RESULT:    -4.304     24.275     25.766
REMARK INTER + INTRA:          -4.909
REMARK INTER:                  -4.743
REMARK INTRA:                  -0.166
REMARK UNBOUND:                -0.101
REMARK  Name = 1550473
REMARK  2 active torsions:
REMARK  status: ('A' for Active; 'I' for Inactive)
REMARK    1  A    between atoms: N_1  and  C_4
REMARK    2  A    between atoms: C_4  and  C_5
REMARK                            x       y       z     vdW  Elec       q    Type
REMARK                         _______ _______ _______ _____ _____    ______ ____
ROOT
ATOM      1  N   UNL     1       1.450   2.062 -17.545  0.00  0.00    -0.354 N 
ATOM      2  N   UNL     1       0.339   0.858 -19.183  0.00  0.00    -0.372 N 
ATOM      3  N   UNL     1       0.190   3.148 -19.197  0.00  0.00    -0.372 N 
ATOM      4  C   UNL     1       0.666   2.033 -18.631  0.00  0.00    +0.166 C 
ATOM      5  H   UNL     1       1.753   1.181 -17.147  0.00  0.00    +0.163 HD
ATOM      6  H   UNL     1      -0.248   0.805 -20.004  0.00  0.00    +0.159 HD
ATOM      7  H   UNL     1       0.681  -0.019 -18.809  0.00  0.00    +0.159 HD
ATOM      8  H   UNL     1       0.395   4.066 -18.826  0.00  0.00    +0.159 HD
ATOM      9  H   UNL     1      -0.408   3.114 -20.013  0.00  0.00    +0.159 HD
ENDROOT
BRANCH   1  10
ATOM     10  C   UNL     1       1.908   3.291 -16.900  0.00  0.00    +0.151 C 
BRANCH  10  11
ATOM     11  C   UNL     1       1.154   3.481 -15.613  0.00  0.00    -0.028 A 
ATOM     12  C   UNL     1       1.124   2.463 -14.649  0.00  0.00    +0.005 A 
ATOM     13  C   UNL     1       0.473   4.680 -15.349  0.00  0.00    +0.005 A 
ATOM     14  C   UNL     1       0.449   2.650 -13.440  0.00  0.00    +0.000 A 
ATOM     15  C   UNL     1      -0.200   4.862 -14.141  0.00  0.00    +0.000 A 
ATOM     16  C   UNL     1      -0.210   3.849 -13.186  0.00  0.00    +0.000 A 
ENDBRANCH  10  11
ENDBRANCH   1  10
TORSDOF 2
ENDMDL
MODEL 7
REMARK VINA RESULT:    -4.110      8.201      9.223
REMARK INTER + INTRA:          -4.692
REMARK INTER:                  -4.558
REMARK INTRA:                  -0.134
REMARK UNBOUND:                -0.101
REMARK  Name = 1550473
REMARK  2 active torsions:
REMARK  status: ('A' for Active; 'I' for Inactive)
REMARK    1  A    between atoms: N_1  and  C_4
REMARK    2  A    between atoms: C_4  and  C_5
REMARK                            x       y       z     vdW  Elec       q    Type
REMARK                         _______ _______ _______ _____ _____    ______ ____
ROOT
ATOM      1  N   UNL     1      20.361  -4.887   6.038  0.00  0.00    -0.354 N 
ATOM      2  N   UNL     1      22.483  -5.327   6.857  0.00  0.00    -0.372 N 
ATOM      3  N   UNL     1      22.111  -5.484   4.598  0.00  0.00    -0.372 N 
ATOM      4  C   UNL     1      21.638  -5.231   5.823  0.00  0.00    +0.166 C 
ATOM      5  H   UNL     1      20.058  -4.737   6.993  0.00  0.00    +0.163 HD
ATOM      6  H   UNL     1      23.452  -5.581   6.725  0.00  0.00    +0.159 HD
ATOM      7  H   UNL     1      22.187  -5.132   7.806  0.00  0.00    +0.159 HD
ATOM      8  H   UNL     1      21.524  -5.434   3.776  0.00  0.00    +0.159 HD
ATOM      9  H   UNL     1      23.076  -5.752   4.447  0.00  0.00    +0.159 HD
ENDROOT
BRANCH   1  10
ATOM     10  C   UNL     1      19.375  -4.701   4.975  0.00  0.00    +0.151 C 
BRANCH  10  11
ATOM     11  C   UNL     1      18.874  -3.284   5.012  0.00  0.00    -0.028 A 
ATOM     12  C   UNL     1      17.498  -3.013   4.982  0.00  0.00    +0.005 A 
ATOM     13  C   UNL     1      19.771  -2.206   5.082  0.00  0.00    +0.005 A 
ATOM     14  C   UNL     1      17.032  -1.698   5.046  0.00  0.00    +0.000 A 
ATOM     15  C   UNL     1      19.301  -0.894   5.145  0.00  0.00    +0.000 A 
ATOM     16  C   UNL     1      17.932  -0.641   5.130  0.00  0.00    +0.000 A 
ENDBRANCH  10  11
ENDBRANCH   1  10
TORSDOF 2
ENDMDL
MODEL 8
REMARK VINA RESULT:    -4.053     31.458     32.688
REMARK INTER + INTRA:          -4.628
REMARK INTER:                  -4.490
REMARK INTRA:                  -0.138
REMARK UNBOUND:                -0.101
REMARK  Name = 1550473
REMARK  2 active torsions:
REMARK  status: ('A' for Active; 'I' for Inactive)
REMARK    1  A    between atoms: N_1  and  C_4
REMARK    2  A    between atoms: C_4  and  C_5
REMARK                            x       y       z     vdW  Elec       q    Type
REMARK                         _______ _______ _______ _____ _____    ______ ____
ROOT
ATOM      1  N   UNL     1       4.220  12.773  27.794  0.00  0.00    -0.354 N 
ATOM      2  N   UNL     1       3.294  10.710  27.294  0.00  0.00    -0.372 N 
ATOM      3  N   UNL     1       3.139  11.504  29.441  0.00  0.00    -0.372 N 
ATOM      4  C   UNL     1       3.557  11.676  28.182  0.00  0.00    +0.166 C 
ATOM      5  H   UNL     1       4.536  12.829  26.833  0.00  0.00    +0.163 HD
ATOM      6  H   UNL     1       2.792   9.872  27.556  0.00  0.00    +0.159 HD
ATOM      7  H   UNL     1       3.570  10.789  26.323  0.00  0.00    +0.159 HD
ATOM      8  H   UNL     1       3.311  12.193  30.161  0.00  0.00    +0.159 HD
ATOM      9  H   UNL     1       2.645  10.667  29.726  0.00  0.00    +0.159 HD
ENDROOT
BRANCH   1  10
ATOM     10  C   UNL     1       4.510  13.906  28.670  0.00  0.00    +0.151 C 
BRANCH  10  11
ATOM     11  C   UNL     1       5.948  14.309  28.493  0.00  0.00    -0.028 A 
ATOM     12  C   UNL     1       6.582  15.122  29.444  0.00  0.00    +0.005 A 
ATOM     13  C   UNL     1       6.683  13.878  27.378  0.00  0.00    +0.005 A 
ATOM     14  C   UNL     1       7.926  15.472  29.295  0.00  0.00    +0.000 A 
ATOM     15  C   UNL     1       8.025  14.230  27.233  0.00  0.00    +0.000 A 
ATOM     16  C   UNL     1       8.647  15.025  28.192  0.00  0.00    +0.000 A 
ENDBRANCH  10  11
ENDBRANCH   1  10
TORSDOF 2
ENDMDL
MODEL 9
REMARK VINA RESULT:    -3.969     31.429     32.824
REMARK INTER + INTRA:          -4.535
REMARK INTER:                  -4.378
REMARK INTRA:                  -0.157
REMARK UNBOUND:                -0.101
REMARK  Name = 1550473
REMARK  2 active torsions:
REMARK  status: ('A' for Active; 'I' for Inactive)
REMARK    1  A    between atoms: N_1  and  C_4
REMARK    2  A    between atoms: C_4  and  C_5
REMARK                            x       y       z     vdW  Elec       q    Type
REMARK                         _______ _______ _______ _____ _____    ______ ____
ROOT
ATOM      1  N   UNL     1       4.527  13.064  26.831  0.00  0.00    -0.354 N 
ATOM      2  N   UNL     1       5.119  11.220  25.560  0.00  0.00    -0.372 N 
ATOM      3  N   UNL     1       3.645  10.943  27.297  0.00  0.00    -0.372 N 
ATOM      4  C   UNL     1       4.425  11.753  26.573  0.00  0.00    +0.166 C 
ATOM      5  H   UNL     1       5.159  13.618  26.264  0.00  0.00    +0.163 HD
ATOM      6  H   UNL     1       5.059  10.235  25.340  0.00  0.00    +0.159 HD
ATOM      7  H   UNL     1       5.714  11.784  24.966  0.00  0.00    +0.159 HD
ATOM      8  H   UNL     1       3.100  11.283  28.079  0.00  0.00    +0.159 HD
ATOM      9  H   UNL     1       3.581   9.953  27.099  0.00  0.00    +0.159 HD
ENDROOT
BRANCH   1  10
ATOM     10  C   UNL     1       3.773  13.753  27.876  0.00  0.00    +0.151 C 
BRANCH  10  11
ATOM     11  C   UNL     1       4.716  14.160  28.975  0.00  0.00    -0.028 A 
ATOM     12  C   UNL     1       4.379  13.944  30.319  0.00  0.00    +0.005 A 
ATOM     13  C   UNL     1       5.950  14.759  28.678  0.00  0.00    +0.005 A 
ATOM     14  C   UNL     1       5.268  14.294  31.338  0.00  0.00    +0.000 A 
ATOM     15  C   UNL     1       6.834  15.108  29.698  0.00  0.00    +0.000 A 
ATOM     16  C   UNL     1       6.493  14.874  31.028  0.00  0.00    +0.000 A 
ENDBRANCH  10  11
ENDBRANCH   1  10
TORSDOF 2
ENDMDL
