MODEL 1
REMARK VINA RESULT:    -4.825      0.000      0.000
REMARK INTER + INTRA:          -5.509
REMARK INTER:                  -5.390
REMARK INTRA:                  -0.119
REMARK UNBOUND:                -0.119
REMARK  Name = 1550473
REMARK  2 active torsions:
REMARK  status: ('A' for Active; 'I' for Inactive)
REMARK    1  A    between atoms: N_1  and  C_4
REMARK    2  A    between atoms: C_4  and  C_5
REMARK                            x       y       z     vdW  Elec       q    Type
REMARK                         _______ _______ _______ _____ _____    ______ ____
ROOT
ATOM      1  N   UNL     1       7.506  -6.023   3.448  0.00  0.00    -0.354 N 
ATOM      2  N   UNL     1       7.145  -6.377   1.188  0.00  0.00    -0.372 N 
ATOM      3  N   UNL     1       8.805  -4.930   1.832  0.00  0.00    -0.372 N 
ATOM      4  C   UNL     1       7.823  -5.772   2.171  0.00  0.00    +0.166 C 
ATOM      5  H   UNL     1       6.732  -6.648   3.639  0.00  0.00    +0.163 HD
ATOM      6  H   UNL     1       7.363  -6.211   0.215  0.00  0.00    +0.159 HD
ATOM      7  H   UNL     1       6.401  -7.037   1.382  0.00  0.00    +0.159 HD
ATOM      8  H   UNL     1       9.351  -4.437   2.526  0.00  0.00    +0.159 HD
ATOM      9  H   UNL     1       9.031  -4.741   0.864  0.00  0.00    +0.159 HD
ENDROOT
BRANCH   1  10
ATOM     10  C   UNL     1       8.218  -5.457   4.593  0.00  0.00    +0.151 C 
BRANCH  10  11
ATOM     11  C   UNL     1       8.244  -6.470   5.705  0.00  0.00    -0.028 A 
ATOM     12  C   UNL     1       8.858  -7.717   5.518  0.00  0.00    +0.005 A 
ATOM     13  C   UNL     1       7.660  -6.186   6.949  0.00  0.00    +0.005 A 
ATOM     14  C   UNL     1       8.908  -8.646   6.560  0.00  0.00    +0.000 A 
ATOM     15  C   UNL     1       7.711  -7.117   7.986  0.00  0.00    +0.000 A 
ATOM     16  C   UNL     1       8.338  -8.346   7.792  0.00  0.00    +0.000 A 
ENDBRANCH  10  11
ENDBRANCH   1  10
TORSDOF 2
ENDMDL
MODEL 2
REMARK VINA RESULT:    -4.687     18.857     19.703
REMARK INTER + INTRA:          -5.355
REMARK INTER:                  -5.183
REMARK INTRA:                  -0.172
REMARK UNBOUND:                -0.119
REMARK  Name = 1550473
REMARK  2 active torsions:
REMARK  status: ('A' for Active; 'I' for Inactive)
REMARK    1  A    between atoms: N_1  and  C_4
REMARK    2  A    between atoms: C_4  and  C_5
REMARK                            x       y       z     vdW  Elec       q    Type
REMARK                         _______ _______ _______ _____ _____    ______ ____
ROOT
ATOM      1  N   UNL     1       6.251  -5.442 -14.600  0.00  0.00    -0.354 N 
ATOM      2  N   UNL     1       5.943  -6.426 -16.673  0.00  0.00    -0.372 N 
ATOM      3  N   UNL     1       8.061  -5.810 -16.042  0.00  0.00    -0.372 N 
ATOM      4  C   UNL     1       6.757  -5.886 -15.758  0.00  0.00    +0.166 C 
ATOM      5  H   UNL     1       5.250  -5.501 -14.458  0.00  0.00    +0.163 HD
ATOM      6  H   UNL     1       6.296  -6.773 -17.555  0.00  0.00    +0.159 HD
ATOM      7  H   UNL     1       4.949  -6.526 -16.510  0.00  0.00    +0.159 HD
ATOM      8  H   UNL     1       8.727  -5.408 -15.396  0.00  0.00    +0.159 HD
ATOM      9  H   UNL     1       8.432  -6.141 -16.924  0.00  0.00    +0.159 HD
ENDROOT
BRANCH   1  10
ATOM     10  C   UNL     1       7.059  -4.886 -13.515  0.00  0.00    +0.151 C 
BRANCH  10  11
ATOM     11  C   UNL     1       6.823  -3.403 -13.438  0.00  0.00    -0.028 A 
ATOM     12  C   UNL     1       7.798  -2.502 -13.890  0.00  0.00    +0.005 A 
ATOM     13  C   UNL     1       5.623  -2.892 -12.918  0.00  0.00    +0.005 A 
ATOM     14  C   UNL     1       7.567  -1.125 -13.846  0.00  0.00    +0.000 A 
ATOM     15  C   UNL     1       5.397  -1.517 -12.875  0.00  0.00    +0.000 A 
ATOM     16  C   UNL     1       6.368  -0.634 -13.342  0.00  0.00    +0.000 A 
ENDBRANCH  10  11
ENDBRANCH   1  10
TORSDOF 2
ENDMDL
MODEL 3
REMARK VINA RESULT:    -4.603     17.741     18.932
REMARK INTER + INTRA:          -5.261
REMARK INTER:                  -5.138
REMARK INTRA:                  -0.123
REMARK UNBOUND:                -0.119
REMARK  Name = 1550473
REMARK  2 active torsions:
REMARK  status: ('A' for Active; 'I' for Inactive)
REMARK    1  A    between atoms: N_1  and  C_4
REMARK    2  A    between atoms: C_4  and  C_5
REMARK                            x       y       z     vdW  Elec       q    Type
REMARK                         _______ _______ _______ _____ _____    ______ ____
ROOT
ATOM      1  N   UNL     1       8.112  -5.791 -13.161  0.00  0.00    -0.354 N 
ATOM      2  N   UNL     1       9.415  -7.050 -11.718  0.00  0.00    -0.372 N 
ATOM      3  N   UNL     1      10.351  -6.266 -13.661  0.00  0.00    -0.372 N 
ATOM      4  C   UNL     1       9.286  -6.361 -12.858  0.00  0.00    +0.166 C 
ATOM      5  H   UNL     1       7.334  -5.925 -12.525  0.00  0.00    +0.163 HD
ATOM      6  H   UNL     1      10.289  -7.488 -11.462  0.00  0.00    +0.159 HD
ATOM      7  H   UNL     1       8.649  -7.143 -11.063  0.00  0.00    +0.159 HD
ATOM      8  H   UNL     1      10.318  -5.765 -14.539  0.00  0.00    +0.159 HD
ATOM      9  H   UNL     1      11.232  -6.708 -13.427  0.00  0.00    +0.159 HD
ENDROOT
BRANCH   1  10
ATOM     10  C   UNL     1       7.882  -4.974 -14.351  0.00  0.00    +0.151 C 
BRANCH  10  11
ATOM     11  C   UNL     1       7.287  -3.657 -13.936  0.00  0.00    -0.028 A 
ATOM     12  C   UNL     1       5.988  -3.597 -13.410  0.00  0.00    +0.005 A 
ATOM     13  C   UNL     1       8.019  -2.466 -14.060  0.00  0.00    +0.005 A 
ATOM     14  C   UNL     1       5.445  -2.378 -12.996  0.00  0.00    +0.000 A 
ATOM     15  C   UNL     1       7.473  -1.251 -13.646  0.00  0.00    +0.000 A 
ATOM     16  C   UNL     1       6.188  -1.208 -13.112  0.00  0.00    +0.000 A 
ENDBRANCH  10  11
ENDBRANCH   1  10
TORSDOF 2
ENDMDL
MODEL 4
REMARK VINA RESULT:    -4.587      1.668      2.455
REMARK INTER + INTRA:          -5.243
REMARK INTER:                  -5.117
REMARK INTRA:                  -0.125
REMARK UNBOUND:                -0.119
REMARK  Name = 1550473
REMARK  2 active torsions:
REMARK  status: ('A' for Active; 'I' for Inactive)
REMARK    1  A    between atoms: N_1  and  C_4
REMARK    2  A    between atoms: C_4  and  C_5
REMARK                            x       y       z     vdW  Elec       q    Type
REMARK                         _______ _______ _______ _____ _____    ______ ____
ROOT
ATOM      1  N   UNL     1       8.166  -4.422   4.679  0.00  0.00    -0.354 N 
ATOM      2  N   UNL     1       7.851  -2.219   4.038  0.00  0.00    -0.372 N 
ATOM      3  N   UNL     1       9.255  -3.545   2.798  0.00  0.00    -0.372 N 
ATOM      4  C   UNL     1       8.428  -3.410   3.841  0.00  0.00    +0.166 C 
ATOM      5  H   UNL     1       7.554  -4.248   5.468  0.00  0.00    +0.163 HD
ATOM      6  H   UNL     1       8.027  -1.438   3.420  0.00  0.00    +0.159 HD
ATOM      7  H   UNL     1       7.204  -2.060   4.801  0.00  0.00    +0.159 HD
ATOM      8  H   UNL     1       9.726  -4.416   2.597  0.00  0.00    +0.159 HD
ATOM      9  H   UNL     1       9.452  -2.771   2.175  0.00  0.00    +0.159 HD
ENDROOT
BRANCH   1  10
ATOM     10  C   UNL     1       8.700  -5.774   4.521  0.00  0.00    +0.151 C 
BRANCH  10  11
ATOM     11  C   UNL     1       8.492  -6.537   5.800  0.00  0.00    -0.028 A 
ATOM     12  C   UNL     1       7.915  -5.912   6.916  0.00  0.00    +0.005 A 
ATOM     13  C   UNL     1       8.864  -7.886   5.901  0.00  0.00    +0.005 A 
ATOM     14  C   UNL     1       7.693  -6.629   8.094  0.00  0.00    +0.000 A 
ATOM     15  C   UNL     1       8.642  -8.598   7.080  0.00  0.00    +0.000 A 
ATOM     16  C   UNL     1       8.054  -7.969   8.176  0.00  0.00    +0.000 A 
ENDBRANCH  10  11
ENDBRANCH   1  10
TORSDOF 2
ENDMDL
MODEL 5
REMARK VINA RESULT:    -4.573      1.588      2.728
REMARK INTER + INTRA:          -5.227
REMARK INTER:                  -5.156
REMARK INTRA:                  -0.071
REMARK UNBOUND:                -0.119
REMARK  Name = 1550473
REMARK  2 active torsions:
REMARK  status: ('A' for Active; 'I' for Inactive)
REMARK    1  A    between atoms: N_1  and  C_4
REMARK    2  A    between atoms: C_4  and  C_5
REMARK                            x       y       z     vdW  Elec       q    Type
REMARK                         _______ _______ _______ _____ _____    ______ ____
ROOT
ATOM      1  N   UNL     1       8.318  -5.140   2.096  0.00  0.00    -0.354 N 
ATOM      2  N   UNL     1       6.999  -6.596   0.869  0.00  0.00    -0.372 N 
ATOM      3  N   UNL     1       5.980  -5.070   2.246  0.00  0.00    -0.372 N 
ATOM      4  C   UNL     1       7.106  -5.591   1.747  0.00  0.00    +0.166 C 
ATOM      5  H   UNL     1       9.133  -5.598   1.705  0.00  0.00    +0.163 HD
ATOM      6  H   UNL     1       6.098  -6.955   0.584  0.00  0.00    +0.159 HD
ATOM      7  H   UNL     1       7.814  -7.021   0.445  0.00  0.00    +0.159 HD
ATOM      8  H   UNL     1       5.992  -4.313   2.918  0.00  0.00    +0.159 HD
ATOM      9  H   UNL     1       5.069  -5.423   1.982  0.00  0.00    +0.159 HD
ENDROOT
BRANCH   1  10
ATOM     10  C   UNL     1       8.542  -4.015   3.002  0.00  0.00    +0.151 C 
BRANCH  10  11
ATOM     11  C   UNL     1       8.532  -4.517   4.420  0.00  0.00    -0.028 A 
ATOM     12  C   UNL     1       7.995  -3.732   5.450  0.00  0.00    +0.005 A 
ATOM     13  C   UNL     1       9.054  -5.780   4.739  0.00  0.00    +0.005 A 
ATOM     14  C   UNL     1       7.958  -4.210   6.762  0.00  0.00    +0.000 A 
ATOM     15  C   UNL     1       9.017  -6.254   6.050  0.00  0.00    +0.000 A 
ATOM     16  C   UNL     1       8.467  -5.469   7.061  0.00  0.00    +0.000 A 
ENDBRANCH  10  11
ENDBRANCH   1  10
TORSDOF 2
ENDMDL
MODEL 6
REMARK VINA RESULT:    -4.550      4.619      5.425
REMARK INTER + INTRA:          -5.202
REMARK INTER:                  -5.077
REMARK INTRA:                  -0.125
REMARK UNBOUND:                -0.119
REMARK  Name = 1550473
REMARK  2 active torsions:
REMARK  status: ('A' for Active; 'I' for Inactive)
REMARK    1  A    between atoms: N_1  and  C_4
REMARK    2  A    between atoms: C_4  and  C_5
REMARK                            x       y       z     vdW  Elec       q    Type
REMARK                         _______ _______ _______ _____ _____    ______ ____
ROOT
ATOM      1  N   UNL     1       4.076  -3.918   2.981  0.00  0.00    -0.354 N 
ATOM      2  N   UNL     1       1.878  -4.536   2.592  0.00  0.00    -0.372 N 
ATOM      3  N   UNL     1       2.378  -3.357   4.496  0.00  0.00    -0.372 N 
ATOM      4  C   UNL     1       2.791  -3.932   3.361  0.00  0.00    +0.166 C 
ATOM      5  H   UNL     1       4.329  -4.398   2.125  0.00  0.00    +0.163 HD
ATOM      6  H   UNL     1       0.901  -4.559   2.852  0.00  0.00    +0.159 HD
ATOM      7  H   UNL     1       2.126  -4.975   1.714  0.00  0.00    +0.159 HD
ATOM      8  H   UNL     1       3.019  -2.890   5.124  0.00  0.00    +0.159 HD
ATOM      9  H   UNL     1       1.407  -3.380   4.779  0.00  0.00    +0.159 HD
ENDROOT
BRANCH   1  10
ATOM     10  C   UNL     1       5.140  -3.241   3.719  0.00  0.00    +0.151 C 
BRANCH  10  11
ATOM     11  C   UNL     1       6.472  -3.736   3.225  0.00  0.00    -0.028 A 
ATOM     12  C   UNL     1       6.556  -4.905   2.456  0.00  0.00    +0.005 A 
ATOM     13  C   UNL     1       7.652  -3.036   3.518  0.00  0.00    +0.005 A 
ATOM     14  C   UNL     1       7.789  -5.348   1.971  0.00  0.00    +0.000 A 
ATOM     15  C   UNL     1       8.882  -3.482   3.033  0.00  0.00    +0.000 A 
ATOM     16  C   UNL     1       8.949  -4.637   2.258  0.00  0.00    +0.000 A 
ENDBRANCH  10  11
ENDBRANCH   1  10
TORSDOF 2
ENDMDL
MODEL 7
REMARK VINA RESULT:    -4.546      3.662      5.186
REMARK INTER + INTRA:          -5.197
REMARK INTER:                  -5.134
REMARK INTRA:                  -0.063
REMARK UNBOUND:                -0.119
REMARK  Name = 1550473
REMARK  2 active torsions:
REMARK  status: ('A' for Active; 'I' for Inactive)
REMARK    1  A    between atoms: N_1  and  C_4
REMARK    2  A    between atoms: C_4  and  C_5
REMARK                            x       y       z     vdW  Elec       q    Type
REMARK                         _______ _______ _______ _____ _____    ______ ____
ROOT
ATOM      1  N   UNL     1       6.200  -5.812   3.291  0.00  0.00    -0.354 N 
ATOM      2  N   UNL     1       7.498  -7.728   3.201  0.00  0.00    -0.372 N 
ATOM      3  N   UNL     1       7.026  -6.615   1.250  0.00  0.00    -0.372 N 
ATOM      4  C   UNL     1       6.899  -6.705   2.578  0.00  0.00    +0.166 C 
ATOM      5  H   UNL     1       6.116  -5.953   4.291  0.00  0.00    +0.163 HD
ATOM      6  H   UNL     1       8.036  -8.415   2.690  0.00  0.00    +0.159 HD
ATOM      7  H   UNL     1       7.451  -7.841   4.206  0.00  0.00    +0.159 HD
ATOM      8  H   UNL     1       6.594  -5.870   0.720  0.00  0.00    +0.159 HD
ATOM      9  H   UNL     1       7.550  -7.300   0.720  0.00  0.00    +0.159 HD
ENDROOT
BRANCH   1  10
ATOM     10  C   UNL     1       5.554  -4.632   2.716  0.00  0.00    +0.151 C 
BRANCH  10  11
ATOM     11  C   UNL     1       6.331  -3.407   3.111  0.00  0.00    -0.028 A 
ATOM     12  C   UNL     1       5.664  -2.234   3.495  0.00  0.00    +0.005 A 
ATOM     13  C   UNL     1       7.734  -3.413   3.108  0.00  0.00    +0.005 A 
ATOM     14  C   UNL     1       6.384  -1.105   3.891  0.00  0.00    +0.000 A 
ATOM     15  C   UNL     1       8.450  -2.282   3.503  0.00  0.00    +0.000 A 
ATOM     16  C   UNL     1       7.775  -1.130   3.896  0.00  0.00    +0.000 A 
ENDBRANCH  10  11
ENDBRANCH   1  10
TORSDOF 2
ENDMDL
MODEL 8
REMARK VINA RESULT:    -4.416      3.555      4.895
REMARK INTER + INTRA:          -5.052
REMARK INTER:                  -4.928
REMARK INTRA:                  -0.124
REMARK UNBOUND:                -0.119
REMARK  Name = 1550473
REMARK  2 active torsions:
REMARK  status: ('A' for Active; 'I' for Inactive)
REMARK    1  A    between atoms: N_1  and  C_4
REMARK    2  A    between atoms: C_4  and  C_5
REMARK                            x       y       z     vdW  Elec       q    Type
REMARK                         _______ _______ _______ _____ _____    ______ ____
ROOT
ATOM      1  N   UNL     1       7.885  -5.179   3.247  0.00  0.00    -0.354 N 
ATOM      2  N   UNL     1       6.721  -7.082   2.626  0.00  0.00    -0.372 N 
ATOM      3  N   UNL     1       7.830  -5.885   1.013  0.00  0.00    -0.372 N 
ATOM      4  C   UNL     1       7.487  -6.036   2.297  0.00  0.00    +0.166 C 
ATOM      5  H   UNL     1       7.566  -5.332   4.197  0.00  0.00    +0.163 HD
ATOM      6  H   UNL     1       6.408  -7.747   1.931  0.00  0.00    +0.159 HD
ATOM      7  H   UNL     1       6.441  -7.258   3.583  0.00  0.00    +0.159 HD
ATOM      8  H   UNL     1       8.402  -5.113   0.699  0.00  0.00    +0.159 HD
ATOM      9  H   UNL     1       7.518  -6.533   0.301  0.00  0.00    +0.159 HD
ENDROOT
BRANCH   1  10
ATOM     10  C   UNL     1       8.765  -4.038   3.003  0.00  0.00    +0.151 C 
BRANCH  10  11
ATOM     11  C   UNL     1       8.256  -2.851   3.774  0.00  0.00    -0.028 A 
ATOM     12  C   UNL     1       7.709  -3.016   5.055  0.00  0.00    +0.005 A 
ATOM     13  C   UNL     1       8.323  -1.559   3.231  0.00  0.00    +0.005 A 
ATOM     14  C   UNL     1       7.263  -1.910   5.783  0.00  0.00    +0.000 A 
ATOM     15  C   UNL     1       7.877  -0.458   3.962  0.00  0.00    +0.000 A 
ATOM     16  C   UNL     1       7.349  -0.633   5.239  0.00  0.00    +0.000 A 
ENDBRANCH  10  11
ENDBRANCH   1  10
TORSDOF 2
ENDMDL
MODEL 9
REMARK VINA RESULT:    -4.397     18.580     19.373
REMARK INTER + INTRA:          -5.031
REMARK INTER:                  -4.896
REMARK INTRA:                  -0.135
REMARK UNBOUND:                -0.119
REMARK  Name = 1550473
REMARK  2 active torsions:
REMARK  status: ('A' for Active; 'I' for Inactive)
REMARK    1  A    between atoms: N_1  and  C_4
REMARK    2  A    between atoms: C_4  and  C_5
REMARK                            x       y       z     vdW  Elec       q    Type
REMARK                         _______ _______ _______ _____ _____    ______ ____
ROOT
ATOM      1  N   UNL     1       7.283  -4.977 -13.134  0.00  0.00    -0.354 N 
ATOM      2  N   UNL     1       8.922  -6.591 -12.867  0.00  0.00    -0.372 N 
ATOM      3  N   UNL     1       8.079  -6.203 -14.965  0.00  0.00    -0.372 N 
ATOM      4  C   UNL     1       8.083  -5.914 -13.660  0.00  0.00    +0.166 C 
ATOM      5  H   UNL     1       7.312  -4.826 -12.132  0.00  0.00    +0.163 HD
ATOM      6  H   UNL     1       9.540  -7.302 -13.236  0.00  0.00    +0.159 HD
ATOM      7  H   UNL     1       8.982  -6.406 -11.873  0.00  0.00    +0.159 HD
ATOM      8  H   UNL     1       7.465  -5.732 -15.616  0.00  0.00    +0.159 HD
ATOM      9  H   UNL     1       8.682  -6.919 -15.351  0.00  0.00    +0.159 HD
ENDROOT
BRANCH   1  10
ATOM     10  C   UNL     1       6.372  -4.146 -13.918  0.00  0.00    +0.151 C 
BRANCH  10  11
ATOM     11  C   UNL     1       6.809  -2.710 -13.819  0.00  0.00    -0.028 A 
ATOM     12  C   UNL     1       8.111  -2.335 -14.179  0.00  0.00    +0.005 A 
ATOM     13  C   UNL     1       5.922  -1.718 -13.371  0.00  0.00    +0.005 A 
ATOM     14  C   UNL     1       8.508  -0.998 -14.115  0.00  0.00    +0.000 A 
ATOM     15  C   UNL     1       6.323  -0.384 -13.308  0.00  0.00    +0.000 A 
ATOM     16  C   UNL     1       7.615  -0.023 -13.683  0.00  0.00    +0.000 A 
ENDBRANCH  10  11
ENDBRANCH   1  10
TORSDOF 2
ENDMDL
