MODEL 1
REMARK VINA RESULT:    -5.338      0.000      0.000
REMARK INTER + INTRA:          -6.091
REMARK INTER:                  -5.962
REMARK INTRA:                  -0.130
REMARK UNBOUND:                -0.130
REMARK  Name = 1550473
REMARK  2 active torsions:
REMARK  status: ('A' for Active; 'I' for Inactive)
REMARK    1  A    between atoms: N_1  and  C_4
REMARK    2  A    between atoms: C_4  and  C_5
REMARK                            x       y       z     vdW  Elec       q    Type
REMARK                         _______ _______ _______ _____ _____    ______ ____
ROOT
ATOM      1  N   UNL     1      -8.899  -0.436  -0.057  0.00  0.00    -0.354 N 
ATOM      2  N   UNL     1      -7.153   1.036   0.330  0.00  0.00    -0.372 N 
ATOM      3  N   UNL     1      -8.574   1.438  -1.426  0.00  0.00    -0.372 N 
ATOM      4  C   UNL     1      -8.221   0.671  -0.389  0.00  0.00    +0.166 C 
ATOM      5  H   UNL     1      -8.562  -0.991   0.722  0.00  0.00    +0.163 HD
ATOM      6  H   UNL     1      -6.624   1.868   0.105  0.00  0.00    +0.159 HD
ATOM      7  H   UNL     1      -6.846   0.505   1.135  0.00  0.00    +0.159 HD
ATOM      8  H   UNL     1      -9.367   1.214  -2.012  0.00  0.00    +0.159 HD
ATOM      9  H   UNL     1      -8.050   2.268  -1.674  0.00  0.00    +0.159 HD
ENDROOT
BRANCH   1  10
ATOM     10  C   UNL     1     -10.107  -0.891  -0.742  0.00  0.00    +0.151 C 
BRANCH  10  11
ATOM     11  C   UNL     1     -11.132  -1.291   0.284  0.00  0.00    -0.028 A 
ATOM     12  C   UNL     1     -10.734  -1.829   1.516  0.00  0.00    +0.005 A 
ATOM     13  C   UNL     1     -12.503  -1.128   0.031  0.00  0.00    +0.005 A 
ATOM     14  C   UNL     1     -11.684  -2.172   2.481  0.00  0.00    +0.000 A 
ATOM     15  C   UNL     1     -13.449  -1.473   0.997  0.00  0.00    +0.000 A 
ATOM     16  C   UNL     1     -13.039  -1.993   2.222  0.00  0.00    +0.000 A 
ENDBRANCH  10  11
ENDBRANCH   1  10
TORSDOF 2
ENDMDL
MODEL 2
REMARK VINA RESULT:    -5.216     22.353     23.967
REMARK INTER + INTRA:          -5.955
REMARK INTER:                  -5.829
REMARK INTRA:                  -0.126
REMARK UNBOUND:                -0.130
REMARK  Name = 1550473
REMARK  2 active torsions:
REMARK  status: ('A' for Active; 'I' for Inactive)
REMARK    1  A    between atoms: N_1  and  C_4
REMARK    2  A    between atoms: C_4  and  C_5
REMARK                            x       y       z     vdW  Elec       q    Type
REMARK                         _______ _______ _______ _____ _____    ______ ____
ROOT
ATOM      1  N   UNL     1       8.981   7.784   8.423  0.00  0.00    -0.354 N 
ATOM      2  N   UNL     1       9.657   6.298   6.780  0.00  0.00    -0.372 N 
ATOM      3  N   UNL     1       8.756   8.313   6.152  0.00  0.00    -0.372 N 
ATOM      4  C   UNL     1       9.126   7.477   7.127  0.00  0.00    +0.166 C 
ATOM      5  H   UNL     1       9.253   7.094   9.115  0.00  0.00    +0.163 HD
ATOM      6  H   UNL     1       9.781   6.040   5.810  0.00  0.00    +0.159 HD
ATOM      7  H   UNL     1       9.970   5.630   7.473  0.00  0.00    +0.159 HD
ATOM      8  H   UNL     1       8.343   9.215   6.348  0.00  0.00    +0.159 HD
ATOM      9  H   UNL     1       8.862   8.068   5.175  0.00  0.00    +0.159 HD
ENDROOT
BRANCH   1  10
ATOM     10  C   UNL     1       8.464   9.062   8.908  0.00  0.00    +0.151 C 
BRANCH  10  11
ATOM     11  C   UNL     1       8.917   9.269  10.328  0.00  0.00    -0.028 A 
ATOM     12  C   UNL     1       9.999   8.540  10.843  0.00  0.00    +0.005 A 
ATOM     13  C   UNL     1       8.271  10.196  11.160  0.00  0.00    +0.005 A 
ATOM     14  C   UNL     1      10.438   8.753  12.152  0.00  0.00    +0.000 A 
ATOM     15  C   UNL     1       8.713  10.405  12.467  0.00  0.00    +0.000 A 
ATOM     16  C   UNL     1       9.798   9.685  12.961  0.00  0.00    +0.000 A 
ENDBRANCH  10  11
ENDBRANCH   1  10
TORSDOF 2
ENDMDL
MODEL 3
REMARK VINA RESULT:    -5.205     22.898     24.326
REMARK INTER + INTRA:          -5.943
REMARK INTER:                  -5.803
REMARK INTRA:                  -0.140
REMARK UNBOUND:                -0.130
REMARK  Name = 1550473
REMARK  2 active torsions:
REMARK  status: ('A' for Active; 'I' for Inactive)
REMARK    1  A    between atoms: N_1  and  C_4
REMARK    2  A    between atoms: C_4  and  C_5
REMARK                            x       y       z     vdW  Elec       q    Type
REMARK                         _______ _______ _______ _____ _____    ______ ____
ROOT
ATOM      1  N   UNL     1      10.322  11.951   8.378  0.00  0.00    -0.354 N 
ATOM      2  N   UNL     1      11.523  13.832   7.758  0.00  0.00    -0.372 N 
ATOM      3  N   UNL     1       9.234  13.963   7.865  0.00  0.00    -0.372 N 
ATOM      4  C   UNL     1      10.349  13.237   8.004  0.00  0.00    +0.166 C 
ATOM      5  H   UNL     1      11.200  11.448   8.436  0.00  0.00    +0.163 HD
ATOM      6  H   UNL     1      11.575  14.802   7.478  0.00  0.00    +0.159 HD
ATOM      7  H   UNL     1      12.402  13.340   7.861  0.00  0.00    +0.159 HD
ATOM      8  H   UNL     1       8.317  13.571   8.030  0.00  0.00    +0.159 HD
ATOM      9  H   UNL     1       9.265  14.932   7.574  0.00  0.00    +0.159 HD
ENDROOT
BRANCH   1  10
ATOM     10  C   UNL     1       9.101  11.225   8.721  0.00  0.00    +0.151 C 
BRANCH  10  11
ATOM     11  C   UNL     1       9.156   9.853   8.108  0.00  0.00    -0.028 A 
ATOM     12  C   UNL     1      10.234   9.481   7.292  0.00  0.00    +0.005 A 
ATOM     13  C   UNL     1       8.137   8.918   8.345  0.00  0.00    +0.005 A 
ATOM     14  C   UNL     1      10.302   8.197   6.747  0.00  0.00    +0.000 A 
ATOM     15  C   UNL     1       8.207   7.637   7.798  0.00  0.00    +0.000 A 
ATOM     16  C   UNL     1       9.291   7.276   7.001  0.00  0.00    +0.000 A 
ENDBRANCH  10  11
ENDBRANCH   1  10
TORSDOF 2
ENDMDL
MODEL 4
REMARK VINA RESULT:    -5.145      7.056      9.423
REMARK INTER + INTRA:          -5.877
REMARK INTER:                  -5.704
REMARK INTRA:                  -0.172
REMARK UNBOUND:                -0.130
REMARK  Name = 1550473
REMARK  2 active torsions:
REMARK  status: ('A' for Active; 'I' for Inactive)
REMARK    1  A    between atoms: N_1  and  C_4
REMARK    2  A    between atoms: C_4  and  C_5
REMARK                            x       y       z     vdW  Elec       q    Type
REMARK                         _______ _______ _______ _____ _____    ______ ____
ROOT
ATOM      1  N   UNL     1      -8.992  -1.212  -6.965  0.00  0.00    -0.354 N 
ATOM      2  N   UNL     1      -9.143  -3.468  -6.466  0.00  0.00    -0.372 N 
ATOM      3  N   UNL     1      -8.700  -1.985  -4.772  0.00  0.00    -0.372 N 
ATOM      4  C   UNL     1      -8.943  -2.206  -6.068  0.00  0.00    +0.166 C 
ATOM      5  H   UNL     1      -9.151  -1.448  -7.938  0.00  0.00    +0.163 HD
ATOM      6  H   UNL     1      -9.116  -4.239  -5.812  0.00  0.00    +0.159 HD
ATOM      7  H   UNL     1      -9.347  -3.697  -7.431  0.00  0.00    +0.159 HD
ATOM      8  H   UNL     1      -8.535  -1.056  -4.409  0.00  0.00    +0.159 HD
ATOM      9  H   UNL     1      -8.657  -2.744  -4.104  0.00  0.00    +0.159 HD
ENDROOT
BRANCH   1  10
ATOM     10  C   UNL     1      -8.841   0.202  -6.627  0.00  0.00    +0.151 C 
BRANCH  10  11
ATOM     11  C   UNL     1      -7.488   0.674  -7.081  0.00  0.00    -0.028 A 
ATOM     12  C   UNL     1      -7.173   0.728  -8.447  0.00  0.00    +0.005 A 
ATOM     13  C   UNL     1      -6.516   1.074  -6.150  0.00  0.00    +0.005 A 
ATOM     14  C   UNL     1      -5.927   1.195  -8.870  0.00  0.00    +0.000 A 
ATOM     15  C   UNL     1      -5.273   1.539  -6.577  0.00  0.00    +0.000 A 
ATOM     16  C   UNL     1      -4.979   1.602  -7.937  0.00  0.00    +0.000 A 
ENDBRANCH  10  11
ENDBRANCH   1  10
TORSDOF 2
ENDMDL
MODEL 5
REMARK VINA RESULT:    -5.057      1.482      2.132
REMARK INTER + INTRA:          -5.778
REMARK INTER:                  -5.678
REMARK INTRA:                  -0.099
REMARK UNBOUND:                -0.130
REMARK  Name = 1550473
REMARK  2 active torsions:
REMARK  status: ('A' for Active; 'I' for Inactive)
REMARK    1  A    between atoms: N_1  and  C_4
REMARK    2  A    between atoms: C_4  and  C_5
REMARK                            x       y       z     vdW  Elec       q    Type
REMARK                         _______ _______ _______ _____ _____    ______ ____
ROOT
ATOM      1  N   UNL     1      -8.932   0.618   0.991  0.00  0.00    -0.354 N 
ATOM      2  N   UNL     1      -6.963   1.050  -0.149  0.00  0.00    -0.372 N 
ATOM      3  N   UNL     1      -8.084   2.796   0.830  0.00  0.00    -0.372 N 
ATOM      4  C   UNL     1      -8.007   1.488   0.565  0.00  0.00    +0.166 C 
ATOM      5  H   UNL     1      -8.832  -0.357   0.731  0.00  0.00    +0.163 HD
ATOM      6  H   UNL     1      -6.247   1.682  -0.481  0.00  0.00    +0.159 HD
ATOM      7  H   UNL     1      -6.842   0.068  -0.368  0.00  0.00    +0.159 HD
ATOM      8  H   UNL     1      -8.849   3.192   1.360  0.00  0.00    +0.159 HD
ATOM      9  H   UNL     1      -7.383   3.447   0.497  0.00  0.00    +0.159 HD
ENDROOT
BRANCH   1  10
ATOM     10  C   UNL     1     -10.078   0.984   1.821  0.00  0.00    +0.151 C 
BRANCH  10  11
ATOM     11  C   UNL     1     -11.103  -0.114   1.756  0.00  0.00    -0.028 A 
ATOM     12  C   UNL     1     -11.898  -0.280   0.613  0.00  0.00    +0.005 A 
ATOM     13  C   UNL     1     -11.280  -0.997   2.833  0.00  0.00    +0.005 A 
ATOM     14  C   UNL     1     -12.829  -1.319   0.540  0.00  0.00    +0.000 A 
ATOM     15  C   UNL     1     -12.212  -2.032   2.757  0.00  0.00    +0.000 A 
ATOM     16  C   UNL     1     -12.984  -2.194   1.610  0.00  0.00    +0.000 A 
ENDBRANCH  10  11
ENDBRANCH   1  10
TORSDOF 2
ENDMDL
MODEL 6
REMARK VINA RESULT:    -4.978      3.942      5.001
REMARK INTER + INTRA:          -5.690
REMARK INTER:                  -5.539
REMARK INTRA:                  -0.151
REMARK UNBOUND:                -0.130
REMARK  Name = 1550473
REMARK  2 active torsions:
REMARK  status: ('A' for Active; 'I' for Inactive)
REMARK    1  A    between atoms: N_1  and  C_4
REMARK    2  A    between atoms: C_4  and  C_5
REMARK                            x       y       z     vdW  Elec       q    Type
REMARK                         _______ _______ _______ _____ _____    ______ ____
ROOT
ATOM      1  N   UNL     1      -8.534  -2.118  -4.677  0.00  0.00    -0.354 N 
ATOM      2  N   UNL     1      -9.138  -3.496  -6.437  0.00  0.00    -0.372 N 
ATOM      3  N   UNL     1      -9.181  -1.222  -6.744  0.00  0.00    -0.372 N 
ATOM      4  C   UNL     1      -8.948  -2.267  -5.942  0.00  0.00    +0.166 C 
ATOM      5  H   UNL     1      -8.404  -2.949  -4.111  0.00  0.00    +0.163 HD
ATOM      6  H   UNL     1      -9.447  -3.640  -7.389  0.00  0.00    +0.159 HD
ATOM      7  H   UNL     1      -8.964  -4.326  -5.884  0.00  0.00    +0.159 HD
ATOM      8  H   UNL     1      -9.061  -0.269  -6.429  0.00  0.00    +0.159 HD
ATOM      9  H   UNL     1      -9.501  -1.346  -7.696  0.00  0.00    +0.159 HD
ENDROOT
BRANCH   1  10
ATOM     10  C   UNL     1      -8.245  -0.825  -4.059  0.00  0.00    +0.151 C 
BRANCH  10  11
ATOM     11  C   UNL     1      -9.093  -0.669  -2.827  0.00  0.00    -0.028 A 
ATOM     12  C   UNL     1      -8.498  -0.471  -1.572  0.00  0.00    +0.005 A 
ATOM     13  C   UNL     1     -10.494  -0.711  -2.908  0.00  0.00    +0.005 A 
ATOM     14  C   UNL     1      -9.286  -0.296  -0.432  0.00  0.00    +0.000 A 
ATOM     15  C   UNL     1     -11.277  -0.537  -1.768  0.00  0.00    +0.000 A 
ATOM     16  C   UNL     1     -10.673  -0.327  -0.531  0.00  0.00    +0.000 A 
ENDBRANCH  10  11
ENDBRANCH   1  10
TORSDOF 2
ENDMDL
MODEL 7
REMARK VINA RESULT:    -4.885      2.662      4.065
REMARK INTER + INTRA:          -5.586
REMARK INTER:                  -5.404
REMARK INTRA:                  -0.182
REMARK UNBOUND:                -0.130
REMARK  Name = 1550473
REMARK  2 active torsions:
REMARK  status: ('A' for Active; 'I' for Inactive)
REMARK    1  A    between atoms: N_1  and  C_4
REMARK    2  A    between atoms: C_4  and  C_5
REMARK                            x       y       z     vdW  Elec       q    Type
REMARK                         _______ _______ _______ _____ _____    ______ ____
ROOT
ATOM      1  N   UNL     1      -9.372   0.749   0.148  0.00  0.00    -0.354 N 
ATOM      2  N   UNL     1      -8.132   2.592   0.805  0.00  0.00    -0.372 N 
ATOM      3  N   UNL     1      -7.030   0.712   0.088  0.00  0.00    -0.372 N 
ATOM      4  C   UNL     1      -8.184   1.337   0.342  0.00  0.00    +0.166 C 
ATOM      5  H   UNL     1     -10.210   1.267   0.389  0.00  0.00    +0.163 HD
ATOM      6  H   UNL     1      -7.250   3.062   0.959  0.00  0.00    +0.159 HD
ATOM      7  H   UNL     1      -8.972   3.123   1.001  0.00  0.00    +0.159 HD
ATOM      8  H   UNL     1      -7.000  -0.238  -0.257  0.00  0.00    +0.159 HD
ATOM      9  H   UNL     1      -6.137   1.162   0.246  0.00  0.00    +0.159 HD
ENDROOT
BRANCH   1  10
ATOM     10  C   UNL     1      -9.539  -0.594  -0.403  0.00  0.00    +0.151 C 
BRANCH  10  11
ATOM     11  C   UNL     1      -9.942  -0.486  -1.848  0.00  0.00    -0.028 A 
ATOM     12  C   UNL     1      -9.010  -0.735  -2.867  0.00  0.00    +0.005 A 
ATOM     13  C   UNL     1     -11.254  -0.140  -2.205  0.00  0.00    +0.005 A 
ATOM     14  C   UNL     1      -9.391  -0.664  -4.209  0.00  0.00    +0.000 A 
ATOM     15  C   UNL     1     -11.630  -0.069  -3.546  0.00  0.00    +0.000 A 
ATOM     16  C   UNL     1     -10.699  -0.333  -4.548  0.00  0.00    +0.000 A 
ENDBRANCH  10  11
ENDBRANCH   1  10
TORSDOF 2
ENDMDL
MODEL 8
REMARK VINA RESULT:    -4.856     23.078     24.603
REMARK INTER + INTRA:          -5.553
REMARK INTER:                  -5.402
REMARK INTRA:                  -0.151
REMARK UNBOUND:                -0.130
REMARK  Name = 1550473
REMARK  2 active torsions:
REMARK  status: ('A' for Active; 'I' for Inactive)
REMARK    1  A    between atoms: N_1  and  C_4
REMARK    2  A    between atoms: C_4  and  C_5
REMARK                            x       y       z     vdW  Elec       q    Type
REMARK                         _______ _______ _______ _____ _____    ______ ____
ROOT
ATOM      1  N   UNL     1       8.396   9.666  11.926  0.00  0.00    -0.354 N 
ATOM      2  N   UNL     1       8.166  11.008  13.800  0.00  0.00    -0.372 N 
ATOM      3  N   UNL     1      10.230  10.135  13.308  0.00  0.00    -0.372 N 
ATOM      4  C   UNL     1       8.935  10.260  12.999  0.00  0.00    +0.166 C 
ATOM      5  H   UNL     1       7.402   9.776  11.764  0.00  0.00    +0.163 HD
ATOM      6  H   UNL     1       8.545  11.472  14.615  0.00  0.00    +0.159 HD
ATOM      7  H   UNL     1       7.182  11.153  13.609  0.00  0.00    +0.159 HD
ATOM      8  H   UNL     1      10.863   9.580  12.748  0.00  0.00    +0.159 HD
ATOM      9  H   UNL     1      10.626  10.582  14.126  0.00  0.00    +0.159 HD
ENDROOT
BRANCH   1  10
ATOM     10  C   UNL     1       9.158   8.875  10.961  0.00  0.00    +0.151 C 
BRANCH  10  11
ATOM     11  C   UNL     1       9.001   9.483   9.595  0.00  0.00    -0.028 A 
ATOM     12  C   UNL     1       8.344   8.780   8.574  0.00  0.00    +0.005 A 
ATOM     13  C   UNL     1       9.502  10.764   9.316  0.00  0.00    +0.005 A 
ATOM     14  C   UNL     1       8.172   9.356   7.313  0.00  0.00    +0.000 A 
ATOM     15  C   UNL     1       9.328  11.335   8.055  0.00  0.00    +0.000 A 
ATOM     16  C   UNL     1       8.661  10.632   7.055  0.00  0.00    +0.000 A 
ENDBRANCH  10  11
ENDBRANCH   1  10
TORSDOF 2
ENDMDL
MODEL 9
REMARK VINA RESULT:    -4.737     23.012     24.184
REMARK INTER + INTRA:          -5.421
REMARK INTER:                  -5.308
REMARK INTRA:                  -0.113
REMARK UNBOUND:                -0.130
REMARK  Name = 1550473
REMARK  2 active torsions:
REMARK  status: ('A' for Active; 'I' for Inactive)
REMARK    1  A    between atoms: N_1  and  C_4
REMARK    2  A    between atoms: C_4  and  C_5
REMARK                            x       y       z     vdW  Elec       q    Type
REMARK                         _______ _______ _______ _____ _____    ______ ____
ROOT
ATOM      1  N   UNL     1       9.518   9.780  11.289  0.00  0.00    -0.354 N 
ATOM      2  N   UNL     1      10.400   9.141  13.333  0.00  0.00    -0.372 N 
ATOM      3  N   UNL     1       8.509  10.440  13.298  0.00  0.00    -0.372 N 
ATOM      4  C   UNL     1       9.468   9.793  12.627  0.00  0.00    +0.166 C 
ATOM      5  H   UNL     1      10.288   9.296  10.840  0.00  0.00    +0.163 HD
ATOM      6  H   UNL     1      10.386   9.130  14.344  0.00  0.00    +0.159 HD
ATOM      7  H   UNL     1      11.142   8.619  12.881  0.00  0.00    +0.159 HD
ATOM      8  H   UNL     1       7.780  10.956  12.825  0.00  0.00    +0.159 HD
ATOM      9  H   UNL     1       8.485  10.451  14.310  0.00  0.00    +0.159 HD
ENDROOT
BRANCH   1  10
ATOM     10  C   UNL     1       8.521  10.413  10.427  0.00  0.00    +0.151 C 
BRANCH  10  11
ATOM     11  C   UNL     1       8.558   9.761   9.072  0.00  0.00    -0.028 A 
ATOM     12  C   UNL     1       8.731  10.534   7.915  0.00  0.00    +0.005 A 
ATOM     13  C   UNL     1       8.427   8.370   8.939  0.00  0.00    +0.005 A 
ATOM     14  C   UNL     1       8.796   9.927   6.658  0.00  0.00    +0.000 A 
ATOM     15  C   UNL     1       8.492   7.767   7.683  0.00  0.00    +0.000 A 
ATOM     16  C   UNL     1       8.678   8.546   6.543  0.00  0.00    +0.000 A 
ENDBRANCH  10  11
ENDBRANCH   1  10
TORSDOF 2
ENDMDL
