MODEL 1
REMARK VINA RESULT:    -6.221      0.000      0.000
REMARK INTER + INTRA:          -7.105
REMARK INTER:                  -6.949
REMARK INTRA:                  -0.157
REMARK UNBOUND:                -0.157
REMARK  Name = 1550473
REMARK  2 active torsions:
REMARK  status: ('A' for Active; 'I' for Inactive)
REMARK    1  A    between atoms: N_1  and  C_4
REMARK    2  A    between atoms: C_4  and  C_5
REMARK                            x       y       z     vdW  Elec       q    Type
REMARK                         _______ _______ _______ _____ _____    ______ ____
ROOT
ATOM      1  N   UNL     1       9.529  17.078  -5.950  0.00  0.00    -0.354 N 
ATOM      2  N   UNL     1      10.618  15.707  -7.466  0.00  0.00    -0.372 N 
ATOM      3  N   UNL     1      11.007  15.410  -5.225  0.00  0.00    -0.372 N 
ATOM      4  C   UNL     1      10.379  16.073  -6.201  0.00  0.00    +0.166 C 
ATOM      5  H   UNL     1       9.108  17.560  -6.736  0.00  0.00    +0.163 HD
ATOM      6  H   UNL     1      11.252  14.950  -7.687  0.00  0.00    +0.159 HD
ATOM      7  H   UNL     1      10.161  16.160  -8.248  0.00  0.00    +0.159 HD
ATOM      8  H   UNL     1      10.874  15.641  -4.249  0.00  0.00    +0.159 HD
ATOM      9  H   UNL     1      11.653  14.657  -5.425  0.00  0.00    +0.159 HD
ENDROOT
BRANCH   1  10
ATOM     10  C   UNL     1       9.159  17.519  -4.607  0.00  0.00    +0.151 C 
BRANCH  10  11
ATOM     11  C   UNL     1       9.988  18.717  -4.237  0.00  0.00    -0.028 A 
ATOM     12  C   UNL     1      10.357  19.656  -5.211  0.00  0.00    +0.005 A 
ATOM     13  C   UNL     1      10.404  18.923  -2.912  0.00  0.00    +0.005 A 
ATOM     14  C   UNL     1      11.102  20.785  -4.863  0.00  0.00    +0.000 A 
ATOM     15  C   UNL     1      11.148  20.051  -2.569  0.00  0.00    +0.000 A 
ATOM     16  C   UNL     1      11.495  20.983  -3.544  0.00  0.00    +0.000 A 
ENDBRANCH  10  11
ENDBRANCH   1  10
TORSDOF 2
ENDMDL
MODEL 2
REMARK VINA RESULT:    -5.522      3.878      5.189
REMARK INTER + INTRA:          -6.324
REMARK INTER:                  -6.175
REMARK INTRA:                  -0.149
REMARK UNBOUND:                -0.157
REMARK  Name = 1550473
REMARK  2 active torsions:
REMARK  status: ('A' for Active; 'I' for Inactive)
REMARK    1  A    between atoms: N_1  and  C_4
REMARK    2  A    between atoms: C_4  and  C_5
REMARK                            x       y       z     vdW  Elec       q    Type
REMARK                         _______ _______ _______ _____ _____    ______ ____
ROOT
ATOM      1  N   UNL     1      12.235  22.300  -5.589  0.00  0.00    -0.354 N 
ATOM      2  N   UNL     1      13.986  22.926  -6.969  0.00  0.00    -0.372 N 
ATOM      3  N   UNL     1      14.278  23.021  -4.695  0.00  0.00    -0.372 N 
ATOM      4  C   UNL     1      13.489  22.746  -5.739  0.00  0.00    +0.166 C 
ATOM      5  H   UNL     1      11.678  22.139  -6.420  0.00  0.00    +0.163 HD
ATOM      6  H   UNL     1      14.930  23.258  -7.113  0.00  0.00    +0.159 HD
ATOM      7  H   UNL     1      13.443  22.721  -7.798  0.00  0.00    +0.159 HD
ATOM      8  H   UNL     1      13.960  22.911  -3.741  0.00  0.00    +0.159 HD
ATOM      9  H   UNL     1      15.222  23.365  -4.819  0.00  0.00    +0.159 HD
ENDROOT
BRANCH   1  10
ATOM     10  C   UNL     1      11.617  22.019  -4.294  0.00  0.00    +0.151 C 
BRANCH  10  11
ATOM     11  C   UNL     1      11.234  20.566  -4.238  0.00  0.00    -0.028 A 
ATOM     12  C   UNL     1      10.913  19.961  -3.014  0.00  0.00    +0.005 A 
ATOM     13  C   UNL     1      11.185  19.790  -5.406  0.00  0.00    +0.005 A 
ATOM     14  C   UNL     1      10.529  18.619  -2.965  0.00  0.00    +0.000 A 
ATOM     15  C   UNL     1      10.801  18.450  -5.353  0.00  0.00    +0.000 A 
ATOM     16  C   UNL     1      10.471  17.865  -4.132  0.00  0.00    +0.000 A 
ENDBRANCH  10  11
ENDBRANCH   1  10
TORSDOF 2
ENDMDL
MODEL 3
REMARK VINA RESULT:    -5.486      3.465      4.966
REMARK INTER + INTRA:          -6.284
REMARK INTER:                  -6.143
REMARK INTRA:                  -0.141
REMARK UNBOUND:                -0.157
REMARK  Name = 1550473
REMARK  2 active torsions:
REMARK  status: ('A' for Active; 'I' for Inactive)
REMARK    1  A    between atoms: N_1  and  C_4
REMARK    2  A    between atoms: C_4  and  C_5
REMARK                            x       y       z     vdW  Elec       q    Type
REMARK                         _______ _______ _______ _____ _____    ______ ____
ROOT
ATOM      1  N   UNL     1      10.212  21.802  -6.145  0.00  0.00    -0.354 N 
ATOM      2  N   UNL     1       9.294  23.905  -5.837  0.00  0.00    -0.372 N 
ATOM      3  N   UNL     1      11.516  23.586  -5.364  0.00  0.00    -0.372 N 
ATOM      4  C   UNL     1      10.349  23.084  -5.783  0.00  0.00    +0.166 C 
ATOM      5  H   UNL     1       9.294  21.476  -6.424  0.00  0.00    +0.163 HD
ATOM      6  H   UNL     1       9.367  24.879  -5.573  0.00  0.00    +0.159 HD
ATOM      7  H   UNL     1       8.388  23.588  -6.161  0.00  0.00    +0.159 HD
ATOM      8  H   UNL     1      12.349  23.017  -5.294  0.00  0.00    +0.159 HD
ATOM      9  H   UNL     1      11.607  24.555  -5.084  0.00  0.00    +0.159 HD
ENDROOT
BRANCH   1  10
ATOM     10  C   UNL     1      11.311  20.838  -6.174  0.00  0.00    +0.151 C 
BRANCH  10  11
ATOM     11  C   UNL     1      11.056  19.771  -5.146  0.00  0.00    -0.028 A 
ATOM     12  C   UNL     1      10.896  20.108  -3.794  0.00  0.00    +0.005 A 
ATOM     13  C   UNL     1      10.967  18.421  -5.518  0.00  0.00    +0.005 A 
ATOM     14  C   UNL     1      10.629  19.120  -2.843  0.00  0.00    +0.000 A 
ATOM     15  C   UNL     1      10.701  17.437  -4.566  0.00  0.00    +0.000 A 
ATOM     16  C   UNL     1      10.530  17.787  -3.229  0.00  0.00    +0.000 A 
ENDBRANCH  10  11
ENDBRANCH   1  10
TORSDOF 2
ENDMDL
MODEL 4
REMARK VINA RESULT:    -5.468     36.403     37.824
REMARK INTER + INTRA:          -6.264
REMARK INTER:                  -6.113
REMARK INTRA:                  -0.151
REMARK UNBOUND:                -0.157
REMARK  Name = 1550473
REMARK  2 active torsions:
REMARK  status: ('A' for Active; 'I' for Inactive)
REMARK    1  A    between atoms: N_1  and  C_4
REMARK    2  A    between atoms: C_4  and  C_5
REMARK                            x       y       z     vdW  Elec       q    Type
REMARK                         _______ _______ _______ _____ _____    ______ ____
ROOT
ATOM      1  N   UNL     1      -5.265  -6.813  16.151  0.00  0.00    -0.354 N 
ATOM      2  N   UNL     1      -3.001  -6.978  15.688  0.00  0.00    -0.372 N 
ATOM      3  N   UNL     1      -3.827  -8.001  17.569  0.00  0.00    -0.372 N 
ATOM      4  C   UNL     1      -4.046  -7.264  16.475  0.00  0.00    +0.166 C 
ATOM      5  H   UNL     1      -5.359  -6.233  15.324  0.00  0.00    +0.163 HD
ATOM      6  H   UNL     1      -2.071  -7.308  15.905  0.00  0.00    +0.159 HD
ATOM      7  H   UNL     1      -3.107  -6.438  14.838  0.00  0.00    +0.159 HD
ATOM      8  H   UNL     1      -4.572  -8.247  18.207  0.00  0.00    +0.159 HD
ATOM      9  H   UNL     1      -2.901  -8.331  17.809  0.00  0.00    +0.159 HD
ENDROOT
BRANCH   1  10
ATOM     10  C   UNL     1      -6.477  -7.113  16.910  0.00  0.00    +0.151 C 
BRANCH  10  11
ATOM     11  C   UNL     1      -7.345  -8.039  16.104  0.00  0.00    -0.028 A 
ATOM     12  C   UNL     1      -7.202  -8.117  14.711  0.00  0.00    +0.005 A 
ATOM     13  C   UNL     1      -8.310  -8.845  16.728  0.00  0.00    +0.005 A 
ATOM     14  C   UNL     1      -7.988  -8.999  13.966  0.00  0.00    +0.000 A 
ATOM     15  C   UNL     1      -9.093  -9.723  15.980  0.00  0.00    +0.000 A 
ATOM     16  C   UNL     1      -8.930  -9.802  14.599  0.00  0.00    +0.000 A 
ENDBRANCH  10  11
ENDBRANCH   1  10
TORSDOF 2
ENDMDL
MODEL 5
REMARK VINA RESULT:    -5.324     31.912     33.410
REMARK INTER + INTRA:          -6.103
REMARK INTER:                  -5.979
REMARK INTRA:                  -0.124
REMARK UNBOUND:                -0.157
REMARK  Name = 1550473
REMARK  2 active torsions:
REMARK  status: ('A' for Active; 'I' for Inactive)
REMARK    1  A    between atoms: N_1  and  C_4
REMARK    2  A    between atoms: C_4  and  C_5
REMARK                            x       y       z     vdW  Elec       q    Type
REMARK                         _______ _______ _______ _____ _____    ______ ____
ROOT
ATOM      1  N   UNL     1      -9.094  -7.505   5.399  0.00  0.00    -0.354 N 
ATOM      2  N   UNL     1     -10.512  -6.399   6.858  0.00  0.00    -0.372 N 
ATOM      3  N   UNL     1     -11.367  -8.060   5.526  0.00  0.00    -0.372 N 
ATOM      4  C   UNL     1     -10.317  -7.330   5.917  0.00  0.00    +0.166 C 
ATOM      5  H   UNL     1      -8.345  -6.899   5.716  0.00  0.00    +0.163 HD
ATOM      6  H   UNL     1     -11.423  -6.247   7.270  0.00  0.00    +0.159 HD
ATOM      7  H   UNL     1      -9.753  -5.826   7.206  0.00  0.00    +0.159 HD
ATOM      8  H   UNL     1     -11.288  -8.775   4.815  0.00  0.00    +0.159 HD
ATOM      9  H   UNL     1     -12.289  -7.914   5.918  0.00  0.00    +0.159 HD
ENDROOT
BRANCH   1  10
ATOM     10  C   UNL     1      -8.764  -8.528   4.408  0.00  0.00    +0.151 C 
BRANCH  10  11
ATOM     11  C   UNL     1      -7.403  -8.239   3.838  0.00  0.00    -0.028 A 
ATOM     12  C   UNL     1      -6.628  -7.185   4.344  0.00  0.00    +0.005 A 
ATOM     13  C   UNL     1      -6.879  -9.020   2.796  0.00  0.00    +0.005 A 
ATOM     14  C   UNL     1      -5.351  -6.935   3.835  0.00  0.00    +0.000 A 
ATOM     15  C   UNL     1      -5.604  -8.766   2.290  0.00  0.00    +0.000 A 
ATOM     16  C   UNL     1      -4.840  -7.725   2.812  0.00  0.00    +0.000 A 
ENDBRANCH  10  11
ENDBRANCH   1  10
TORSDOF 2
ENDMDL
MODEL 6
REMARK VINA RESULT:    -5.307     24.712     25.924
REMARK INTER + INTRA:          -6.084
REMARK INTER:                  -5.961
REMARK INTRA:                  -0.123
REMARK UNBOUND:                -0.157
REMARK  Name = 1550473
REMARK  2 active torsions:
REMARK  status: ('A' for Active; 'I' for Inactive)
REMARK    1  A    between atoms: N_1  and  C_4
REMARK    2  A    between atoms: C_4  and  C_5
REMARK                            x       y       z     vdW  Elec       q    Type
REMARK                         _______ _______ _______ _____ _____    ______ ____
ROOT
ATOM      1  N   UNL     1       0.080  -4.547  -2.181  0.00  0.00    -0.354 N 
ATOM      2  N   UNL     1      -1.044  -3.845  -4.081  0.00  0.00    -0.372 N 
ATOM      3  N   UNL     1      -1.264  -2.627  -2.150  0.00  0.00    -0.372 N 
ATOM      4  C   UNL     1      -0.736  -3.676  -2.790  0.00  0.00    +0.166 C 
ATOM      5  H   UNL     1       0.422  -5.338  -2.714  0.00  0.00    +0.163 HD
ATOM      6  H   UNL     1      -1.654  -3.203  -4.568  0.00  0.00    +0.159 HD
ATOM      7  H   UNL     1      -0.663  -4.611  -4.623  0.00  0.00    +0.159 HD
ATOM      8  H   UNL     1      -1.076  -2.446  -1.173  0.00  0.00    +0.159 HD
ATOM      9  H   UNL     1      -1.886  -1.979  -2.617  0.00  0.00    +0.159 HD
ENDROOT
BRANCH   1  10
ATOM     10  C   UNL     1       0.519  -4.422  -0.793  0.00  0.00    +0.151 C 
BRANCH  10  11
ATOM     11  C   UNL     1       1.474  -5.540  -0.478  0.00  0.00    -0.028 A 
ATOM     12  C   UNL     1       1.736  -6.541  -1.425  0.00  0.00    +0.005 A 
ATOM     13  C   UNL     1       2.125  -5.601   0.764  0.00  0.00    +0.005 A 
ATOM     14  C   UNL     1       2.646  -7.563  -1.144  0.00  0.00    +0.000 A 
ATOM     15  C   UNL     1       3.032  -6.624   1.041  0.00  0.00    +0.000 A 
ATOM     16  C   UNL     1       3.294  -7.603   0.086  0.00  0.00    +0.000 A 
ENDBRANCH  10  11
ENDBRANCH   1  10
TORSDOF 2
ENDMDL
MODEL 7
REMARK VINA RESULT:    -5.247     35.953     37.429
REMARK INTER + INTRA:          -6.017
REMARK INTER:                  -5.850
REMARK INTRA:                  -0.167
REMARK UNBOUND:                -0.157
REMARK  Name = 1550473
REMARK  2 active torsions:
REMARK  status: ('A' for Active; 'I' for Inactive)
REMARK    1  A    between atoms: N_1  and  C_4
REMARK    2  A    between atoms: C_4  and  C_5
REMARK                            x       y       z     vdW  Elec       q    Type
REMARK                         _______ _______ _______ _____ _____    ______ ____
ROOT
ATOM      1  N   UNL     1      -5.275  -6.910  16.046  0.00  0.00    -0.354 N 
ATOM      2  N   UNL     1      -3.370  -7.264  17.314  0.00  0.00    -0.372 N 
ATOM      3  N   UNL     1      -3.278  -7.625  15.050  0.00  0.00    -0.372 N 
ATOM      4  C   UNL     1      -3.986  -7.265  16.126  0.00  0.00    +0.166 C 
ATOM      5  H   UNL     1      -5.764  -6.677  16.903  0.00  0.00    +0.163 HD
ATOM      6  H   UNL     1      -2.397  -7.524  17.405  0.00  0.00    +0.159 HD
ATOM      7  H   UNL     1      -3.848  -6.987  18.162  0.00  0.00    +0.159 HD
ATOM      8  H   UNL     1      -3.686  -7.652  14.125  0.00  0.00    +0.159 HD
ATOM      9  H   UNL     1      -2.306  -7.899  15.122  0.00  0.00    +0.159 HD
ENDROOT
BRANCH   1  10
ATOM     10  C   UNL     1      -6.024  -6.826  14.793  0.00  0.00    +0.151 C 
BRANCH  10  11
ATOM     11  C   UNL     1      -6.969  -7.993  14.707  0.00  0.00    -0.028 A 
ATOM     12  C   UNL     1      -7.901  -8.232  15.727  0.00  0.00    +0.005 A 
ATOM     13  C   UNL     1      -6.941  -8.860  13.603  0.00  0.00    +0.005 A 
ATOM     14  C   UNL     1      -8.799  -9.298  15.633  0.00  0.00    +0.000 A 
ATOM     15  C   UNL     1      -7.839  -9.924  13.513  0.00  0.00    +0.000 A 
ATOM     16  C   UNL     1      -8.769 -10.141  14.527  0.00  0.00    +0.000 A 
ENDBRANCH  10  11
ENDBRANCH   1  10
TORSDOF 2
ENDMDL
MODEL 8
REMARK VINA RESULT:    -5.134     32.628     33.726
REMARK INTER + INTRA:          -5.891
REMARK INTER:                  -5.726
REMARK INTRA:                  -0.164
REMARK UNBOUND:                -0.157
REMARK  Name = 1550473
REMARK  2 active torsions:
REMARK  status: ('A' for Active; 'I' for Inactive)
REMARK    1  A    between atoms: N_1  and  C_4
REMARK    2  A    between atoms: C_4  and  C_5
REMARK                            x       y       z     vdW  Elec       q    Type
REMARK                         _______ _______ _______ _____ _____    ______ ____
ROOT
ATOM      1  N   UNL     1      -7.049  -9.004   3.116  0.00  0.00    -0.354 N 
ATOM      2  N   UNL     1      -5.152  -9.902   4.096  0.00  0.00    -0.372 N 
ATOM      3  N   UNL     1      -5.466  -7.630   4.163  0.00  0.00    -0.372 N 
ATOM      4  C   UNL     1      -5.901  -8.837   3.786  0.00  0.00    +0.166 C 
ATOM      5  H   UNL     1      -7.308  -9.942   2.832  0.00  0.00    +0.163 HD
ATOM      6  H   UNL     1      -4.283  -9.807   4.604  0.00  0.00    +0.159 HD
ATOM      7  H   UNL     1      -5.437 -10.843   3.851  0.00  0.00    +0.159 HD
ATOM      8  H   UNL     1      -5.981  -6.786   3.954  0.00  0.00    +0.159 HD
ATOM      9  H   UNL     1      -4.592  -7.514   4.662  0.00  0.00    +0.159 HD
ENDROOT
BRANCH   1  10
ATOM     10  C   UNL     1      -7.964  -7.916   2.776  0.00  0.00    +0.151 C 
BRANCH  10  11
ATOM     11  C   UNL     1      -8.958  -7.743   3.891  0.00  0.00    -0.028 A 
ATOM     12  C   UNL     1      -9.852  -8.775   4.213  0.00  0.00    +0.005 A 
ATOM     13  C   UNL     1      -9.007  -6.553   4.633  0.00  0.00    +0.005 A 
ATOM     14  C   UNL     1     -10.756  -8.627   5.268  0.00  0.00    +0.000 A 
ATOM     15  C   UNL     1      -9.912  -6.409   5.685  0.00  0.00    +0.000 A 
ATOM     16  C   UNL     1     -10.784  -7.447   6.004  0.00  0.00    +0.000 A 
ENDBRANCH  10  11
ENDBRANCH   1  10
TORSDOF 2
ENDMDL
MODEL 9
REMARK VINA RESULT:    -5.107     32.980     33.791
REMARK INTER + INTRA:          -5.861
REMARK INTER:                  -5.697
REMARK INTRA:                  -0.164
REMARK UNBOUND:                -0.157
REMARK  Name = 1550473
REMARK  2 active torsions:
REMARK  status: ('A' for Active; 'I' for Inactive)
REMARK    1  A    between atoms: N_1  and  C_4
REMARK    2  A    between atoms: C_4  and  C_5
REMARK                            x       y       z     vdW  Elec       q    Type
REMARK                         _______ _______ _______ _____ _____    ______ ____
ROOT
ATOM      1  N   UNL     1      -7.310 -10.151  -0.755  0.00  0.00    -0.354 N 
ATOM      2  N   UNL     1      -8.394 -12.028  -1.572  0.00  0.00    -0.372 N 
ATOM      3  N   UNL     1      -6.108 -12.066  -1.371  0.00  0.00    -0.372 N 
ATOM      4  C   UNL     1      -7.261 -11.403  -1.228  0.00  0.00    +0.166 C 
ATOM      5  H   UNL     1      -8.213  -9.693  -0.699  0.00  0.00    +0.163 HD
ATOM      6  H   UNL     1      -8.388 -12.974  -1.928  0.00  0.00    +0.159 HD
ATOM      7  H   UNL     1      -9.299 -11.584  -1.471  0.00  0.00    +0.159 HD
ATOM      8  H   UNL     1      -5.218 -11.648  -1.135  0.00  0.00    +0.159 HD
ATOM      9  H   UNL     1      -6.081 -13.009  -1.737  0.00  0.00    +0.159 HD
ENDROOT
BRANCH   1  10
ATOM     10  C   UNL     1      -6.140  -9.401  -0.302  0.00  0.00    +0.151 C 
BRANCH  10  11
ATOM     11  C   UNL     1      -5.946  -9.637   1.170  0.00  0.00    -0.028 A 
ATOM     12  C   UNL     1      -7.014  -9.477   2.065  0.00  0.00    +0.005 A 
ATOM     13  C   UNL     1      -4.696 -10.027   1.677  0.00  0.00    +0.005 A 
ATOM     14  C   UNL     1      -6.842  -9.726   3.428  0.00  0.00    +0.000 A 
ATOM     15  C   UNL     1      -4.528 -10.274   3.039  0.00  0.00    +0.000 A 
ATOM     16  C   UNL     1      -5.601 -10.125   3.914  0.00  0.00    +0.000 A 
ENDBRANCH  10  11
ENDBRANCH   1  10
TORSDOF 2
ENDMDL
