MODEL 1
REMARK VINA RESULT:    -4.658      0.000      0.000
REMARK INTER + INTRA:          -5.339
REMARK INTER:                  -5.203
REMARK INTRA:                  -0.136
REMARK UNBOUND:                -0.136
REMARK  Name = 1550473
REMARK  2 active torsions:
REMARK  status: ('A' for Active; 'I' for Inactive)
REMARK    1  A    between atoms: N_1  and  C_4
REMARK    2  A    between atoms: C_4  and  C_5
REMARK                            x       y       z     vdW  Elec       q    Type
REMARK                         _______ _______ _______ _____ _____    ______ ____
ROOT
ATOM      1  N   UNL     1      -9.407   4.798 -13.119  0.00  0.00    -0.354 N 
ATOM      2  N   UNL     1      -7.728   4.774 -14.714  0.00  0.00    -0.372 N 
ATOM      3  N   UNL     1      -8.455   2.781 -13.839  0.00  0.00    -0.372 N 
ATOM      4  C   UNL     1      -8.541   4.115 -13.880  0.00  0.00    +0.166 C 
ATOM      5  H   UNL     1      -9.402   5.810 -13.174  0.00  0.00    +0.163 HD
ATOM      6  H   UNL     1      -7.066   4.286 -15.302  0.00  0.00    +0.159 HD
ATOM      7  H   UNL     1      -7.757   5.783 -14.800  0.00  0.00    +0.159 HD
ATOM      8  H   UNL     1      -9.036   2.225 -13.227  0.00  0.00    +0.159 HD
ATOM      9  H   UNL     1      -7.791   2.275 -14.412  0.00  0.00    +0.159 HD
ENDROOT
BRANCH   1  10
ATOM     10  C   UNL     1     -10.373   4.172 -12.218  0.00  0.00    +0.151 C 
BRANCH  10  11
ATOM     11  C   UNL     1     -10.367   4.906 -10.905  0.00  0.00    -0.028 A 
ATOM     12  C   UNL     1     -10.901   4.310  -9.754  0.00  0.00    +0.005 A 
ATOM     13  C   UNL     1      -9.824   6.196 -10.806  0.00  0.00    +0.005 A 
ATOM     14  C   UNL     1     -10.869   4.980  -8.528  0.00  0.00    +0.000 A 
ATOM     15  C   UNL     1      -9.794   6.862  -9.580  0.00  0.00    +0.000 A 
ATOM     16  C   UNL     1     -10.314   6.253  -8.441  0.00  0.00    +0.000 A 
ENDBRANCH  10  11
ENDBRANCH   1  10
TORSDOF 2
ENDMDL
MODEL 2
REMARK VINA RESULT:    -4.658      1.394      2.591
REMARK INTER + INTRA:          -5.339
REMARK INTER:                  -5.190
REMARK INTRA:                  -0.149
REMARK UNBOUND:                -0.136
REMARK  Name = 1550473
REMARK  2 active torsions:
REMARK  status: ('A' for Active; 'I' for Inactive)
REMARK    1  A    between atoms: N_1  and  C_4
REMARK    2  A    between atoms: C_4  and  C_5
REMARK                            x       y       z     vdW  Elec       q    Type
REMARK                         _______ _______ _______ _____ _____    ______ ____
ROOT
ATOM      1  N   UNL     1     -10.070   3.818 -10.849  0.00  0.00    -0.354 N 
ATOM      2  N   UNL     1      -8.765   3.553 -12.744  0.00  0.00    -0.372 N 
ATOM      3  N   UNL     1     -10.833   4.525 -12.948  0.00  0.00    -0.372 N 
ATOM      4  C   UNL     1      -9.900   3.968 -12.169  0.00  0.00    +0.166 C 
ATOM      5  H   UNL     1      -9.337   3.360 -10.318  0.00  0.00    +0.163 HD
ATOM      6  H   UNL     1      -8.607   3.656 -13.737  0.00  0.00    +0.159 HD
ATOM      7  H   UNL     1      -8.016   3.137 -12.204  0.00  0.00    +0.159 HD
ATOM      8  H   UNL     1     -11.715   4.854 -12.577  0.00  0.00    +0.159 HD
ATOM      9  H   UNL     1     -10.699   4.627 -13.946  0.00  0.00    +0.159 HD
ENDROOT
BRANCH   1  10
ATOM     10  C   UNL     1     -11.246   4.285 -10.117  0.00  0.00    +0.151 C 
BRANCH  10  11
ATOM     11  C   UNL     1     -10.807   5.236  -9.038  0.00  0.00    -0.028 A 
ATOM     12  C   UNL     1     -10.157   6.435  -9.366  0.00  0.00    +0.005 A 
ATOM     13  C   UNL     1     -11.044   4.947  -7.685  0.00  0.00    +0.005 A 
ATOM     14  C   UNL     1      -9.776   7.332  -8.366  0.00  0.00    +0.000 A 
ATOM     15  C   UNL     1     -10.662   5.846  -6.689  0.00  0.00    +0.000 A 
ATOM     16  C   UNL     1     -10.030   7.039  -7.030  0.00  0.00    +0.000 A 
ENDBRANCH  10  11
ENDBRANCH   1  10
TORSDOF 2
ENDMDL
MODEL 3
REMARK VINA RESULT:    -4.603     22.876     23.634
REMARK INTER + INTRA:          -5.277
REMARK INTER:                  -5.172
REMARK INTRA:                  -0.105
REMARK UNBOUND:                -0.136
REMARK  Name = 1550473
REMARK  2 active torsions:
REMARK  status: ('A' for Active; 'I' for Inactive)
REMARK    1  A    between atoms: N_1  and  C_4
REMARK    2  A    between atoms: C_4  and  C_5
REMARK                            x       y       z     vdW  Elec       q    Type
REMARK                         _______ _______ _______ _____ _____    ______ ____
ROOT
ATOM      1  N   UNL     1       1.911  -9.634   1.254  0.00  0.00    -0.354 N 
ATOM      2  N   UNL     1      -0.303 -10.127   1.724  0.00  0.00    -0.372 N 
ATOM      3  N   UNL     1       0.196  -8.136   0.699  0.00  0.00    -0.372 N 
ATOM      4  C   UNL     1       0.615  -9.293   1.222  0.00  0.00    +0.166 C 
ATOM      5  H   UNL     1       2.167 -10.511   1.692  0.00  0.00    +0.163 HD
ATOM      6  H   UNL     1      -1.288  -9.899   1.710  0.00  0.00    +0.159 HD
ATOM      7  H   UNL     1      -0.048 -11.024   2.119  0.00  0.00    +0.159 HD
ATOM      8  H   UNL     1       0.839  -7.460   0.308  0.00  0.00    +0.159 HD
ATOM      9  H   UNL     1      -0.785  -7.885   0.686  0.00  0.00    +0.159 HD
ENDROOT
BRANCH   1  10
ATOM     10  C   UNL     1       2.984  -8.821   0.686  0.00  0.00    +0.151 C 
BRANCH  10  11
ATOM     11  C   UNL     1       4.200  -9.683   0.485  0.00  0.00    -0.028 A 
ATOM     12  C   UNL     1       4.170 -10.756  -0.419  0.00  0.00    +0.005 A 
ATOM     13  C   UNL     1       5.386  -9.430   1.191  0.00  0.00    +0.005 A 
ATOM     14  C   UNL     1       5.308 -11.539  -0.628  0.00  0.00    +0.000 A 
ATOM     15  C   UNL     1       6.519 -10.214   0.980  0.00  0.00    +0.000 A 
ATOM     16  C   UNL     1       6.481 -11.267   0.068  0.00  0.00    +0.000 A 
ENDBRANCH  10  11
ENDBRANCH   1  10
TORSDOF 2
ENDMDL
MODEL 4
REMARK VINA RESULT:    -4.429      4.496      5.506
REMARK INTER + INTRA:          -5.083
REMARK INTER:                  -4.953
REMARK INTRA:                  -0.130
REMARK UNBOUND:                -0.136
REMARK  Name = 1550473
REMARK  2 active torsions:
REMARK  status: ('A' for Active; 'I' for Inactive)
REMARK    1  A    between atoms: N_1  and  C_4
REMARK    2  A    between atoms: C_4  and  C_5
REMARK                            x       y       z     vdW  Elec       q    Type
REMARK                         _______ _______ _______ _____ _____    ______ ____
ROOT
ATOM      1  N   UNL     1     -12.133   4.410  -7.200  0.00  0.00    -0.354 N 
ATOM      2  N   UNL     1     -14.232   3.749  -6.478  0.00  0.00    -0.372 N 
ATOM      3  N   UNL     1     -13.653   3.403  -8.672  0.00  0.00    -0.372 N 
ATOM      4  C   UNL     1     -13.326   3.858  -7.458  0.00  0.00    +0.166 C 
ATOM      5  H   UNL     1     -11.957   4.763  -6.266  0.00  0.00    +0.163 HD
ATOM      6  H   UNL     1     -15.139   3.333  -6.642  0.00  0.00    +0.159 HD
ATOM      7  H   UNL     1     -14.037   4.060  -5.535  0.00  0.00    +0.159 HD
ATOM      8  H   UNL     1     -13.017   3.462  -9.455  0.00  0.00    +0.159 HD
ATOM      9  H   UNL     1     -14.561   2.995  -8.858  0.00  0.00    +0.159 HD
ENDROOT
BRANCH   1  10
ATOM     10  C   UNL     1     -11.057   4.528  -8.183  0.00  0.00    +0.151 C 
BRANCH  10  11
ATOM     11  C   UNL     1     -10.485   5.917  -8.121  0.00  0.00    -0.028 A 
ATOM     12  C   UNL     1     -10.422   6.607  -6.902  0.00  0.00    +0.005 A 
ATOM     13  C   UNL     1      -9.998   6.546  -9.277  0.00  0.00    +0.005 A 
ATOM     14  C   UNL     1      -9.863   7.886  -6.838  0.00  0.00    +0.000 A 
ATOM     15  C   UNL     1      -9.441   7.823  -9.210  0.00  0.00    +0.000 A 
ATOM     16  C   UNL     1      -9.371   8.492  -7.990  0.00  0.00    +0.000 A 
ENDBRANCH  10  11
ENDBRANCH   1  10
TORSDOF 2
ENDMDL
MODEL 5
REMARK VINA RESULT:    -4.376     20.586     21.243
REMARK INTER + INTRA:          -5.024
REMARK INTER:                  -4.900
REMARK INTRA:                  -0.124
REMARK UNBOUND:                -0.136
REMARK  Name = 1550473
REMARK  2 active torsions:
REMARK  status: ('A' for Active; 'I' for Inactive)
REMARK    1  A    between atoms: N_1  and  C_4
REMARK    2  A    between atoms: C_4  and  C_5
REMARK                            x       y       z     vdW  Elec       q    Type
REMARK                         _______ _______ _______ _____ _____    ______ ____
ROOT
ATOM      1  N   UNL     1      -3.849  -8.106   4.294  0.00  0.00    -0.354 N 
ATOM      2  N   UNL     1      -3.610  -8.555   2.034  0.00  0.00    -0.372 N 
ATOM      3  N   UNL     1      -4.971  -9.906   3.295  0.00  0.00    -0.372 N 
ATOM      4  C   UNL     1      -4.146  -8.855   3.223  0.00  0.00    +0.166 C 
ATOM      5  H   UNL     1      -3.194  -7.342   4.179  0.00  0.00    +0.163 HD
ATOM      6  H   UNL     1      -3.818  -9.100   1.208  0.00  0.00    +0.159 HD
ATOM      7  H   UNL     1      -2.991  -7.763   1.913  0.00  0.00    +0.159 HD
ATOM      8  H   UNL     1      -5.404 -10.188   4.164  0.00  0.00    +0.159 HD
ATOM      9  H   UNL     1      -5.182 -10.470   2.482  0.00  0.00    +0.159 HD
ENDROOT
BRANCH   1  10
ATOM     10  C   UNL     1      -4.422  -8.315   5.622  0.00  0.00    +0.151 C 
BRANCH  10  11
ATOM     11  C   UNL     1      -4.908  -6.998   6.160  0.00  0.00    -0.028 A 
ATOM     12  C   UNL     1      -6.147  -6.908   6.812  0.00  0.00    +0.005 A 
ATOM     13  C   UNL     1      -4.132  -5.836   6.027  0.00  0.00    +0.005 A 
ATOM     14  C   UNL     1      -6.585  -5.691   7.338  0.00  0.00    +0.000 A 
ATOM     15  C   UNL     1      -4.574  -4.623   6.554  0.00  0.00    +0.000 A 
ATOM     16  C   UNL     1      -5.799  -4.551   7.211  0.00  0.00    +0.000 A 
ENDBRANCH  10  11
ENDBRANCH   1  10
TORSDOF 2
ENDMDL
MODEL 6
REMARK VINA RESULT:    -4.305     23.424     24.028
REMARK INTER + INTRA:          -4.945
REMARK INTER:                  -4.800
REMARK INTRA:                  -0.144
REMARK UNBOUND:                -0.136
REMARK  Name = 1550473
REMARK  2 active torsions:
REMARK  status: ('A' for Active; 'I' for Inactive)
REMARK    1  A    between atoms: N_1  and  C_4
REMARK    2  A    between atoms: C_4  and  C_5
REMARK                            x       y       z     vdW  Elec       q    Type
REMARK                         _______ _______ _______ _____ _____    ______ ____
ROOT
ATOM      1  N   UNL     1       3.946 -12.465  -2.497  0.00  0.00    -0.354 N 
ATOM      2  N   UNL     1       4.379 -13.388  -4.576  0.00  0.00    -0.372 N 
ATOM      3  N   UNL     1       3.213 -11.415  -4.459  0.00  0.00    -0.372 N 
ATOM      4  C   UNL     1       3.842 -12.415  -3.831  0.00  0.00    +0.166 C 
ATOM      5  H   UNL     1       4.409 -13.265  -2.080  0.00  0.00    +0.163 HD
ATOM      6  H   UNL     1       4.319 -13.375  -5.586  0.00  0.00    +0.159 HD
ATOM      7  H   UNL     1       4.881 -14.162  -4.159  0.00  0.00    +0.159 HD
ATOM      8  H   UNL     1       2.780 -10.653  -3.954  0.00  0.00    +0.159 HD
ATOM      9  H   UNL     1       3.132 -11.391  -5.468  0.00  0.00    +0.159 HD
ENDROOT
BRANCH   1  10
ATOM     10  C   UNL     1       3.442 -11.429  -1.597  0.00  0.00    +0.151 C 
BRANCH  10  11
ATOM     11  C   UNL     1       4.561 -10.966  -0.706  0.00  0.00    -0.028 A 
ATOM     12  C   UNL     1       4.447  -9.769   0.017  0.00  0.00    +0.005 A 
ATOM     13  C   UNL     1       5.736 -11.722  -0.575  0.00  0.00    +0.005 A 
ATOM     14  C   UNL     1       5.474  -9.354   0.869  0.00  0.00    +0.000 A 
ATOM     15  C   UNL     1       6.759 -11.303   0.276  0.00  0.00    +0.000 A 
ATOM     16  C   UNL     1       6.627 -10.121   0.999  0.00  0.00    +0.000 A 
ENDBRANCH  10  11
ENDBRANCH   1  10
TORSDOF 2
ENDMDL
MODEL 7
REMARK VINA RESULT:    -4.182     33.122     34.100
REMARK INTER + INTRA:          -4.807
REMARK INTER:                  -4.693
REMARK INTRA:                  -0.114
REMARK UNBOUND:                -0.136
REMARK  Name = 1550473
REMARK  2 active torsions:
REMARK  status: ('A' for Active; 'I' for Inactive)
REMARK    1  A    between atoms: N_1  and  C_4
REMARK    2  A    between atoms: C_4  and  C_5
REMARK                            x       y       z     vdW  Elec       q    Type
REMARK                         _______ _______ _______ _____ _____    ______ ____
ROOT
ATOM      1  N   UNL     1       8.839  -3.246  14.788  0.00  0.00    -0.354 N 
ATOM      2  N   UNL     1       8.547  -1.189  13.764  0.00  0.00    -0.372 N 
ATOM      3  N   UNL     1       7.080  -2.887  13.282  0.00  0.00    -0.372 N 
ATOM      4  C   UNL     1       8.155  -2.456  13.950  0.00  0.00    +0.166 C 
ATOM      5  H   UNL     1       9.663  -2.868  15.241  0.00  0.00    +0.163 HD
ATOM      6  H   UNL     1       8.049  -0.568  13.140  0.00  0.00    +0.159 HD
ATOM      7  H   UNL     1       9.344  -0.801  14.253  0.00  0.00    +0.159 HD
ATOM      8  H   UNL     1       6.736  -3.833  13.373  0.00  0.00    +0.159 HD
ATOM      9  H   UNL     1       6.575  -2.284  12.644  0.00  0.00    +0.159 HD
ENDROOT
BRANCH   1  10
ATOM     10  C   UNL     1       8.464  -4.624  15.102  0.00  0.00    +0.151 C 
BRANCH  10  11
ATOM     11  C   UNL     1       8.141  -4.723  16.567  0.00  0.00    -0.028 A 
ATOM     12  C   UNL     1       8.505  -5.862  17.301  0.00  0.00    +0.005 A 
ATOM     13  C   UNL     1       7.476  -3.680  17.229  0.00  0.00    +0.005 A 
ATOM     14  C   UNL     1       8.232  -5.942  18.668  0.00  0.00    +0.000 A 
ATOM     15  C   UNL     1       7.204  -3.764  18.595  0.00  0.00    +0.000 A 
ATOM     16  C   UNL     1       7.585  -4.894  19.314  0.00  0.00    +0.000 A 
ENDBRANCH  10  11
ENDBRANCH   1  10
TORSDOF 2
ENDMDL
MODEL 8
REMARK VINA RESULT:    -4.176     23.234     23.824
REMARK INTER + INTRA:          -4.800
REMARK INTER:                  -4.644
REMARK INTRA:                  -0.156
REMARK UNBOUND:                -0.136
REMARK  Name = 1550473
REMARK  2 active torsions:
REMARK  status: ('A' for Active; 'I' for Inactive)
REMARK    1  A    between atoms: N_1  and  C_4
REMARK    2  A    between atoms: C_4  and  C_5
REMARK                            x       y       z     vdW  Elec       q    Type
REMARK                         _______ _______ _______ _____ _____    ______ ____
ROOT
ATOM      1  N   UNL     1       3.201 -11.941  -2.283  0.00  0.00    -0.354 N 
ATOM      2  N   UNL     1       2.670 -11.499  -4.494  0.00  0.00    -0.372 N 
ATOM      3  N   UNL     1       4.640 -12.576  -4.020  0.00  0.00    -0.372 N 
ATOM      4  C   UNL     1       3.510 -12.009  -3.585  0.00  0.00    +0.166 C 
ATOM      5  H   UNL     1       2.343 -11.472  -2.016  0.00  0.00    +0.163 HD
ATOM      6  H   UNL     1       2.874 -11.539  -5.484  0.00  0.00    +0.159 HD
ATOM      7  H   UNL     1       1.791 -11.072  -4.227  0.00  0.00    +0.159 HD
ATOM      8  H   UNL     1       5.318 -12.974  -3.385  0.00  0.00    +0.159 HD
ATOM      9  H   UNL     1       4.868 -12.615  -5.006  0.00  0.00    +0.159 HD
ENDROOT
BRANCH   1  10
ATOM     10  C   UNL     1       4.021 -12.513  -1.217  0.00  0.00    +0.151 C 
BRANCH  10  11
ATOM     11  C   UNL     1       4.638 -11.398  -0.419  0.00  0.00    -0.028 A 
ATOM     12  C   UNL     1       5.972 -11.479   0.005  0.00  0.00    +0.005 A 
ATOM     13  C   UNL     1       3.894 -10.254  -0.089  0.00  0.00    +0.005 A 
ATOM     14  C   UNL     1       6.554 -10.430   0.720  0.00  0.00    +0.000 A 
ATOM     15  C   UNL     1       4.479  -9.209   0.626  0.00  0.00    +0.000 A 
ATOM     16  C   UNL     1       5.810  -9.297   1.029  0.00  0.00    +0.000 A 
ENDBRANCH  10  11
ENDBRANCH   1  10
TORSDOF 2
ENDMDL
MODEL 9
REMARK VINA RESULT:    -4.172     25.014     25.877
REMARK INTER + INTRA:          -4.796
REMARK INTER:                  -4.635
REMARK INTRA:                  -0.161
REMARK UNBOUND:                -0.136
REMARK  Name = 1550473
REMARK  2 active torsions:
REMARK  status: ('A' for Active; 'I' for Inactive)
REMARK    1  A    between atoms: N_1  and  C_4
REMARK    2  A    between atoms: C_4  and  C_5
REMARK                            x       y       z     vdW  Elec       q    Type
REMARK                         _______ _______ _______ _____ _____    ______ ____
ROOT
ATOM      1  N   UNL     1       1.276  10.300  11.086  0.00  0.00    -0.354 N 
ATOM      2  N   UNL     1       0.803   8.180  10.283  0.00  0.00    -0.372 N 
ATOM      3  N   UNL     1       2.976   8.715  10.788  0.00  0.00    -0.372 N 
ATOM      4  C   UNL     1       1.691   9.078  10.724  0.00  0.00    +0.166 C 
ATOM      5  H   UNL     1       0.293  10.523  10.985  0.00  0.00    +0.163 HD
ATOM      6  H   UNL     1       1.086   7.249  10.006  0.00  0.00    +0.159 HD
ATOM      7  H   UNL     1      -0.186   8.391  10.227  0.00  0.00    +0.159 HD
ATOM      8  H   UNL     1       3.697   9.348  11.106  0.00  0.00    +0.159 HD
ATOM      9  H   UNL     1       3.281   7.792  10.504  0.00  0.00    +0.159 HD
ENDROOT
BRANCH   1  10
ATOM     10  C   UNL     1       2.155  11.334  11.630  0.00  0.00    +0.151 C 
BRANCH  10  11
ATOM     11  C   UNL     1       2.652  12.198  10.505  0.00  0.00    -0.028 A 
ATOM     12  C   UNL     1       1.764  13.012   9.786  0.00  0.00    +0.005 A 
ATOM     13  C   UNL     1       4.011  12.214  10.156  0.00  0.00    +0.005 A 
ATOM     14  C   UNL     1       2.230  13.838   8.760  0.00  0.00    +0.000 A 
ATOM     15  C   UNL     1       4.472  13.039   9.131  0.00  0.00    +0.000 A 
ATOM     16  C   UNL     1       3.582  13.853   8.435  0.00  0.00    +0.000 A 
ENDBRANCH  10  11
ENDBRANCH   1  10
TORSDOF 2
ENDMDL
