MODEL 1
REMARK VINA RESULT:    -5.877      0.000      0.000
REMARK INTER + INTRA:          -6.690
REMARK INTER:                  -6.564
REMARK INTRA:                  -0.126
REMARK UNBOUND:                -0.126
REMARK  Name = 1550473
REMARK  2 active torsions:
REMARK  status: ('A' for Active; 'I' for Inactive)
REMARK    1  A    between atoms: N_1  and  C_4
REMARK    2  A    between atoms: C_4  and  C_5
REMARK                            x       y       z     vdW  Elec       q    Type
REMARK                         _______ _______ _______ _____ _____    ______ ____
ROOT
ATOM      1  N   UNL     1       3.809  -4.409  -2.808  0.00  0.00    -0.354 N 
ATOM      2  N   UNL     1       2.177  -5.339  -4.164  0.00  0.00    -0.372 N 
ATOM      3  N   UNL     1       1.963  -5.521  -1.886  0.00  0.00    -0.372 N 
ATOM      4  C   UNL     1       2.659  -5.085  -2.941  0.00  0.00    +0.166 C 
ATOM      5  H   UNL     1       4.304  -4.132  -3.648  0.00  0.00    +0.163 HD
ATOM      6  H   UNL     1       1.311  -5.844  -4.295  0.00  0.00    +0.159 HD
ATOM      7  H   UNL     1       2.651  -5.021  -5.000  0.00  0.00    +0.159 HD
ATOM      8  H   UNL     1       2.276  -5.366  -0.937  0.00  0.00    +0.159 HD
ATOM      9  H   UNL     1       1.100  -6.038  -1.998  0.00  0.00    +0.159 HD
ENDROOT
BRANCH   1  10
ATOM     10  C   UNL     1       4.392  -4.034  -1.521  0.00  0.00    +0.151 C 
BRANCH  10  11
ATOM     11  C   UNL     1       4.012  -2.613  -1.206  0.00  0.00    -0.028 A 
ATOM     12  C   UNL     1       3.993  -2.160   0.121  0.00  0.00    +0.005 A 
ATOM     13  C   UNL     1       3.675  -1.715  -2.229  0.00  0.00    +0.005 A 
ATOM     14  C   UNL     1       3.669  -0.832   0.413  0.00  0.00    +0.000 A 
ATOM     15  C   UNL     1       3.351  -0.390  -1.934  0.00  0.00    +0.000 A 
ATOM     16  C   UNL     1       3.351   0.051  -0.613  0.00  0.00    +0.000 A 
ENDBRANCH  10  11
ENDBRANCH   1  10
TORSDOF 2
ENDMDL
MODEL 2
REMARK VINA RESULT:    -5.682      1.138      2.064
REMARK INTER + INTRA:          -6.472
REMARK INTER:                  -6.344
REMARK INTRA:                  -0.128
REMARK UNBOUND:                -0.126
REMARK  Name = 1550473
REMARK  2 active torsions:
REMARK  status: ('A' for Active; 'I' for Inactive)
REMARK    1  A    between atoms: N_1  and  C_4
REMARK    2  A    between atoms: C_4  and  C_5
REMARK                            x       y       z     vdW  Elec       q    Type
REMARK                         _______ _______ _______ _____ _____    ______ ____
ROOT
ATOM      1  N   UNL     1       3.561  -3.664  -3.130  0.00  0.00    -0.354 N 
ATOM      2  N   UNL     1       2.580  -5.665  -3.762  0.00  0.00    -0.372 N 
ATOM      3  N   UNL     1       1.234  -3.937  -3.078  0.00  0.00    -0.372 N 
ATOM      4  C   UNL     1       2.462  -4.408  -3.318  0.00  0.00    +0.166 C 
ATOM      5  H   UNL     1       4.465  -4.089  -3.302  0.00  0.00    +0.163 HD
ATOM      6  H   UNL     1       1.769  -6.249  -3.916  0.00  0.00    +0.159 HD
ATOM      7  H   UNL     1       3.482  -6.072  -3.976  0.00  0.00    +0.159 HD
ATOM      8  H   UNL     1       1.078  -2.998  -2.736  0.00  0.00    +0.159 HD
ATOM      9  H   UNL     1       0.411  -4.510  -3.215  0.00  0.00    +0.159 HD
ENDROOT
BRANCH   1  10
ATOM     10  C   UNL     1       3.539  -2.267  -2.702  0.00  0.00    +0.151 C 
BRANCH  10  11
ATOM     11  C   UNL     1       3.780  -2.204  -1.219  0.00  0.00    -0.028 A 
ATOM     12  C   UNL     1       3.322  -1.111  -0.469  0.00  0.00    +0.005 A 
ATOM     13  C   UNL     1       4.461  -3.237  -0.557  0.00  0.00    +0.005 A 
ATOM     14  C   UNL     1       3.519  -1.066   0.913  0.00  0.00    +0.000 A 
ATOM     15  C   UNL     1       4.657  -3.188   0.823  0.00  0.00    +0.000 A 
ATOM     16  C   UNL     1       4.184  -2.104   1.558  0.00  0.00    +0.000 A 
ENDBRANCH  10  11
ENDBRANCH   1  10
TORSDOF 2
ENDMDL
MODEL 3
REMARK VINA RESULT:    -5.614      2.575      3.507
REMARK INTER + INTRA:          -6.397
REMARK INTER:                  -6.257
REMARK INTRA:                  -0.140
REMARK UNBOUND:                -0.126
REMARK  Name = 1550473
REMARK  2 active torsions:
REMARK  status: ('A' for Active; 'I' for Inactive)
REMARK    1  A    between atoms: N_1  and  C_4
REMARK    2  A    between atoms: C_4  and  C_5
REMARK                            x       y       z     vdW  Elec       q    Type
REMARK                         _______ _______ _______ _____ _____    ______ ____
ROOT
ATOM      1  N   UNL     1       3.465  -0.960  -3.116  0.00  0.00    -0.354 N 
ATOM      2  N   UNL     1       3.149  -1.605  -5.318  0.00  0.00    -0.372 N 
ATOM      3  N   UNL     1       1.327  -0.972  -4.075  0.00  0.00    -0.372 N 
ATOM      4  C   UNL     1       2.646  -1.175  -4.154  0.00  0.00    +0.166 C 
ATOM      5  H   UNL     1       4.452  -1.161  -3.232  0.00  0.00    +0.163 HD
ATOM      6  H   UNL     1       2.556  -1.773  -6.120  0.00  0.00    +0.159 HD
ATOM      7  H   UNL     1       4.141  -1.762  -5.444  0.00  0.00    +0.159 HD
ATOM      8  H   UNL     1       0.885  -0.653  -3.223  0.00  0.00    +0.159 HD
ATOM      9  H   UNL     1       0.716  -1.145  -4.863  0.00  0.00    +0.159 HD
ENDROOT
BRANCH   1  10
ATOM     10  C   UNL     1       3.027  -0.440  -1.822  0.00  0.00    +0.151 C 
BRANCH  10  11
ATOM     11  C   UNL     1       3.528  -1.347  -0.733  0.00  0.00    -0.028 A 
ATOM     12  C   UNL     1       4.082  -2.597  -1.045  0.00  0.00    +0.005 A 
ATOM     13  C   UNL     1       3.457  -0.960   0.614  0.00  0.00    +0.005 A 
ATOM     14  C   UNL     1       4.575  -3.427  -0.036  0.00  0.00    +0.000 A 
ATOM     15  C   UNL     1       3.950  -1.792   1.619  0.00  0.00    +0.000 A 
ATOM     16  C   UNL     1       4.511  -3.024   1.294  0.00  0.00    +0.000 A 
ENDBRANCH  10  11
ENDBRANCH   1  10
TORSDOF 2
ENDMDL
MODEL 4
REMARK VINA RESULT:    -5.481      3.961      5.045
REMARK INTER + INTRA:          -6.248
REMARK INTER:                  -6.131
REMARK INTRA:                  -0.117
REMARK UNBOUND:                -0.126
REMARK  Name = 1550473
REMARK  2 active torsions:
REMARK  status: ('A' for Active; 'I' for Inactive)
REMARK    1  A    between atoms: N_1  and  C_4
REMARK    2  A    between atoms: C_4  and  C_5
REMARK                            x       y       z     vdW  Elec       q    Type
REMARK                         _______ _______ _______ _____ _____    ______ ____
ROOT
ATOM      1  N   UNL     1       5.953  -3.954   2.184  0.00  0.00    -0.354 N 
ATOM      2  N   UNL     1       7.880  -5.021   2.899  0.00  0.00    -0.372 N 
ATOM      3  N   UNL     1       6.784  -3.621   4.350  0.00  0.00    -0.372 N 
ATOM      4  C   UNL     1       6.859  -4.190   3.142  0.00  0.00    +0.166 C 
ATOM      5  H   UNL     1       6.084  -4.392   1.279  0.00  0.00    +0.163 HD
ATOM      6  H   UNL     1       8.577  -5.221   3.604  0.00  0.00    +0.159 HD
ATOM      7  H   UNL     1       7.982  -5.494   2.010  0.00  0.00    +0.159 HD
ATOM      8  H   UNL     1       6.041  -2.979   4.594  0.00  0.00    +0.159 HD
ATOM      9  H   UNL     1       7.478  -3.800   5.064  0.00  0.00    +0.159 HD
ENDROOT
BRANCH   1  10
ATOM     10  C   UNL     1       4.775  -3.107   2.363  0.00  0.00    +0.151 C 
BRANCH  10  11
ATOM     11  C   UNL     1       4.353  -2.563   1.027  0.00  0.00    -0.028 A 
ATOM     12  C   UNL     1       4.534  -3.320  -0.140  0.00  0.00    +0.005 A 
ATOM     13  C   UNL     1       3.766  -1.292   0.921  0.00  0.00    +0.005 A 
ATOM     14  C   UNL     1       4.115  -2.827  -1.378  0.00  0.00    +0.000 A 
ATOM     15  C   UNL     1       3.350  -0.803  -0.317  0.00  0.00    +0.000 A 
ATOM     16  C   UNL     1       3.522  -1.572  -1.466  0.00  0.00    +0.000 A 
ENDBRANCH  10  11
ENDBRANCH   1  10
TORSDOF 2
ENDMDL
MODEL 5
REMARK VINA RESULT:    -5.390     28.257     29.633
REMARK INTER + INTRA:          -6.146
REMARK INTER:                  -6.046
REMARK INTRA:                  -0.100
REMARK UNBOUND:                -0.126
REMARK  Name = 1550473
REMARK  2 active torsions:
REMARK  status: ('A' for Active; 'I' for Inactive)
REMARK    1  A    between atoms: N_1  and  C_4
REMARK    2  A    between atoms: C_4  and  C_5
REMARK                            x       y       z     vdW  Elec       q    Type
REMARK                         _______ _______ _______ _____ _____    ______ ____
ROOT
ATOM      1  N   UNL     1       2.951   1.298  28.468  0.00  0.00    -0.354 N 
ATOM      2  N   UNL     1       2.961   2.649  30.348  0.00  0.00    -0.372 N 
ATOM      3  N   UNL     1       0.965   1.794  29.607  0.00  0.00    -0.372 N 
ATOM      4  C   UNL     1       2.289   1.905  29.462  0.00  0.00    +0.166 C 
ATOM      5  H   UNL     1       3.952   1.445  28.395  0.00  0.00    +0.163 HD
ATOM      6  H   UNL     1       2.489   3.116  31.111  0.00  0.00    +0.159 HD
ATOM      7  H   UNL     1       3.966   2.758  30.300  0.00  0.00    +0.159 HD
ATOM      8  H   UNL     1       0.399   1.252  28.968  0.00  0.00    +0.159 HD
ATOM      9  H   UNL     1       0.473   2.264  30.357  0.00  0.00    +0.159 HD
ENDROOT
BRANCH   1  10
ATOM     10  C   UNL     1       2.322   0.421  27.482  0.00  0.00    +0.151 C 
BRANCH  10  11
ATOM     11  C   UNL     1       3.392  -0.327  26.735  0.00  0.00    -0.028 A 
ATOM     12  C   UNL     1       3.384  -1.729  26.694  0.00  0.00    +0.005 A 
ATOM     13  C   UNL     1       4.414   0.361  26.062  0.00  0.00    +0.005 A 
ATOM     14  C   UNL     1       4.360  -2.423  25.976  0.00  0.00    +0.000 A 
ATOM     15  C   UNL     1       5.387  -0.336  25.347  0.00  0.00    +0.000 A 
ATOM     16  C   UNL     1       5.359  -1.728  25.302  0.00  0.00    +0.000 A 
ENDBRANCH  10  11
ENDBRANCH   1  10
TORSDOF 2
ENDMDL
MODEL 6
REMARK VINA RESULT:    -5.136      1.304      2.021
REMARK INTER + INTRA:          -5.863
REMARK INTER:                  -5.719
REMARK INTRA:                  -0.144
REMARK UNBOUND:                -0.126
REMARK  Name = 1550473
REMARK  2 active torsions:
REMARK  status: ('A' for Active; 'I' for Inactive)
REMARK    1  A    between atoms: N_1  and  C_4
REMARK    2  A    between atoms: C_4  and  C_5
REMARK                            x       y       z     vdW  Elec       q    Type
REMARK                         _______ _______ _______ _____ _____    ______ ____
ROOT
ATOM      1  N   UNL     1       1.680  -3.657  -2.792  0.00  0.00    -0.354 N 
ATOM      2  N   UNL     1       1.635  -4.411  -4.981  0.00  0.00    -0.372 N 
ATOM      3  N   UNL     1       2.898  -5.550  -3.441  0.00  0.00    -0.372 N 
ATOM      4  C   UNL     1       2.073  -4.536  -3.722  0.00  0.00    +0.166 C 
ATOM      5  H   UNL     1       1.078  -2.892  -3.075  0.00  0.00    +0.163 HD
ATOM      6  H   UNL     1       1.912  -5.061  -5.704  0.00  0.00    +0.159 HD
ATOM      7  H   UNL     1       0.996  -3.673  -5.252  0.00  0.00    +0.159 HD
ATOM      8  H   UNL     1       3.269  -5.697  -2.512  0.00  0.00    +0.159 HD
ATOM      9  H   UNL     1       3.196  -6.205  -4.154  0.00  0.00    +0.159 HD
ENDROOT
BRANCH   1  10
ATOM     10  C   UNL     1       2.057  -3.735  -1.381  0.00  0.00    +0.151 C 
BRANCH  10  11
ATOM     11  C   UNL     1       2.619  -2.410  -0.948  0.00  0.00    -0.028 A 
ATOM     12  C   UNL     1       2.729  -1.350  -1.861  0.00  0.00    +0.005 A 
ATOM     13  C   UNL     1       3.039  -2.205   0.375  0.00  0.00    +0.005 A 
ATOM     14  C   UNL     1       3.223  -0.110  -1.452  0.00  0.00    +0.000 A 
ATOM     15  C   UNL     1       3.533  -0.964   0.779  0.00  0.00    +0.000 A 
ATOM     16  C   UNL     1       3.623   0.083  -0.134  0.00  0.00    +0.000 A 
ENDBRANCH  10  11
ENDBRANCH   1  10
TORSDOF 2
ENDMDL
MODEL 7
REMARK VINA RESULT:    -5.132      3.440      4.419
REMARK INTER + INTRA:          -5.858
REMARK INTER:                  -5.740
REMARK INTRA:                  -0.119
REMARK UNBOUND:                -0.126
REMARK  Name = 1550473
REMARK  2 active torsions:
REMARK  status: ('A' for Active; 'I' for Inactive)
REMARK    1  A    between atoms: N_1  and  C_4
REMARK    2  A    between atoms: C_4  and  C_5
REMARK                            x       y       z     vdW  Elec       q    Type
REMARK                         _______ _______ _______ _____ _____    ______ ____
ROOT
ATOM      1  N   UNL     1       3.893  -4.627   2.609  0.00  0.00    -0.354 N 
ATOM      2  N   UNL     1       3.270  -6.742   3.319  0.00  0.00    -0.372 N 
ATOM      3  N   UNL     1       5.501  -6.212   3.239  0.00  0.00    -0.372 N 
ATOM      4  C   UNL     1       4.228  -5.847   3.051  0.00  0.00    +0.166 C 
ATOM      5  H   UNL     1       2.912  -4.423   2.458  0.00  0.00    +0.163 HD
ATOM      6  H   UNL     1       3.492  -7.669   3.657  0.00  0.00    +0.159 HD
ATOM      7  H   UNL     1       2.288  -6.519   3.211  0.00  0.00    +0.159 HD
ATOM      8  H   UNL     1       6.271  -5.585   3.050  0.00  0.00    +0.159 HD
ATOM      9  H   UNL     1       5.744  -7.139   3.566  0.00  0.00    +0.159 HD
ENDROOT
BRANCH   1  10
ATOM     10  C   UNL     1       4.858  -3.562   2.339  0.00  0.00    +0.151 C 
BRANCH  10  11
ATOM     11  C   UNL     1       4.409  -2.789   1.130  0.00  0.00    -0.028 A 
ATOM     12  C   UNL     1       4.465  -3.368  -0.147  0.00  0.00    +0.005 A 
ATOM     13  C   UNL     1       3.922  -1.479   1.254  0.00  0.00    +0.005 A 
ATOM     14  C   UNL     1       4.021  -2.661  -1.267  0.00  0.00    +0.000 A 
ATOM     15  C   UNL     1       3.480  -0.776   0.133  0.00  0.00    +0.000 A 
ATOM     16  C   UNL     1       3.528  -1.368  -1.126  0.00  0.00    +0.000 A 
ENDBRANCH  10  11
ENDBRANCH   1  10
TORSDOF 2
ENDMDL
MODEL 8
REMARK VINA RESULT:    -5.092      3.015      3.762
REMARK INTER + INTRA:          -5.813
REMARK INTER:                  -5.687
REMARK INTRA:                  -0.127
REMARK UNBOUND:                -0.126
REMARK  Name = 1550473
REMARK  2 active torsions:
REMARK  status: ('A' for Active; 'I' for Inactive)
REMARK    1  A    between atoms: N_1  and  C_4
REMARK    2  A    between atoms: C_4  and  C_5
REMARK                            x       y       z     vdW  Elec       q    Type
REMARK                         _______ _______ _______ _____ _____    ______ ____
ROOT
ATOM      1  N   UNL     1       3.616  -3.559   2.229  0.00  0.00    -0.354 N 
ATOM      2  N   UNL     1       2.269  -4.991   3.453  0.00  0.00    -0.372 N 
ATOM      3  N   UNL     1       3.862  -5.884   2.064  0.00  0.00    -0.372 N 
ATOM      4  C   UNL     1       3.259  -4.804   2.572  0.00  0.00    +0.166 C 
ATOM      5  H   UNL     1       3.100  -2.783   2.627  0.00  0.00    +0.163 HD
ATOM      6  H   UNL     1       1.980  -5.919   3.734  0.00  0.00    +0.159 HD
ATOM      7  H   UNL     1       1.785  -4.213   3.885  0.00  0.00    +0.159 HD
ATOM      8  H   UNL     1       4.612  -5.811   1.390  0.00  0.00    +0.159 HD
ATOM      9  H   UNL     1       3.579  -6.821   2.324  0.00  0.00    +0.159 HD
ENDROOT
BRANCH   1  10
ATOM     10  C   UNL     1       4.717  -3.246   1.320  0.00  0.00    +0.151 C 
BRANCH  10  11
ATOM     11  C   UNL     1       4.206  -2.360   0.217  0.00  0.00    -0.028 A 
ATOM     12  C   UNL     1       3.800  -1.046   0.490  0.00  0.00    +0.005 A 
ATOM     13  C   UNL     1       4.131  -2.828  -1.104  0.00  0.00    +0.005 A 
ATOM     14  C   UNL     1       3.354  -0.213  -0.540  0.00  0.00    +0.000 A 
ATOM     15  C   UNL     1       3.684  -1.994  -2.129  0.00  0.00    +0.000 A 
ATOM     16  C   UNL     1       3.298  -0.686  -1.846  0.00  0.00    +0.000 A 
ENDBRANCH  10  11
ENDBRANCH   1  10
TORSDOF 2
ENDMDL
MODEL 9
REMARK VINA RESULT:    -5.039      2.758      5.819
REMARK INTER + INTRA:          -5.755
REMARK INTER:                  -5.630
REMARK INTRA:                  -0.125
REMARK UNBOUND:                -0.126
REMARK  Name = 1550473
REMARK  2 active torsions:
REMARK  status: ('A' for Active; 'I' for Inactive)
REMARK    1  A    between atoms: N_1  and  C_4
REMARK    2  A    between atoms: C_4  and  C_5
REMARK                            x       y       z     vdW  Elec       q    Type
REMARK                         _______ _______ _______ _____ _____    ______ ____
ROOT
ATOM      1  N   UNL     1       2.301  -4.030  -2.755  0.00  0.00    -0.354 N 
ATOM      2  N   UNL     1       3.886  -2.468  -3.397  0.00  0.00    -0.372 N 
ATOM      3  N   UNL     1       2.882  -2.250  -1.345  0.00  0.00    -0.372 N 
ATOM      4  C   UNL     1       3.012  -2.925  -2.492  0.00  0.00    +0.166 C 
ATOM      5  H   UNL     1       2.424  -4.478  -3.656  0.00  0.00    +0.163 HD
ATOM      6  H   UNL     1       4.439  -1.639  -3.225  0.00  0.00    +0.159 HD
ATOM      7  H   UNL     1       4.041  -2.944  -4.277  0.00  0.00    +0.159 HD
ATOM      8  H   UNL     1       2.235  -2.540  -0.624  0.00  0.00    +0.159 HD
ATOM      9  H   UNL     1       3.418  -1.412  -1.159  0.00  0.00    +0.159 HD
ENDROOT
BRANCH   1  10
ATOM     10  C   UNL     1       1.362  -4.641  -1.816  0.00  0.00    +0.151 C 
BRANCH  10  11
ATOM     11  C   UNL     1       1.055  -6.041  -2.270  0.00  0.00    -0.028 A 
ATOM     12  C   UNL     1       1.819  -6.646  -3.279  0.00  0.00    +0.005 A 
ATOM     13  C   UNL     1       0.004  -6.770  -1.692  0.00  0.00    +0.005 A 
ATOM     14  C   UNL     1       1.552  -7.958  -3.680  0.00  0.00    +0.000 A 
ATOM     15  C   UNL     1      -0.259  -8.079  -2.096  0.00  0.00    +0.000 A 
ATOM     16  C   UNL     1       0.517  -8.673  -3.088  0.00  0.00    +0.000 A 
ENDBRANCH  10  11
ENDBRANCH   1  10
TORSDOF 2
ENDMDL
