MODEL 1
REMARK VINA RESULT:    -5.195      0.000      0.000
REMARK INTER + INTRA:          -5.931
REMARK INTER:                  -5.803
REMARK INTRA:                  -0.128
REMARK UNBOUND:                -0.128
REMARK  Name = 1550473
REMARK  2 active torsions:
REMARK  status: ('A' for Active; 'I' for Inactive)
REMARK    1  A    between atoms: N_1  and  C_4
REMARK    2  A    between atoms: C_4  and  C_5
REMARK                            x       y       z     vdW  Elec       q    Type
REMARK                         _______ _______ _______ _____ _____    ______ ____
ROOT
ATOM      1  N   UNL     1       6.212  -7.587  15.639  0.00  0.00    -0.354 N 
ATOM      2  N   UNL     1       6.121  -6.071  17.388  0.00  0.00    -0.372 N 
ATOM      3  N   UNL     1       7.732  -5.808  15.775  0.00  0.00    -0.372 N 
ATOM      4  C   UNL     1       6.691  -6.498  16.255  0.00  0.00    +0.166 C 
ATOM      5  H   UNL     1       5.440  -8.083  16.070  0.00  0.00    +0.163 HD
ATOM      6  H   UNL     1       6.459  -5.250  17.873  0.00  0.00    +0.159 HD
ATOM      7  H   UNL     1       5.321  -6.542  17.792  0.00  0.00    +0.159 HD
ATOM      8  H   UNL     1       8.210  -6.082  14.927  0.00  0.00    +0.159 HD
ATOM      9  H   UNL     1       8.092  -4.991  16.252  0.00  0.00    +0.159 HD
ENDROOT
BRANCH   1  10
ATOM     10  C   UNL     1       6.727  -8.103  14.372  0.00  0.00    +0.151 C 
BRANCH  10  11
ATOM     11  C   UNL     1       5.966  -7.472  13.239  0.00  0.00    -0.028 A 
ATOM     12  C   UNL     1       4.684  -7.928  12.900  0.00  0.00    +0.005 A 
ATOM     13  C   UNL     1       6.519  -6.412  12.504  0.00  0.00    +0.005 A 
ATOM     14  C   UNL     1       3.965  -7.322  11.868  0.00  0.00    +0.000 A 
ATOM     15  C   UNL     1       5.798  -5.810  11.473  0.00  0.00    +0.000 A 
ATOM     16  C   UNL     1       4.520  -6.264  11.157  0.00  0.00    +0.000 A 
ENDBRANCH  10  11
ENDBRANCH   1  10
TORSDOF 2
ENDMDL
MODEL 2
REMARK VINA RESULT:    -5.109     33.095     34.544
REMARK INTER + INTRA:          -5.834
REMARK INTER:                  -5.698
REMARK INTRA:                  -0.136
REMARK UNBOUND:                -0.128
REMARK  Name = 1550473
REMARK  2 active torsions:
REMARK  status: ('A' for Active; 'I' for Inactive)
REMARK    1  A    between atoms: N_1  and  C_4
REMARK    2  A    between atoms: C_4  and  C_5
REMARK                            x       y       z     vdW  Elec       q    Type
REMARK                         _______ _______ _______ _____ _____    ______ ____
ROOT
ATOM      1  N   UNL     1       4.378  -5.663 -19.251  0.00  0.00    -0.354 N 
ATOM      2  N   UNL     1       3.325  -7.535 -20.118  0.00  0.00    -0.372 N 
ATOM      3  N   UNL     1       2.181  -5.547 -20.057  0.00  0.00    -0.372 N 
ATOM      4  C   UNL     1       3.300  -6.234 -19.803  0.00  0.00    +0.166 C 
ATOM      5  H   UNL     1       5.185  -6.245 -19.056  0.00  0.00    +0.163 HD
ATOM      6  H   UNL     1       2.528  -7.992 -20.538  0.00  0.00    +0.159 HD
ATOM      7  H   UNL     1       4.149  -8.104 -19.964  0.00  0.00    +0.159 HD
ATOM      8  H   UNL     1       2.095  -4.563 -19.838  0.00  0.00    +0.159 HD
ATOM      9  H   UNL     1       1.368  -5.990 -20.467  0.00  0.00    +0.159 HD
ENDROOT
BRANCH   1  10
ATOM     10  C   UNL     1       4.472  -4.242 -18.921  0.00  0.00    +0.151 C 
BRANCH  10  11
ATOM     11  C   UNL     1       5.266  -3.540 -19.989  0.00  0.00    -0.028 A 
ATOM     12  C   UNL     1       6.612  -3.211 -19.775  0.00  0.00    +0.005 A 
ATOM     13  C   UNL     1       4.678  -3.207 -21.219  0.00  0.00    +0.005 A 
ATOM     14  C   UNL     1       7.358  -2.587 -20.778  0.00  0.00    +0.000 A 
ATOM     15  C   UNL     1       5.426  -2.583 -22.217  0.00  0.00    +0.000 A 
ATOM     16  C   UNL     1       6.766  -2.275 -21.997  0.00  0.00    +0.000 A 
ENDBRANCH  10  11
ENDBRANCH   1  10
TORSDOF 2
ENDMDL
MODEL 3
REMARK VINA RESULT:    -5.058     33.380     34.559
REMARK INTER + INTRA:          -5.777
REMARK INTER:                  -5.656
REMARK INTRA:                  -0.121
REMARK UNBOUND:                -0.128
REMARK  Name = 1550473
REMARK  2 active torsions:
REMARK  status: ('A' for Active; 'I' for Inactive)
REMARK    1  A    between atoms: N_1  and  C_4
REMARK    2  A    between atoms: C_4  and  C_5
REMARK                            x       y       z     vdW  Elec       q    Type
REMARK                         _______ _______ _______ _____ _____    ______ ____
ROOT
ATOM      1  N   UNL     1       4.710  26.498  22.723  0.00  0.00    -0.354 N 
ATOM      2  N   UNL     1       2.451  26.790  23.143  0.00  0.00    -0.372 N 
ATOM      3  N   UNL     1       3.184  24.752  22.385  0.00  0.00    -0.372 N 
ATOM      4  C   UNL     1       3.463  26.009  22.746  0.00  0.00    +0.166 C 
ATOM      5  H   UNL     1       4.851  27.468  22.980  0.00  0.00    +0.163 HD
ATOM      6  H   UNL     1       1.500  26.447  23.174  0.00  0.00    +0.159 HD
ATOM      7  H   UNL     1       2.601  27.745  23.443  0.00  0.00    +0.159 HD
ATOM      8  H   UNL     1       3.902  24.113  22.070  0.00  0.00    +0.159 HD
ATOM      9  H   UNL     1       2.237  24.394  22.399  0.00  0.00    +0.159 HD
ENDROOT
BRANCH   1  10
ATOM     10  C   UNL     1       5.889  25.715  22.359  0.00  0.00    +0.151 C 
BRANCH  10  11
ATOM     11  C   UNL     1       6.935  25.875  23.428  0.00  0.00    -0.028 A 
ATOM     12  C   UNL     1       7.636  27.082  23.562  0.00  0.00    +0.005 A 
ATOM     13  C   UNL     1       7.225  24.826  24.313  0.00  0.00    +0.005 A 
ATOM     14  C   UNL     1       8.586  27.242  24.574  0.00  0.00    +0.000 A 
ATOM     15  C   UNL     1       8.175  24.989  25.321  0.00  0.00    +0.000 A 
ATOM     16  C   UNL     1       8.853  26.198  25.453  0.00  0.00    +0.000 A 
ENDBRANCH  10  11
ENDBRANCH   1  10
TORSDOF 2
ENDMDL
MODEL 4
REMARK VINA RESULT:    -5.030     32.600     33.906
REMARK INTER + INTRA:          -5.746
REMARK INTER:                  -5.625
REMARK INTRA:                  -0.122
REMARK UNBOUND:                -0.128
REMARK  Name = 1550473
REMARK  2 active torsions:
REMARK  status: ('A' for Active; 'I' for Inactive)
REMARK    1  A    between atoms: N_1  and  C_4
REMARK    2  A    between atoms: C_4  and  C_5
REMARK                            x       y       z     vdW  Elec       q    Type
REMARK                         _______ _______ _______ _____ _____    ______ ____
ROOT
ATOM      1  N   UNL     1       5.139  24.911  22.395  0.00  0.00    -0.354 N 
ATOM      2  N   UNL     1       3.583  24.969  20.680  0.00  0.00    -0.372 N 
ATOM      3  N   UNL     1       3.278  23.488  22.406  0.00  0.00    -0.372 N 
ATOM      4  C   UNL     1       4.009  24.453  21.840  0.00  0.00    +0.166 C 
ATOM      5  H   UNL     1       5.664  25.623  21.900  0.00  0.00    +0.163 HD
ATOM      6  H   UNL     1       2.732  24.646  20.239  0.00  0.00    +0.159 HD
ATOM      7  H   UNL     1       4.085  25.713  20.211  0.00  0.00    +0.159 HD
ATOM      8  H   UNL     1       3.548  23.053  23.278  0.00  0.00    +0.159 HD
ATOM      9  H   UNL     1       2.429  23.143  21.974  0.00  0.00    +0.159 HD
ENDROOT
BRANCH   1  10
ATOM     10  C   UNL     1       5.661  24.455  23.681  0.00  0.00    +0.151 C 
BRANCH  10  11
ATOM     11  C   UNL     1       6.827  25.320  24.073  0.00  0.00    -0.028 A 
ATOM     12  C   UNL     1       7.749  24.880  25.034  0.00  0.00    +0.005 A 
ATOM     13  C   UNL     1       7.018  26.579  23.483  0.00  0.00    +0.005 A 
ATOM     14  C   UNL     1       8.849  25.671  25.376  0.00  0.00    +0.000 A 
ATOM     15  C   UNL     1       8.117  27.366  23.828  0.00  0.00    +0.000 A 
ATOM     16  C   UNL     1       9.033  26.911  24.773  0.00  0.00    +0.000 A 
ENDBRANCH  10  11
ENDBRANCH   1  10
TORSDOF 2
ENDMDL
MODEL 5
REMARK VINA RESULT:    -5.018     14.004     14.900
REMARK INTER + INTRA:          -5.732
REMARK INTER:                  -5.642
REMARK INTRA:                  -0.091
REMARK UNBOUND:                -0.128
REMARK  Name = 1550473
REMARK  2 active torsions:
REMARK  status: ('A' for Active; 'I' for Inactive)
REMARK    1  A    between atoms: N_1  and  C_4
REMARK    2  A    between atoms: C_4  and  C_5
REMARK                            x       y       z     vdW  Elec       q    Type
REMARK                         _______ _______ _______ _____ _____    ______ ____
ROOT
ATOM      1  N   UNL     1      -5.436  -0.729  18.023  0.00  0.00    -0.354 N 
ATOM      2  N   UNL     1      -4.306   0.964  16.918  0.00  0.00    -0.372 N 
ATOM      3  N   UNL     1      -5.518  -0.547  15.688  0.00  0.00    -0.372 N 
ATOM      4  C   UNL     1      -5.095  -0.116  16.881  0.00  0.00    +0.166 C 
ATOM      5  H   UNL     1      -5.058  -0.371  18.893  0.00  0.00    +0.163 HD
ATOM      6  H   UNL     1      -4.035   1.449  16.073  0.00  0.00    +0.159 HD
ATOM      7  H   UNL     1      -3.967   1.347  17.792  0.00  0.00    +0.159 HD
ATOM      8  H   UNL     1      -6.111  -1.360  15.591  0.00  0.00    +0.159 HD
ATOM      9  H   UNL     1      -5.248  -0.081  14.830  0.00  0.00    +0.159 HD
ENDROOT
BRANCH   1  10
ATOM     10  C   UNL     1      -6.334  -1.880  18.096  0.00  0.00    +0.151 C 
BRANCH  10  11
ATOM     11  C   UNL     1      -6.637  -2.175  19.539  0.00  0.00    -0.028 A 
ATOM     12  C   UNL     1      -7.746  -1.590  20.168  0.00  0.00    +0.005 A 
ATOM     13  C   UNL     1      -5.822  -3.043  20.283  0.00  0.00    +0.005 A 
ATOM     14  C   UNL     1      -8.046  -1.887  21.500  0.00  0.00    +0.000 A 
ATOM     15  C   UNL     1      -6.124  -3.337  21.612  0.00  0.00    +0.000 A 
ATOM     16  C   UNL     1      -7.237  -2.760  22.220  0.00  0.00    +0.000 A 
ENDBRANCH  10  11
ENDBRANCH   1  10
TORSDOF 2
ENDMDL
MODEL 6
REMARK VINA RESULT:    -4.938     34.073     34.684
REMARK INTER + INTRA:          -5.643
REMARK INTER:                  -5.521
REMARK INTRA:                  -0.122
REMARK UNBOUND:                -0.128
REMARK  Name = 1550473
REMARK  2 active torsions:
REMARK  status: ('A' for Active; 'I' for Inactive)
REMARK    1  A    between atoms: N_1  and  C_4
REMARK    2  A    between atoms: C_4  and  C_5
REMARK                            x       y       z     vdW  Elec       q    Type
REMARK                         _______ _______ _______ _____ _____    ______ ____
ROOT
ATOM      1  N   UNL     1       2.878  27.133  22.424  0.00  0.00    -0.354 N 
ATOM      2  N   UNL     1       0.639  27.497  22.890  0.00  0.00    -0.372 N 
ATOM      3  N   UNL     1       1.246  25.573  21.797  0.00  0.00    -0.372 N 
ATOM      4  C   UNL     1       1.602  26.729  22.366  0.00  0.00    +0.166 C 
ATOM      5  H   UNL     1       3.079  28.034  22.842  0.00  0.00    +0.163 HD
ATOM      6  H   UNL     1      -0.333  27.217  22.864  0.00  0.00    +0.159 HD
ATOM      7  H   UNL     1       0.848  28.375  23.348  0.00  0.00    +0.159 HD
ATOM      8  H   UNL     1       1.924  24.951  21.377  0.00  0.00    +0.159 HD
ATOM      9  H   UNL     1       0.277  25.281  21.750  0.00  0.00    +0.159 HD
ENDROOT
BRANCH   1  10
ATOM     10  C   UNL     1       4.008  26.347  21.931  0.00  0.00    +0.151 C 
BRANCH  10  11
ATOM     11  C   UNL     1       4.962  26.093  23.065  0.00  0.00    -0.028 A 
ATOM     12  C   UNL     1       4.488  25.961  24.379  0.00  0.00    +0.005 A 
ATOM     13  C   UNL     1       6.341  25.978  22.832  0.00  0.00    +0.005 A 
ATOM     14  C   UNL     1       5.371  25.696  25.428  0.00  0.00    +0.000 A 
ATOM     15  C   UNL     1       7.219  25.714  23.883  0.00  0.00    +0.000 A 
ATOM     16  C   UNL     1       6.734  25.571  25.180  0.00  0.00    +0.000 A 
ENDBRANCH  10  11
ENDBRANCH   1  10
TORSDOF 2
ENDMDL
MODEL 7
REMARK VINA RESULT:    -4.874     31.982     33.174
REMARK INTER + INTRA:          -5.571
REMARK INTER:                  -5.405
REMARK INTRA:                  -0.167
REMARK UNBOUND:                -0.128
REMARK  Name = 1550473
REMARK  2 active torsions:
REMARK  status: ('A' for Active; 'I' for Inactive)
REMARK    1  A    between atoms: N_1  and  C_4
REMARK    2  A    between atoms: C_4  and  C_5
REMARK                            x       y       z     vdW  Elec       q    Type
REMARK                         _______ _______ _______ _____ _____    ______ ____
ROOT
ATOM      1  N   UNL     1       4.684  -4.611 -19.837  0.00  0.00    -0.354 N 
ATOM      2  N   UNL     1       4.290  -6.864 -19.468  0.00  0.00    -0.372 N 
ATOM      3  N   UNL     1       2.534  -5.515 -20.072  0.00  0.00    -0.372 N 
ATOM      4  C   UNL     1       3.836  -5.648 -19.795  0.00  0.00    +0.166 C 
ATOM      5  H   UNL     1       5.653  -4.772 -19.587  0.00  0.00    +0.163 HD
ATOM      6  H   UNL     1       3.674  -7.665 -19.432  0.00  0.00    +0.159 HD
ATOM      7  H   UNL     1       5.267  -7.030 -19.263  0.00  0.00    +0.159 HD
ATOM      8  H   UNL     1       2.128  -4.623 -20.320  0.00  0.00    +0.159 HD
ATOM      9  H   UNL     1       1.900  -6.303 -20.030  0.00  0.00    +0.159 HD
ENDROOT
BRANCH   1  10
ATOM     10  C   UNL     1       4.302  -3.257 -20.233  0.00  0.00    +0.151 C 
BRANCH  10  11
ATOM     11  C   UNL     1       3.952  -2.465 -19.004  0.00  0.00    -0.028 A 
ATOM     12  C   UNL     1       4.899  -2.276 -17.986  0.00  0.00    +0.005 A 
ATOM     13  C   UNL     1       2.678  -1.896 -18.853  0.00  0.00    +0.005 A 
ATOM     14  C   UNL     1       4.585  -1.516 -16.857  0.00  0.00    +0.000 A 
ATOM     15  C   UNL     1       2.368  -1.138 -17.724  0.00  0.00    +0.000 A 
ATOM     16  C   UNL     1       3.323  -0.946 -16.728  0.00  0.00    +0.000 A 
ENDBRANCH  10  11
ENDBRANCH   1  10
TORSDOF 2
ENDMDL
MODEL 8
REMARK VINA RESULT:    -4.835     31.181     32.320
REMARK INTER + INTRA:          -5.528
REMARK INTER:                  -5.409
REMARK INTRA:                  -0.119
REMARK UNBOUND:                -0.128
REMARK  Name = 1550473
REMARK  2 active torsions:
REMARK  status: ('A' for Active; 'I' for Inactive)
REMARK    1  A    between atoms: N_1  and  C_4
REMARK    2  A    between atoms: C_4  and  C_5
REMARK                            x       y       z     vdW  Elec       q    Type
REMARK                         _______ _______ _______ _____ _____    ______ ____
ROOT
ATOM      1  N   UNL     1       1.152  23.106  21.790  0.00  0.00    -0.354 N 
ATOM      2  N   UNL     1      -0.394  21.388  21.933  0.00  0.00    -0.372 N 
ATOM      3  N   UNL     1      -1.078  23.535  22.368  0.00  0.00    -0.372 N 
ATOM      4  C   UNL     1      -0.098  22.690  22.030  0.00  0.00    +0.166 C 
ATOM      5  H   UNL     1       1.857  22.412  21.568  0.00  0.00    +0.163 HD
ATOM      6  H   UNL     1      -1.329  21.045  22.105  0.00  0.00    +0.159 HD
ATOM      7  H   UNL     1       0.301  20.702  21.666  0.00  0.00    +0.159 HD
ATOM      8  H   UNL     1      -0.919  24.529  22.464  0.00  0.00    +0.159 HD
ATOM      9  H   UNL     1      -2.018  23.209  22.556  0.00  0.00    +0.159 HD
ENDROOT
BRANCH   1  10
ATOM     10  C   UNL     1       1.567  24.508  21.817  0.00  0.00    +0.151 C 
BRANCH  10  11
ATOM     11  C   UNL     1       3.055  24.577  22.021  0.00  0.00    -0.028 A 
ATOM     12  C   UNL     1       3.826  25.520  21.326  0.00  0.00    +0.005 A 
ATOM     13  C   UNL     1       3.699  23.705  22.913  0.00  0.00    +0.005 A 
ATOM     14  C   UNL     1       5.205  25.604  21.538  0.00  0.00    +0.000 A 
ATOM     15  C   UNL     1       5.076  23.792  23.121  0.00  0.00    +0.000 A 
ATOM     16  C   UNL     1       5.827  24.743  22.435  0.00  0.00    +0.000 A 
ENDBRANCH  10  11
ENDBRANCH   1  10
TORSDOF 2
ENDMDL
MODEL 9
REMARK VINA RESULT:    -4.757     32.464     33.573
REMARK INTER + INTRA:          -5.441
REMARK INTER:                  -5.275
REMARK INTRA:                  -0.166
REMARK UNBOUND:                -0.128
REMARK  Name = 1550473
REMARK  2 active torsions:
REMARK  status: ('A' for Active; 'I' for Inactive)
REMARK    1  A    between atoms: N_1  and  C_4
REMARK    2  A    between atoms: C_4  and  C_5
REMARK                            x       y       z     vdW  Elec       q    Type
REMARK                         _______ _______ _______ _____ _____    ______ ____
ROOT
ATOM      1  N   UNL     1       3.146  24.442  21.734  0.00  0.00    -0.354 N 
ATOM      2  N   UNL     1       1.065  23.426  21.718  0.00  0.00    -0.372 N 
ATOM      3  N   UNL     1       1.196  25.679  22.133  0.00  0.00    -0.372 N 
ATOM      4  C   UNL     1       1.815  24.525  21.863  0.00  0.00    +0.166 C 
ATOM      5  H   UNL     1       3.557  23.532  21.558  0.00  0.00    +0.163 HD
ATOM      6  H   UNL     1       0.058  23.459  21.807  0.00  0.00    +0.159 HD
ATOM      7  H   UNL     1       1.474  22.526  21.498  0.00  0.00    +0.159 HD
ATOM      8  H   UNL     1       1.706  26.543  22.260  0.00  0.00    +0.159 HD
ATOM      9  H   UNL     1       0.191  25.730  22.237  0.00  0.00    +0.159 HD
ENDROOT
BRANCH   1  10
ATOM     10  C   UNL     1       4.049  25.588  21.819  0.00  0.00    +0.151 C 
BRANCH  10  11
ATOM     11  C   UNL     1       4.915  25.442  23.039  0.00  0.00    -0.028 A 
ATOM     12  C   UNL     1       6.267  25.089  22.914  0.00  0.00    +0.005 A 
ATOM     13  C   UNL     1       4.392  25.659  24.323  0.00  0.00    +0.005 A 
ATOM     14  C   UNL     1       7.080  24.982  24.045  0.00  0.00    +0.000 A 
ATOM     15  C   UNL     1       5.207  25.551  25.450  0.00  0.00    +0.000 A 
ATOM     16  C   UNL     1       6.551  25.214  25.311  0.00  0.00    +0.000 A 
ENDBRANCH  10  11
ENDBRANCH   1  10
TORSDOF 2
ENDMDL
