MODEL 1
REMARK VINA RESULT:    -5.822      0.000      0.000
REMARK INTER + INTRA:          -6.649
REMARK INTER:                  -6.503
REMARK INTRA:                  -0.146
REMARK UNBOUND:                -0.146
REMARK  Name = 1550473
REMARK  2 active torsions:
REMARK  status: ('A' for Active; 'I' for Inactive)
REMARK    1  A    between atoms: N_1  and  C_4
REMARK    2  A    between atoms: C_4  and  C_5
REMARK                            x       y       z     vdW  Elec       q    Type
REMARK                         _______ _______ _______ _____ _____    ______ ____
ROOT
ATOM      1  N   UNL     1       0.646  15.511  14.423  0.00  0.00    -0.354 N 
ATOM      2  N   UNL     1      -0.796  17.232  14.991  0.00  0.00    -0.372 N 
ATOM      3  N   UNL     1       0.309  16.114  16.662  0.00  0.00    -0.372 N 
ATOM      4  C   UNL     1       0.063  16.274  15.357  0.00  0.00    +0.166 C 
ATOM      5  H   UNL     1       0.394  15.662  13.453  0.00  0.00    +0.163 HD
ATOM      6  H   UNL     1      -1.248  17.826  15.673  0.00  0.00    +0.159 HD
ATOM      7  H   UNL     1      -1.010  17.412  14.017  0.00  0.00    +0.159 HD
ATOM      8  H   UNL     1       0.943  15.405  17.005  0.00  0.00    +0.159 HD
ATOM      9  H   UNL     1      -0.142  16.691  17.361  0.00  0.00    +0.159 HD
ENDROOT
BRANCH   1  10
ATOM     10  C   UNL     1       1.636  14.476  14.713  0.00  0.00    +0.151 C 
BRANCH  10  11
ATOM     11  C   UNL     1       1.062  13.133  14.355  0.00  0.00    -0.028 A 
ATOM     12  C   UNL     1      -0.090  12.657  14.998  0.00  0.00    +0.005 A 
ATOM     13  C   UNL     1       1.663  12.333  13.371  0.00  0.00    +0.005 A 
ATOM     14  C   UNL     1      -0.641  11.423  14.645  0.00  0.00    +0.000 A 
ATOM     15  C   UNL     1       1.110  11.101  13.022  0.00  0.00    +0.000 A 
ATOM     16  C   UNL     1      -0.043  10.647  13.658  0.00  0.00    +0.000 A 
ENDBRANCH  10  11
ENDBRANCH   1  10
TORSDOF 2
ENDMDL
MODEL 2
REMARK VINA RESULT:    -5.202      3.400      4.879
REMARK INTER + INTRA:          -5.956
REMARK INTER:                  -5.824
REMARK INTRA:                  -0.132
REMARK UNBOUND:                -0.146
REMARK  Name = 1550473
REMARK  2 active torsions:
REMARK  status: ('A' for Active; 'I' for Inactive)
REMARK    1  A    between atoms: N_1  and  C_4
REMARK    2  A    between atoms: C_4  and  C_5
REMARK                            x       y       z     vdW  Elec       q    Type
REMARK                         _______ _______ _______ _____ _____    ______ ____
ROOT
ATOM      1  N   UNL     1       2.130  11.682  12.169  0.00  0.00    -0.354 N 
ATOM      2  N   UNL     1       3.107  12.404  10.197  0.00  0.00    -0.372 N 
ATOM      3  N   UNL     1       1.043  11.405  10.112  0.00  0.00    -0.372 N 
ATOM      4  C   UNL     1       2.084  11.824  10.838  0.00  0.00    +0.166 C 
ATOM      5  H   UNL     1       2.962  11.994  12.658  0.00  0.00    +0.163 HD
ATOM      6  H   UNL     1       3.099  12.528   9.193  0.00  0.00    +0.159 HD
ATOM      7  H   UNL     1       3.916  12.756  10.693  0.00  0.00    +0.159 HD
ATOM      8  H   UNL     1       0.242  10.954  10.535  0.00  0.00    +0.159 HD
ATOM      9  H   UNL     1       1.022  11.510   9.105  0.00  0.00    +0.159 HD
ENDROOT
BRANCH   1  10
ATOM     10  C   UNL     1       1.046  11.113  12.969  0.00  0.00    +0.151 C 
BRANCH  10  11
ATOM     11  C   UNL     1       0.785  12.008  14.149  0.00  0.00    -0.028 A 
ATOM     12  C   UNL     1       1.825  12.758  14.717  0.00  0.00    +0.005 A 
ATOM     13  C   UNL     1      -0.501  12.113  14.701  0.00  0.00    +0.005 A 
ATOM     14  C   UNL     1       1.577  13.612  15.795  0.00  0.00    +0.000 A 
ATOM     15  C   UNL     1      -0.744  12.966  15.777  0.00  0.00    +0.000 A 
ATOM     16  C   UNL     1       0.294  13.717  16.323  0.00  0.00    +0.000 A 
ENDBRANCH  10  11
ENDBRANCH   1  10
TORSDOF 2
ENDMDL
MODEL 3
REMARK VINA RESULT:    -5.119      3.012      3.967
REMARK INTER + INTRA:          -5.863
REMARK INTER:                  -5.706
REMARK INTRA:                  -0.158
REMARK UNBOUND:                -0.146
REMARK  Name = 1550473
REMARK  2 active torsions:
REMARK  status: ('A' for Active; 'I' for Inactive)
REMARK    1  A    between atoms: N_1  and  C_4
REMARK    2  A    between atoms: C_4  and  C_5
REMARK                            x       y       z     vdW  Elec       q    Type
REMARK                         _______ _______ _______ _____ _____    ______ ____
ROOT
ATOM      1  N   UNL     1       2.444  13.418  17.852  0.00  0.00    -0.354 N 
ATOM      2  N   UNL     1       4.063  12.571  19.276  0.00  0.00    -0.372 N 
ATOM      3  N   UNL     1       4.716  13.883  17.510  0.00  0.00    -0.372 N 
ATOM      4  C   UNL     1       3.732  13.297  18.201  0.00  0.00    +0.166 C 
ATOM      5  H   UNL     1       1.749  12.925  18.400  0.00  0.00    +0.163 HD
ATOM      6  H   UNL     1       5.026  12.464  19.565  0.00  0.00    +0.159 HD
ATOM      7  H   UNL     1       3.362  12.116  19.848  0.00  0.00    +0.159 HD
ATOM      8  H   UNL     1       4.533  14.440  16.686  0.00  0.00    +0.159 HD
ATOM      9  H   UNL     1       5.687  13.779  17.777  0.00  0.00    +0.159 HD
ENDROOT
BRANCH   1  10
ATOM     10  C   UNL     1       1.974  14.230  16.731  0.00  0.00    +0.151 C 
BRANCH  10  11
ATOM     11  C   UNL     1       1.324  13.333  15.714  0.00  0.00    -0.028 A 
ATOM     12  C   UNL     1       2.065  12.823  14.638  0.00  0.00    +0.005 A 
ATOM     13  C   UNL     1      -0.031  12.986  15.823  0.00  0.00    +0.005 A 
ATOM     14  C   UNL     1       1.469  11.966  13.709  0.00  0.00    +0.000 A 
ATOM     15  C   UNL     1      -0.622  12.130  14.894  0.00  0.00    +0.000 A 
ATOM     16  C   UNL     1       0.129  11.619  13.838  0.00  0.00    +0.000 A 
ENDBRANCH  10  11
ENDBRANCH   1  10
TORSDOF 2
ENDMDL
MODEL 4
REMARK VINA RESULT:    -4.933     31.300     32.726
REMARK INTER + INTRA:          -5.657
REMARK INTER:                  -5.495
REMARK INTRA:                  -0.161
REMARK UNBOUND:                -0.146
REMARK  Name = 1550473
REMARK  2 active torsions:
REMARK  status: ('A' for Active; 'I' for Inactive)
REMARK    1  A    between atoms: N_1  and  C_4
REMARK    2  A    between atoms: C_4  and  C_5
REMARK                            x       y       z     vdW  Elec       q    Type
REMARK                         _______ _______ _______ _____ _____    ______ ____
ROOT
ATOM      1  N   UNL     1     -14.824 -10.979  -0.111  0.00  0.00    -0.354 N 
ATOM      2  N   UNL     1     -13.056  -9.491  -0.268  0.00  0.00    -0.372 N 
ATOM      3  N   UNL     1     -15.188  -8.664  -0.080  0.00  0.00    -0.372 N 
ATOM      4  C   UNL     1     -14.369  -9.719  -0.152  0.00  0.00    +0.166 C 
ATOM      5  H   UNL     1     -14.154 -11.735  -0.201  0.00  0.00    +0.163 HD
ATOM      6  H   UNL     1     -12.683  -8.552  -0.298  0.00  0.00    +0.159 HD
ATOM      7  H   UNL     1     -12.385 -10.249  -0.311  0.00  0.00    +0.159 HD
ATOM      8  H   UNL     1     -16.190  -8.769   0.003  0.00  0.00    +0.159 HD
ATOM      9  H   UNL     1     -14.835  -7.716  -0.120  0.00  0.00    +0.159 HD
ENDROOT
BRANCH   1  10
ATOM     10  C   UNL     1     -16.230 -11.336   0.067  0.00  0.00    +0.151 C 
BRANCH  10  11
ATOM     11  C   UNL     1     -16.427 -11.874   1.458  0.00  0.00    -0.028 A 
ATOM     12  C   UNL     1     -15.540 -12.822   1.987  0.00  0.00    +0.005 A 
ATOM     13  C   UNL     1     -17.497 -11.435   2.253  0.00  0.00    +0.005 A 
ATOM     14  C   UNL     1     -15.705 -13.299   3.289  0.00  0.00    +0.000 A 
ATOM     15  C   UNL     1     -17.660 -11.915   3.552  0.00  0.00    +0.000 A 
ATOM     16  C   UNL     1     -16.762 -12.845   4.071  0.00  0.00    +0.000 A 
ENDBRANCH  10  11
ENDBRANCH   1  10
TORSDOF 2
ENDMDL
MODEL 5
REMARK VINA RESULT:    -4.861      2.006      2.375
REMARK INTER + INTRA:          -5.576
REMARK INTER:                  -5.395
REMARK INTRA:                  -0.181
REMARK UNBOUND:                -0.146
REMARK  Name = 1550473
REMARK  2 active torsions:
REMARK  status: ('A' for Active; 'I' for Inactive)
REMARK    1  A    between atoms: N_1  and  C_4
REMARK    2  A    between atoms: C_4  and  C_5
REMARK                            x       y       z     vdW  Elec       q    Type
REMARK                         _______ _______ _______ _____ _____    ______ ____
ROOT
ATOM      1  N   UNL     1      -1.081  14.534  15.736  0.00  0.00    -0.354 N 
ATOM      2  N   UNL     1      -3.054  15.695  15.385  0.00  0.00    -0.372 N 
ATOM      3  N   UNL     1      -3.161  13.505  16.059  0.00  0.00    -0.372 N 
ATOM      4  C   UNL     1      -2.420  14.568  15.729  0.00  0.00    +0.166 C 
ATOM      5  H   UNL     1      -0.577  15.364  15.446  0.00  0.00    +0.163 HD
ATOM      6  H   UNL     1      -4.063  15.752  15.375  0.00  0.00    +0.159 HD
ATOM      7  H   UNL     1      -2.547  16.538  15.140  0.00  0.00    +0.159 HD
ATOM      8  H   UNL     1      -2.744  12.622  16.323  0.00  0.00    +0.159 HD
ATOM      9  H   UNL     1      -4.173  13.538  16.044  0.00  0.00    +0.159 HD
ENDROOT
BRANCH   1  10
ATOM     10  C   UNL     1      -0.294  13.372  16.147  0.00  0.00    +0.151 C 
BRANCH  10  11
ATOM     11  C   UNL     1       0.244  12.685  14.922  0.00  0.00    -0.028 A 
ATOM     12  C   UNL     1      -0.278  11.449  14.512  0.00  0.00    +0.005 A 
ATOM     13  C   UNL     1       1.272  13.267  14.164  0.00  0.00    +0.005 A 
ATOM     14  C   UNL     1       0.200  10.825  13.357  0.00  0.00    +0.000 A 
ATOM     15  C   UNL     1       1.747  12.640  13.013  0.00  0.00    +0.000 A 
ATOM     16  C   UNL     1       1.210  11.420  12.608  0.00  0.00    +0.000 A 
ENDBRANCH  10  11
ENDBRANCH   1  10
TORSDOF 2
ENDMDL
MODEL 6
REMARK VINA RESULT:    -4.815     22.017     23.575
REMARK INTER + INTRA:          -5.524
REMARK INTER:                  -5.384
REMARK INTRA:                  -0.140
REMARK UNBOUND:                -0.146
REMARK  Name = 1550473
REMARK  2 active torsions:
REMARK  status: ('A' for Active; 'I' for Inactive)
REMARK    1  A    between atoms: N_1  and  C_4
REMARK    2  A    between atoms: C_4  and  C_5
REMARK                            x       y       z     vdW  Elec       q    Type
REMARK                         _______ _______ _______ _____ _____    ______ ____
ROOT
ATOM      1  N   UNL     1       2.543   0.629  -4.262  0.00  0.00    -0.354 N 
ATOM      2  N   UNL     1       1.706   2.534  -5.280  0.00  0.00    -0.372 N 
ATOM      3  N   UNL     1       1.547   2.334  -3.000  0.00  0.00    -0.372 N 
ATOM      4  C   UNL     1       1.937   1.820  -4.171  0.00  0.00    +0.166 C 
ATOM      5  H   UNL     1       2.786   0.282  -5.183  0.00  0.00    +0.163 HD
ATOM      6  H   UNL     1       1.254   3.437  -5.243  0.00  0.00    +0.159 HD
ATOM      7  H   UNL     1       1.992   2.205  -6.194  0.00  0.00    +0.159 HD
ATOM      8  H   UNL     1       1.687   1.843  -2.127  0.00  0.00    +0.159 HD
ATOM      9  H   UNL     1       1.082   3.232  -2.943  0.00  0.00    +0.159 HD
ENDROOT
BRANCH   1  10
ATOM     10  C   UNL     1       2.888  -0.202  -3.110  0.00  0.00    +0.151 C 
BRANCH  10  11
ATOM     11  C   UNL     1       2.387  -1.601  -3.346  0.00  0.00    -0.028 A 
ATOM     12  C   UNL     1       2.121  -2.052  -4.647  0.00  0.00    +0.005 A 
ATOM     13  C   UNL     1       2.181  -2.481  -2.272  0.00  0.00    +0.005 A 
ATOM     14  C   UNL     1       1.683  -3.360  -4.868  0.00  0.00    +0.000 A 
ATOM     15  C   UNL     1       1.744  -3.786  -2.498  0.00  0.00    +0.000 A 
ATOM     16  C   UNL     1       1.497  -4.226  -3.796  0.00  0.00    +0.000 A 
ENDBRANCH  10  11
ENDBRANCH   1  10
TORSDOF 2
ENDMDL
MODEL 7
REMARK VINA RESULT:    -4.780     15.216     16.913
REMARK INTER + INTRA:          -5.485
REMARK INTER:                  -5.303
REMARK INTRA:                  -0.182
REMARK UNBOUND:                -0.146
REMARK  Name = 1550473
REMARK  2 active torsions:
REMARK  status: ('A' for Active; 'I' for Inactive)
REMARK    1  A    between atoms: N_1  and  C_4
REMARK    2  A    between atoms: C_4  and  C_5
REMARK                            x       y       z     vdW  Elec       q    Type
REMARK                         _______ _______ _______ _____ _____    ______ ____
ROOT
ATOM      1  N   UNL     1       2.023   5.601   2.030  0.00  0.00    -0.354 N 
ATOM      2  N   UNL     1       0.161   4.833   3.173  0.00  0.00    -0.372 N 
ATOM      3  N   UNL     1      -0.037   6.706   1.863  0.00  0.00    -0.372 N 
ATOM      4  C   UNL     1       0.727   5.721   2.347  0.00  0.00    +0.166 C 
ATOM      5  H   UNL     1       2.555   4.850   2.454  0.00  0.00    +0.163 HD
ATOM      6  H   UNL     1      -0.816   4.895   3.428  0.00  0.00    +0.159 HD
ATOM      7  H   UNL     1       0.684   4.056   3.559  0.00  0.00    +0.159 HD
ATOM      8  H   UNL     1       0.331   7.412   1.240  0.00  0.00    +0.159 HD
ATOM      9  H   UNL     1      -1.014   6.793   2.116  0.00  0.00    +0.159 HD
ENDROOT
BRANCH   1  10
ATOM     10  C   UNL     1       2.721   6.484   1.097  0.00  0.00    +0.151 C 
BRANCH  10  11
ATOM     11  C   UNL     1       2.817   5.807  -0.242  0.00  0.00    -0.028 A 
ATOM     12  C   UNL     1       1.918   6.129  -1.269  0.00  0.00    +0.005 A 
ATOM     13  C   UNL     1       3.808   4.845  -0.492  0.00  0.00    +0.005 A 
ATOM     14  C   UNL     1       2.025   5.522  -2.523  0.00  0.00    +0.000 A 
ATOM     15  C   UNL     1       3.912   4.241  -1.745  0.00  0.00    +0.000 A 
ATOM     16  C   UNL     1       3.021   4.581  -2.761  0.00  0.00    +0.000 A 
ENDBRANCH  10  11
ENDBRANCH   1  10
TORSDOF 2
ENDMDL
MODEL 8
REMARK VINA RESULT:    -4.689     25.520     27.441
REMARK INTER + INTRA:          -5.383
REMARK INTER:                  -5.212
REMARK INTRA:                  -0.171
REMARK UNBOUND:                -0.146
REMARK  Name = 1550473
REMARK  2 active torsions:
REMARK  status: ('A' for Active; 'I' for Inactive)
REMARK    1  A    between atoms: N_1  and  C_4
REMARK    2  A    between atoms: C_4  and  C_5
REMARK                            x       y       z     vdW  Elec       q    Type
REMARK                         _______ _______ _______ _____ _____    ______ ____
ROOT
ATOM      1  N   UNL     1       4.151  -5.752  -6.149  0.00  0.00    -0.354 N 
ATOM      2  N   UNL     1       4.618  -8.018  -6.267  0.00  0.00    -0.372 N 
ATOM      3  N   UNL     1       2.495  -7.296  -6.754  0.00  0.00    -0.372 N 
ATOM      4  C   UNL     1       3.749  -7.007  -6.390  0.00  0.00    +0.166 C 
ATOM      5  H   UNL     1       5.107  -5.603  -5.846  0.00  0.00    +0.163 HD
ATOM      6  H   UNL     1       4.344  -8.974  -6.446  0.00  0.00    +0.159 HD
ATOM      7  H   UNL     1       5.585  -7.861  -6.009  0.00  0.00    +0.159 HD
ATOM      8  H   UNL     1       1.790  -6.579  -6.859  0.00  0.00    +0.159 HD
ATOM      9  H   UNL     1       2.199  -8.248  -6.926  0.00  0.00    +0.159 HD
ENDROOT
BRANCH   1  10
ATOM     10  C   UNL     1       3.298  -4.576  -6.306  0.00  0.00    +0.151 C 
BRANCH  10  11
ATOM     11  C   UNL     1       3.014  -3.990  -4.950  0.00  0.00    -0.028 A 
ATOM     12  C   UNL     1       1.902  -4.417  -4.209  0.00  0.00    +0.005 A 
ATOM     13  C   UNL     1       3.856  -3.013  -4.398  0.00  0.00    +0.005 A 
ATOM     14  C   UNL     1       1.654  -3.895  -2.937  0.00  0.00    +0.000 A 
ATOM     15  C   UNL     1       3.605  -2.494  -3.128  0.00  0.00    +0.000 A 
ATOM     16  C   UNL     1       2.506  -2.937  -2.397  0.00  0.00    +0.000 A 
ENDBRANCH  10  11
ENDBRANCH   1  10
TORSDOF 2
ENDMDL
MODEL 9
REMARK VINA RESULT:    -4.686     31.202     32.312
REMARK INTER + INTRA:          -5.380
REMARK INTER:                  -5.239
REMARK INTRA:                  -0.142
REMARK UNBOUND:                -0.146
REMARK  Name = 1550473
REMARK  2 active torsions:
REMARK  status: ('A' for Active; 'I' for Inactive)
REMARK    1  A    between atoms: N_1  and  C_4
REMARK    2  A    between atoms: C_4  and  C_5
REMARK                            x       y       z     vdW  Elec       q    Type
REMARK                         _______ _______ _______ _____ _____    ______ ____
ROOT
ATOM      1  N   UNL     1      -3.566 -13.945  -1.034  0.00  0.00    -0.354 N 
ATOM      2  N   UNL     1      -2.741 -12.810  -2.876  0.00  0.00    -0.372 N 
ATOM      3  N   UNL     1      -3.071 -15.076  -3.026  0.00  0.00    -0.372 N 
ATOM      4  C   UNL     1      -3.131 -13.954  -2.301  0.00  0.00    +0.166 C 
ATOM      5  H   UNL     1      -3.558 -13.067  -0.528  0.00  0.00    +0.163 HD
ATOM      6  H   UNL     1      -2.412 -12.784  -3.832  0.00  0.00    +0.159 HD
ATOM      7  H   UNL     1      -2.779 -11.926  -2.384  0.00  0.00    +0.159 HD
ATOM      8  H   UNL     1      -3.345 -15.973  -2.648  0.00  0.00    +0.159 HD
ATOM      9  H   UNL     1      -2.733 -15.072  -3.980  0.00  0.00    +0.159 HD
ENDROOT
BRANCH   1  10
ATOM     10  C   UNL     1      -4.063 -15.127  -0.332  0.00  0.00    +0.151 C 
BRANCH  10  11
ATOM     11  C   UNL     1      -3.327 -15.271   0.971  0.00  0.00    -0.028 A 
ATOM     12  C   UNL     1      -2.245 -14.432   1.274  0.00  0.00    +0.005 A 
ATOM     13  C   UNL     1      -3.710 -16.241   1.910  0.00  0.00    +0.005 A 
ATOM     14  C   UNL     1      -1.579 -14.545   2.497  0.00  0.00    +0.000 A 
ATOM     15  C   UNL     1      -3.043 -16.352   3.130  0.00  0.00    +0.000 A 
ATOM     16  C   UNL     1      -1.979 -15.502   3.424  0.00  0.00    +0.000 A 
ENDBRANCH  10  11
ENDBRANCH   1  10
TORSDOF 2
ENDMDL
