MODEL 1
REMARK VINA RESULT:    -4.417      0.000      0.000
REMARK INTER + INTRA:          -5.096
REMARK INTER:                  -4.934
REMARK INTRA:                  -0.163
REMARK UNBOUND:                -0.163
REMARK  Name = 1550473
REMARK  2 active torsions:
REMARK  status: ('A' for Active; 'I' for Inactive)
REMARK    1  A    between atoms: N_1  and  C_4
REMARK    2  A    between atoms: C_4  and  C_5
REMARK                            x       y       z     vdW  Elec       q    Type
REMARK                         _______ _______ _______ _____ _____    ______ ____
ROOT
ATOM      1  N   UNL     1      10.860   8.047  10.517  0.00  0.00    -0.354 N 
ATOM      2  N   UNL     1      11.605   6.403   9.067  0.00  0.00    -0.372 N 
ATOM      3  N   UNL     1      10.151   5.825  10.746  0.00  0.00    -0.372 N 
ATOM      4  C   UNL     1      10.866   6.768  10.121  0.00  0.00    +0.166 C 
ATOM      5  H   UNL     1      11.446   8.708  10.020  0.00  0.00    +0.163 HD
ATOM      6  H   UNL     1      11.627   5.445   8.743  0.00  0.00    +0.159 HD
ATOM      7  H   UNL     1      12.155   7.074   8.544  0.00  0.00    +0.159 HD
ATOM      8  H   UNL     1       9.577   6.034  11.551  0.00  0.00    +0.159 HD
ATOM      9  H   UNL     1      10.169   4.859  10.443  0.00  0.00    +0.159 HD
ENDROOT
BRANCH   1  10
ATOM     10  C   UNL     1      10.047   8.558  11.620  0.00  0.00    +0.151 C 
BRANCH  10  11
ATOM     11  C   UNL     1       9.033   9.526  11.075  0.00  0.00    -0.028 A 
ATOM     12  C   UNL     1       9.273  10.907  11.115  0.00  0.00    +0.005 A 
ATOM     13  C   UNL     1       7.832   9.068  10.512  0.00  0.00    +0.005 A 
ATOM     14  C   UNL     1       8.345  11.805  10.582  0.00  0.00    +0.000 A 
ATOM     15  C   UNL     1       6.907   9.967   9.982  0.00  0.00    +0.000 A 
ATOM     16  C   UNL     1       7.165  11.335  10.015  0.00  0.00    +0.000 A 
ENDBRANCH  10  11
ENDBRANCH   1  10
TORSDOF 2
ENDMDL
MODEL 2
REMARK VINA RESULT:    -4.363     34.468     35.668
REMARK INTER + INTRA:          -5.035
REMARK INTER:                  -4.893
REMARK INTRA:                  -0.142
REMARK UNBOUND:                -0.163
REMARK  Name = 1550473
REMARK  2 active torsions:
REMARK  status: ('A' for Active; 'I' for Inactive)
REMARK    1  A    between atoms: N_1  and  C_4
REMARK    2  A    between atoms: C_4  and  C_5
REMARK                            x       y       z     vdW  Elec       q    Type
REMARK                         _______ _______ _______ _____ _____    ______ ____
ROOT
ATOM      1  N   UNL     1      -5.047  29.617  36.730  0.00  0.00    -0.354 N 
ATOM      2  N   UNL     1      -3.990  29.675  38.790  0.00  0.00    -0.372 N 
ATOM      3  N   UNL     1      -6.186  30.328  38.651  0.00  0.00    -0.372 N 
ATOM      4  C   UNL     1      -5.084  29.874  38.044  0.00  0.00    +0.166 C 
ATOM      5  H   UNL     1      -4.172  29.304  36.325  0.00  0.00    +0.163 HD
ATOM      6  H   UNL     1      -3.989  29.857  39.784  0.00  0.00    +0.159 HD
ATOM      7  H   UNL     1      -3.130  29.319  38.390  0.00  0.00    +0.159 HD
ATOM      8  H   UNL     1      -7.042  30.504  38.143  0.00  0.00    +0.159 HD
ATOM      9  H   UNL     1      -6.200  30.527  39.643  0.00  0.00    +0.159 HD
ENDROOT
BRANCH   1  10
ATOM     10  C   UNL     1      -6.198  29.749  35.838  0.00  0.00    +0.151 C 
BRANCH  10  11
ATOM     11  C   UNL     1      -6.367  28.472  35.062  0.00  0.00    -0.028 A 
ATOM     12  C   UNL     1      -5.531  27.373  35.308  0.00  0.00    +0.005 A 
ATOM     13  C   UNL     1      -7.366  28.352  34.084  0.00  0.00    +0.005 A 
ATOM     14  C   UNL     1      -5.707  26.177  34.609  0.00  0.00    +0.000 A 
ATOM     15  C   UNL     1      -7.538  27.156  33.387  0.00  0.00    +0.000 A 
ATOM     16  C   UNL     1      -6.710  26.068  33.652  0.00  0.00    +0.000 A 
ENDBRANCH  10  11
ENDBRANCH   1  10
TORSDOF 2
ENDMDL
MODEL 3
REMARK VINA RESULT:    -4.128     13.987     14.362
REMARK INTER + INTRA:          -4.774
REMARK INTER:                  -4.646
REMARK INTRA:                  -0.128
REMARK UNBOUND:                -0.163
REMARK  Name = 1550473
REMARK  2 active torsions:
REMARK  status: ('A' for Active; 'I' for Inactive)
REMARK    1  A    between atoms: N_1  and  C_4
REMARK    2  A    between atoms: C_4  and  C_5
REMARK                            x       y       z     vdW  Elec       q    Type
REMARK                         _______ _______ _______ _____ _____    ______ ____
ROOT
ATOM      1  N   UNL     1       8.731  -4.301   7.418  0.00  0.00    -0.354 N 
ATOM      2  N   UNL     1      10.645  -4.288   8.721  0.00  0.00    -0.372 N 
ATOM      3  N   UNL     1      10.665  -5.432   6.733  0.00  0.00    -0.372 N 
ATOM      4  C   UNL     1      10.002  -4.676   7.613  0.00  0.00    +0.166 C 
ATOM      5  H   UNL     1       8.274  -3.753   8.138  0.00  0.00    +0.163 HD
ATOM      6  H   UNL     1      11.606  -4.552   8.894  0.00  0.00    +0.159 HD
ATOM      7  H   UNL     1      10.201  -3.702   9.418  0.00  0.00    +0.159 HD
ATOM      8  H   UNL     1      10.234  -5.763   5.879  0.00  0.00    +0.159 HD
ATOM      9  H   UNL     1      11.623  -5.717   6.893  0.00  0.00    +0.159 HD
ENDROOT
BRANCH   1  10
ATOM     10  C   UNL     1       7.958  -4.625   6.220  0.00  0.00    +0.151 C 
BRANCH  10  11
ATOM     11  C   UNL     1       6.493  -4.608   6.561  0.00  0.00    -0.028 A 
ATOM     12  C   UNL     1       6.067  -4.811   7.882  0.00  0.00    +0.005 A 
ATOM     13  C   UNL     1       5.526  -4.384   5.569  0.00  0.00    +0.005 A 
ATOM     14  C   UNL     1       4.709  -4.765   8.205  0.00  0.00    +0.000 A 
ATOM     15  C   UNL     1       4.171  -4.340   5.895  0.00  0.00    +0.000 A 
ATOM     16  C   UNL     1       3.763  -4.528   7.213  0.00  0.00    +0.000 A 
ENDBRANCH  10  11
ENDBRANCH   1  10
TORSDOF 2
ENDMDL
MODEL 4
REMARK VINA RESULT:    -4.091     28.236     29.328
REMARK INTER + INTRA:          -4.732
REMARK INTER:                  -4.584
REMARK INTRA:                  -0.148
REMARK UNBOUND:                -0.163
REMARK  Name = 1550473
REMARK  2 active torsions:
REMARK  status: ('A' for Active; 'I' for Inactive)
REMARK    1  A    between atoms: N_1  and  C_4
REMARK    2  A    between atoms: C_4  and  C_5
REMARK                            x       y       z     vdW  Elec       q    Type
REMARK                         _______ _______ _______ _____ _____    ______ ____
ROOT
ATOM      1  N   UNL     1       1.846  -6.590 -15.171  0.00  0.00    -0.354 N 
ATOM      2  N   UNL     1       0.669  -8.330 -16.146  0.00  0.00    -0.372 N 
ATOM      3  N   UNL     1       2.391  -8.822 -14.711  0.00  0.00    -0.372 N 
ATOM      4  C   UNL     1       1.645  -7.904 -15.335  0.00  0.00    +0.166 C 
ATOM      5  H   UNL     1       1.265  -5.945 -15.695  0.00  0.00    +0.163 HD
ATOM      6  H   UNL     1       0.492  -9.316 -16.287  0.00  0.00    +0.159 HD
ATOM      7  H   UNL     1       0.061  -7.684 -16.633  0.00  0.00    +0.159 HD
ATOM      8  H   UNL     1       3.148  -8.566 -14.090  0.00  0.00    +0.159 HD
ATOM      9  H   UNL     1       2.237  -9.813 -14.849  0.00  0.00    +0.159 HD
ENDROOT
BRANCH   1  10
ATOM     10  C   UNL     1       2.846  -6.022 -14.269  0.00  0.00    +0.151 C 
BRANCH  10  11
ATOM     11  C   UNL     1       2.153  -5.181 -13.233  0.00  0.00    -0.028 A 
ATOM     12  C   UNL     1       0.905  -4.600 -13.506  0.00  0.00    +0.005 A 
ATOM     13  C   UNL     1       2.735  -4.965 -11.975  0.00  0.00    +0.005 A 
ATOM     14  C   UNL     1       0.247  -3.844 -12.533  0.00  0.00    +0.000 A 
ATOM     15  C   UNL     1       2.075  -4.208 -11.007  0.00  0.00    +0.000 A 
ATOM     16  C   UNL     1       0.830  -3.650 -11.286  0.00  0.00    +0.000 A 
ENDBRANCH  10  11
ENDBRANCH   1  10
TORSDOF 2
ENDMDL
MODEL 5
REMARK VINA RESULT:    -4.041     18.070     18.947
REMARK INTER + INTRA:          -4.676
REMARK INTER:                  -4.537
REMARK INTRA:                  -0.139
REMARK UNBOUND:                -0.163
REMARK  Name = 1550473
REMARK  2 active torsions:
REMARK  status: ('A' for Active; 'I' for Inactive)
REMARK    1  A    between atoms: N_1  and  C_4
REMARK    2  A    between atoms: C_4  and  C_5
REMARK                            x       y       z     vdW  Elec       q    Type
REMARK                         _______ _______ _______ _____ _____    ______ ____
ROOT
ATOM      1  N   UNL     1      -3.053  -1.061   2.605  0.00  0.00    -0.354 N 
ATOM      2  N   UNL     1      -4.752   0.511   2.522  0.00  0.00    -0.372 N 
ATOM      3  N   UNL     1      -5.135  -1.479   3.597  0.00  0.00    -0.372 N 
ATOM      4  C   UNL     1      -4.304  -0.689   2.910  0.00  0.00    +0.166 C 
ATOM      5  H   UNL     1      -2.483  -0.428   2.055  0.00  0.00    +0.163 HD
ATOM      6  H   UNL     1      -5.690   0.821   2.741  0.00  0.00    +0.159 HD
ATOM      7  H   UNL     1      -4.165   1.161   2.013  0.00  0.00    +0.159 HD
ATOM      8  H   UNL     1      -4.859  -2.399   3.914  0.00  0.00    +0.159 HD
ATOM      9  H   UNL     1      -6.080  -1.192   3.816  0.00  0.00    +0.159 HD
ENDROOT
BRANCH   1  10
ATOM     10  C   UNL     1      -2.450  -2.324   3.026  0.00  0.00    +0.151 C 
BRANCH  10  11
ATOM     11  C   UNL     1      -1.684  -2.911   1.873  0.00  0.00    -0.028 A 
ATOM     12  C   UNL     1      -1.540  -2.195   0.676  0.00  0.00    +0.005 A 
ATOM     13  C   UNL     1      -1.096  -4.181   1.973  0.00  0.00    +0.005 A 
ATOM     14  C   UNL     1      -0.803  -2.727  -0.385  0.00  0.00    +0.000 A 
ATOM     15  C   UNL     1      -0.362  -4.710   0.912  0.00  0.00    +0.000 A 
ATOM     16  C   UNL     1      -0.213  -3.982  -0.266  0.00  0.00    +0.000 A 
ENDBRANCH  10  11
ENDBRANCH   1  10
TORSDOF 2
ENDMDL
MODEL 6
REMARK VINA RESULT:    -3.993     34.128     35.326
REMARK INTER + INTRA:          -4.622
REMARK INTER:                  -4.485
REMARK INTRA:                  -0.137
REMARK UNBOUND:                -0.163
REMARK  Name = 1550473
REMARK  2 active torsions:
REMARK  status: ('A' for Active; 'I' for Inactive)
REMARK    1  A    between atoms: N_1  and  C_4
REMARK    2  A    between atoms: C_4  and  C_5
REMARK                            x       y       z     vdW  Elec       q    Type
REMARK                         _______ _______ _______ _____ _____    ______ ____
ROOT
ATOM      1  N   UNL     1      -6.331  27.766  36.672  0.00  0.00    -0.354 N 
ATOM      2  N   UNL     1      -7.674  29.560  37.257  0.00  0.00    -0.372 N 
ATOM      3  N   UNL     1      -6.540  29.628  35.263  0.00  0.00    -0.372 N 
ATOM      4  C   UNL     1      -6.839  28.974  36.391  0.00  0.00    +0.166 C 
ATOM      5  H   UNL     1      -6.573  27.336  37.557  0.00  0.00    +0.163 HD
ATOM      6  H   UNL     1      -8.076  30.469  37.071  0.00  0.00    +0.159 HD
ATOM      7  H   UNL     1      -7.950  29.108  38.120  0.00  0.00    +0.159 HD
ATOM      8  H   UNL     1      -5.911  29.242  34.572  0.00  0.00    +0.159 HD
ATOM      9  H   UNL     1      -6.922  30.544  35.064  0.00  0.00    +0.159 HD
ENDROOT
BRANCH   1  10
ATOM     10  C   UNL     1      -5.455  27.018  35.772  0.00  0.00    +0.151 C 
BRANCH  10  11
ATOM     11  C   UNL     1      -4.208  26.625  36.515  0.00  0.00    -0.028 A 
ATOM     12  C   UNL     1      -3.375  25.611  36.021  0.00  0.00    +0.005 A 
ATOM     13  C   UNL     1      -3.851  27.267  37.711  0.00  0.00    +0.005 A 
ATOM     14  C   UNL     1      -2.201  25.265  36.695  0.00  0.00    +0.000 A 
ATOM     15  C   UNL     1      -2.679  26.919  38.381  0.00  0.00    +0.000 A 
ATOM     16  C   UNL     1      -1.853  25.920  37.872  0.00  0.00    +0.000 A 
ENDBRANCH  10  11
ENDBRANCH   1  10
TORSDOF 2
ENDMDL
MODEL 7
REMARK VINA RESULT:    -3.940      3.436      4.672
REMARK INTER + INTRA:          -4.563
REMARK INTER:                  -4.419
REMARK INTRA:                  -0.144
REMARK UNBOUND:                -0.163
REMARK  Name = 1550473
REMARK  2 active torsions:
REMARK  status: ('A' for Active; 'I' for Inactive)
REMARK    1  A    between atoms: N_1  and  C_4
REMARK    2  A    between atoms: C_4  and  C_5
REMARK                            x       y       z     vdW  Elec       q    Type
REMARK                         _______ _______ _______ _____ _____    ______ ____
ROOT
ATOM      1  N   UNL     1      11.326  12.191  12.326  0.00  0.00    -0.354 N 
ATOM      2  N   UNL     1      11.387  14.364  13.127  0.00  0.00    -0.372 N 
ATOM      3  N   UNL     1      11.097  12.641  14.615  0.00  0.00    -0.372 N 
ATOM      4  C   UNL     1      11.269  13.050  13.353  0.00  0.00    +0.166 C 
ATOM      5  H   UNL     1      11.427  12.567  11.390  0.00  0.00    +0.163 HD
ATOM      6  H   UNL     1      11.351  15.035  13.882  0.00  0.00    +0.159 HD
ATOM      7  H   UNL     1      11.534  14.733  12.196  0.00  0.00    +0.159 HD
ATOM      8  H   UNL     1      10.996  11.663  14.852  0.00  0.00    +0.159 HD
ATOM      9  H   UNL     1      11.047  13.299  15.383  0.00  0.00    +0.159 HD
ENDROOT
BRANCH   1  10
ATOM     10  C   UNL     1      11.262  10.738  12.471  0.00  0.00    +0.151 C 
BRANCH  10  11
ATOM     11  C   UNL     1      10.034  10.228  11.768  0.00  0.00    -0.028 A 
ATOM     12  C   UNL     1       9.264  11.084  10.968  0.00  0.00    +0.005 A 
ATOM     13  C   UNL     1       9.638   8.888  11.895  0.00  0.00    +0.005 A 
ATOM     14  C   UNL     1       8.141  10.604  10.291  0.00  0.00    +0.000 A 
ATOM     15  C   UNL     1       8.515   8.412  11.218  0.00  0.00    +0.000 A 
ATOM     16  C   UNL     1       7.768   9.270  10.414  0.00  0.00    +0.000 A 
ENDBRANCH  10  11
ENDBRANCH   1  10
TORSDOF 2
ENDMDL
MODEL 8
REMARK VINA RESULT:    -3.838      2.233      3.413
REMARK INTER + INTRA:          -4.449
REMARK INTER:                  -4.316
REMARK INTRA:                  -0.133
REMARK UNBOUND:                -0.163
REMARK  Name = 1550473
REMARK  2 active torsions:
REMARK  status: ('A' for Active; 'I' for Inactive)
REMARK    1  A    between atoms: N_1  and  C_4
REMARK    2  A    between atoms: C_4  and  C_5
REMARK                            x       y       z     vdW  Elec       q    Type
REMARK                         _______ _______ _______ _____ _____    ______ ____
ROOT
ATOM      1  N   UNL     1      10.986   8.064  10.382  0.00  0.00    -0.354 N 
ATOM      2  N   UNL     1      11.664   6.288   9.060  0.00  0.00    -0.372 N 
ATOM      3  N   UNL     1      10.173   5.898  10.760  0.00  0.00    -0.372 N 
ATOM      4  C   UNL     1      10.935   6.760  10.078  0.00  0.00    +0.166 C 
ATOM      5  H   UNL     1      11.606   8.659   9.846  0.00  0.00    +0.163 HD
ATOM      6  H   UNL     1      11.643   5.310   8.804  0.00  0.00    +0.159 HD
ATOM      7  H   UNL     1      12.248   6.894   8.496  0.00  0.00    +0.159 HD
ATOM      8  H   UNL     1       9.604   6.190  11.543  0.00  0.00    +0.159 HD
ATOM      9  H   UNL     1      10.148   4.913  10.527  0.00  0.00    +0.159 HD
ENDROOT
BRANCH   1  10
ATOM     10  C   UNL     1      10.190   8.688  11.438  0.00  0.00    +0.151 C 
BRANCH  10  11
ATOM     11  C   UNL     1      10.981   9.811  12.050  0.00  0.00    -0.028 A 
ATOM     12  C   UNL     1      12.376   9.856  11.913  0.00  0.00    +0.005 A 
ATOM     13  C   UNL     1      10.341  10.836  12.764  0.00  0.00    +0.005 A 
ATOM     14  C   UNL     1      13.109  10.914  12.456  0.00  0.00    +0.000 A 
ATOM     15  C   UNL     1      11.076  11.891  13.305  0.00  0.00    +0.000 A 
ATOM     16  C   UNL     1      12.460  11.931  13.149  0.00  0.00    +0.000 A 
ENDBRANCH  10  11
ENDBRANCH   1  10
TORSDOF 2
ENDMDL
MODEL 9
REMARK VINA RESULT:    -3.822     33.233     34.399
REMARK INTER + INTRA:          -4.432
REMARK INTER:                  -4.298
REMARK INTRA:                  -0.134
REMARK UNBOUND:                -0.163
REMARK  Name = 1550473
REMARK  2 active torsions:
REMARK  status: ('A' for Active; 'I' for Inactive)
REMARK    1  A    between atoms: N_1  and  C_4
REMARK    2  A    between atoms: C_4  and  C_5
REMARK                            x       y       z     vdW  Elec       q    Type
REMARK                         _______ _______ _______ _____ _____    ______ ____
ROOT
ATOM      1  N   UNL     1      -4.630  28.236  36.146  0.00  0.00    -0.354 N 
ATOM      2  N   UNL     1      -5.248  30.256  37.095  0.00  0.00    -0.372 N 
ATOM      3  N   UNL     1      -6.837  28.622  36.833  0.00  0.00    -0.372 N 
ATOM      4  C   UNL     1      -5.570  29.024  36.685  0.00  0.00    +0.166 C 
ATOM      5  H   UNL     1      -3.695  28.610  36.033  0.00  0.00    +0.163 HD
ATOM      6  H   UNL     1      -5.935  30.872  37.509  0.00  0.00    +0.159 HD
ATOM      7  H   UNL     1      -4.302  30.611  37.024  0.00  0.00    +0.159 HD
ATOM      8  H   UNL     1      -7.146  27.705  36.539  0.00  0.00    +0.159 HD
ATOM      9  H   UNL     1      -7.541  29.228  37.234  0.00  0.00    +0.159 HD
ENDROOT
BRANCH   1  10
ATOM     10  C   UNL     1      -4.865  26.858  35.717  0.00  0.00    +0.151 C 
BRANCH  10  11
ATOM     11  C   UNL     1      -3.627  26.045  35.976  0.00  0.00    -0.028 A 
ATOM     12  C   UNL     1      -2.617  26.535  36.817  0.00  0.00    +0.005 A 
ATOM     13  C   UNL     1      -3.460  24.782  35.388  0.00  0.00    +0.005 A 
ATOM     14  C   UNL     1      -1.480  25.767  37.082  0.00  0.00    +0.000 A 
ATOM     15  C   UNL     1      -2.323  24.019  35.654  0.00  0.00    +0.000 A 
ATOM     16  C   UNL     1      -1.335  24.511  36.503  0.00  0.00    +0.000 A 
ENDBRANCH  10  11
ENDBRANCH   1  10
TORSDOF 2
ENDMDL
