MODEL 1
REMARK VINA RESULT:    -4.702      0.000      0.000
REMARK INTER + INTRA:          -5.352
REMARK INTER:                  -5.252
REMARK INTRA:                  -0.100
REMARK UNBOUND:                -0.100
REMARK  Name = 1550473
REMARK  2 active torsions:
REMARK  status: ('A' for Active; 'I' for Inactive)
REMARK    1  A    between atoms: N_1  and  C_4
REMARK    2  A    between atoms: C_4  and  C_5
REMARK                            x       y       z     vdW  Elec       q    Type
REMARK                         _______ _______ _______ _____ _____    ______ ____
ROOT
ATOM      1  N   UNL     1       7.608 -11.173   1.054  0.00  0.00    -0.354 N 
ATOM      2  N   UNL     1       5.966 -10.952   2.672  0.00  0.00    -0.372 N 
ATOM      3  N   UNL     1       5.738 -12.586   1.076  0.00  0.00    -0.372 N 
ATOM      4  C   UNL     1       6.447 -11.574   1.588  0.00  0.00    +0.166 C 
ATOM      5  H   UNL     1       8.082 -10.381   1.471  0.00  0.00    +0.163 HD
ATOM      6  H   UNL     1       5.094 -11.235   3.099  0.00  0.00    +0.159 HD
ATOM      7  H   UNL     1       6.464 -10.190   3.114  0.00  0.00    +0.159 HD
ATOM      8  H   UNL     1       6.044 -13.092   0.256  0.00  0.00    +0.159 HD
ATOM      9  H   UNL     1       4.857 -12.876   1.483  0.00  0.00    +0.159 HD
ENDROOT
BRANCH   1  10
ATOM     10  C   UNL     1       8.245 -11.818  -0.093  0.00  0.00    +0.151 C 
BRANCH  10  11
ATOM     11  C   UNL     1       9.073 -10.801  -0.830  0.00  0.00    -0.028 A 
ATOM     12  C   UNL     1       8.720 -10.400  -2.127  0.00  0.00    +0.005 A 
ATOM     13  C   UNL     1      10.209 -10.231  -0.235  0.00  0.00    +0.005 A 
ATOM     14  C   UNL     1       9.471  -9.434  -2.800  0.00  0.00    +0.000 A 
ATOM     15  C   UNL     1      10.957  -9.267  -0.911  0.00  0.00    +0.000 A 
ATOM     16  C   UNL     1      10.586  -8.867  -2.192  0.00  0.00    +0.000 A 
ENDBRANCH  10  11
ENDBRANCH   1  10
TORSDOF 2
ENDMDL
MODEL 2
REMARK VINA RESULT:    -4.586     23.331     24.358
REMARK INTER + INTRA:          -5.222
REMARK INTER:                  -5.107
REMARK INTRA:                  -0.114
REMARK UNBOUND:                -0.100
REMARK  Name = 1550473
REMARK  2 active torsions:
REMARK  status: ('A' for Active; 'I' for Inactive)
REMARK    1  A    between atoms: N_1  and  C_4
REMARK    2  A    between atoms: C_4  and  C_5
REMARK                            x       y       z     vdW  Elec       q    Type
REMARK                         _______ _______ _______ _____ _____    ______ ____
ROOT
ATOM      1  N   UNL     1      15.510   3.062  19.274  0.00  0.00    -0.354 N 
ATOM      2  N   UNL     1      13.522   3.799  20.208  0.00  0.00    -0.372 N 
ATOM      3  N   UNL     1      13.473   2.028  18.749  0.00  0.00    -0.372 N 
ATOM      4  C   UNL     1      14.180   2.956  19.402  0.00  0.00    +0.166 C 
ATOM      5  H   UNL     1      15.983   3.807  19.773  0.00  0.00    +0.163 HD
ATOM      6  H   UNL     1      12.520   3.741  20.327  0.00  0.00    +0.159 HD
ATOM      7  H   UNL     1      14.004   4.513  20.741  0.00  0.00    +0.159 HD
ATOM      8  H   UNL     1      13.910   1.366  18.122  0.00  0.00    +0.159 HD
ATOM      9  H   UNL     1      12.468   1.961  18.847  0.00  0.00    +0.159 HD
ENDROOT
BRANCH   1  10
ATOM     10  C   UNL     1      16.328   2.161  18.465  0.00  0.00    +0.151 C 
BRANCH  10  11
ATOM     11  C   UNL     1      17.311   2.972  17.668  0.00  0.00    -0.028 A 
ATOM     12  C   UNL     1      17.307   2.920  16.267  0.00  0.00    +0.005 A 
ATOM     13  C   UNL     1      18.247   3.799  18.309  0.00  0.00    +0.005 A 
ATOM     14  C   UNL     1      18.201   3.697  15.525  0.00  0.00    +0.000 A 
ATOM     15  C   UNL     1      19.139   4.572  17.565  0.00  0.00    +0.000 A 
ATOM     16  C   UNL     1      19.113   4.522  16.173  0.00  0.00    +0.000 A 
ENDBRANCH  10  11
ENDBRANCH   1  10
TORSDOF 2
ENDMDL
MODEL 3
REMARK VINA RESULT:    -4.528     10.890     11.813
REMARK INTER + INTRA:          -5.157
REMARK INTER:                  -5.059
REMARK INTRA:                  -0.098
REMARK UNBOUND:                -0.100
REMARK  Name = 1550473
REMARK  2 active torsions:
REMARK  status: ('A' for Active; 'I' for Inactive)
REMARK    1  A    between atoms: N_1  and  C_4
REMARK    2  A    between atoms: C_4  and  C_5
REMARK                            x       y       z     vdW  Elec       q    Type
REMARK                         _______ _______ _______ _____ _____    ______ ____
ROOT
ATOM      1  N   UNL     1       1.571 -14.747  -8.629  0.00  0.00    -0.354 N 
ATOM      2  N   UNL     1       0.011 -14.706  -6.917  0.00  0.00    -0.372 N 
ATOM      3  N   UNL     1      -0.401 -16.007  -8.762  0.00  0.00    -0.372 N 
ATOM      4  C   UNL     1       0.403 -15.155  -8.116  0.00  0.00    +0.166 C 
ATOM      5  H   UNL     1       2.120 -14.077  -8.103  0.00  0.00    +0.163 HD
ATOM      6  H   UNL     1      -0.863 -14.999  -6.503  0.00  0.00    +0.159 HD
ATOM      7  H   UNL     1       0.583 -14.071  -6.373  0.00  0.00    +0.159 HD
ATOM      8  H   UNL     1      -0.166 -16.379  -9.673  0.00  0.00    +0.159 HD
ATOM      9  H   UNL     1      -1.285 -16.303  -8.369  0.00  0.00    +0.159 HD
ENDROOT
BRANCH   1  10
ATOM     10  C   UNL     1       2.114 -15.218  -9.902  0.00  0.00    +0.151 C 
BRANCH  10  11
ATOM     11  C   UNL     1       3.040 -14.172 -10.458  0.00  0.00    -0.028 A 
ATOM     12  C   UNL     1       2.674 -13.424 -11.587  0.00  0.00    +0.005 A 
ATOM     13  C   UNL     1       4.283 -13.920  -9.858  0.00  0.00    +0.005 A 
ATOM     14  C   UNL     1       3.521 -12.432 -12.086  0.00  0.00    +0.000 A 
ATOM     15  C   UNL     1       5.126 -12.928 -10.359  0.00  0.00    +0.000 A 
ATOM     16  C   UNL     1       4.744 -12.183 -11.472  0.00  0.00    +0.000 A 
ENDBRANCH  10  11
ENDBRANCH   1  10
TORSDOF 2
ENDMDL
MODEL 4
REMARK VINA RESULT:    -4.464     11.016     11.928
REMARK INTER + INTRA:          -5.085
REMARK INTER:                  -4.963
REMARK INTRA:                  -0.122
REMARK UNBOUND:                -0.100
REMARK  Name = 1550473
REMARK  2 active torsions:
REMARK  status: ('A' for Active; 'I' for Inactive)
REMARK    1  A    between atoms: N_1  and  C_4
REMARK    2  A    between atoms: C_4  and  C_5
REMARK                            x       y       z     vdW  Elec       q    Type
REMARK                         _______ _______ _______ _____ _____    ______ ____
ROOT
ATOM      1  N   UNL     1      12.301  -5.437  10.739  0.00  0.00    -0.354 N 
ATOM      2  N   UNL     1      10.581  -4.687  12.096  0.00  0.00    -0.372 N 
ATOM      3  N   UNL     1      10.112  -6.223  10.457  0.00  0.00    -0.372 N 
ATOM      4  C   UNL     1      11.008  -5.456  11.087  0.00  0.00    +0.166 C 
ATOM      5  H   UNL     1      12.924  -4.811  11.236  0.00  0.00    +0.163 HD
ATOM      6  H   UNL     1       9.611  -4.682  12.383  0.00  0.00    +0.159 HD
ATOM      7  H   UNL     1      11.214  -4.096  12.621  0.00  0.00    +0.159 HD
ATOM      8  H   UNL     1      10.369  -6.822   9.684  0.00  0.00    +0.159 HD
ATOM      9  H   UNL     1       9.135  -6.223  10.722  0.00  0.00    +0.159 HD
ENDROOT
BRANCH   1  10
ATOM     10  C   UNL     1      12.878  -6.276   9.690  0.00  0.00    +0.151 C 
BRANCH  10  11
ATOM     11  C   UNL     1      13.687  -5.414   8.761  0.00  0.00    -0.028 A 
ATOM     12  C   UNL     1      13.407  -5.390   7.387  0.00  0.00    +0.005 A 
ATOM     13  C   UNL     1      14.731  -4.613   9.249  0.00  0.00    +0.005 A 
ATOM     14  C   UNL     1      14.138  -4.567   6.527  0.00  0.00    +0.000 A 
ATOM     15  C   UNL     1      15.460  -3.793   8.387  0.00  0.00    +0.000 A 
ATOM     16  C   UNL     1      15.161  -3.768   7.027  0.00  0.00    +0.000 A 
ENDBRANCH  10  11
ENDBRANCH   1  10
TORSDOF 2
ENDMDL
MODEL 5
REMARK VINA RESULT:    -4.295     23.386     24.248
REMARK INTER + INTRA:          -4.897
REMARK INTER:                  -4.735
REMARK INTRA:                  -0.162
REMARK UNBOUND:                -0.100
REMARK  Name = 1550473
REMARK  2 active torsions:
REMARK  status: ('A' for Active; 'I' for Inactive)
REMARK    1  A    between atoms: N_1  and  C_4
REMARK    2  A    between atoms: C_4  and  C_5
REMARK                            x       y       z     vdW  Elec       q    Type
REMARK                         _______ _______ _______ _____ _____    ______ ____
ROOT
ATOM      1  N   UNL     1     -13.746  -0.059  -2.394  0.00  0.00    -0.354 N 
ATOM      2  N   UNL     1     -13.224  -2.259  -1.893  0.00  0.00    -0.372 N 
ATOM      3  N   UNL     1     -13.500  -1.657  -4.090  0.00  0.00    -0.372 N 
ATOM      4  C   UNL     1     -13.494  -1.311  -2.798  0.00  0.00    +0.166 C 
ATOM      5  H   UNL     1     -13.756   0.133  -1.399  0.00  0.00    +0.163 HD
ATOM      6  H   UNL     1     -13.026  -3.211  -2.168  0.00  0.00    +0.159 HD
ATOM      7  H   UNL     1     -13.189  -2.054  -0.901  0.00  0.00    +0.159 HD
ATOM      8  H   UNL     1     -13.702  -0.990  -4.822  0.00  0.00    +0.159 HD
ATOM      9  H   UNL     1     -13.316  -2.608  -4.384  0.00  0.00    +0.159 HD
ENDROOT
BRANCH   1  10
ATOM     10  C   UNL     1     -13.998   1.059  -3.302  0.00  0.00    +0.151 C 
BRANCH  10  11
ATOM     11  C   UNL     1     -12.720   1.823  -3.507  0.00  0.00    -0.028 A 
ATOM     12  C   UNL     1     -11.818   2.000  -2.447  0.00  0.00    +0.005 A 
ATOM     13  C   UNL     1     -12.401   2.369  -4.760  0.00  0.00    +0.005 A 
ATOM     14  C   UNL     1     -10.616   2.684  -2.645  0.00  0.00    +0.000 A 
ATOM     15  C   UNL     1     -11.201   3.052  -4.953  0.00  0.00    +0.000 A 
ATOM     16  C   UNL     1     -10.308   3.207  -3.896  0.00  0.00    +0.000 A 
ENDBRANCH  10  11
ENDBRANCH   1  10
TORSDOF 2
ENDMDL
MODEL 6
REMARK VINA RESULT:    -4.268     25.632     26.256
REMARK INTER + INTRA:          -4.867
REMARK INTER:                  -4.739
REMARK INTRA:                  -0.127
REMARK UNBOUND:                -0.100
REMARK  Name = 1550473
REMARK  2 active torsions:
REMARK  status: ('A' for Active; 'I' for Inactive)
REMARK    1  A    between atoms: N_1  and  C_4
REMARK    2  A    between atoms: C_4  and  C_5
REMARK                            x       y       z     vdW  Elec       q    Type
REMARK                         _______ _______ _______ _____ _____    ______ ____
ROOT
ATOM      1  N   UNL     1       0.975  11.699   9.317  0.00  0.00    -0.354 N 
ATOM      2  N   UNL     1      -0.821  10.643   8.305  0.00  0.00    -0.372 N 
ATOM      3  N   UNL     1      -1.058  11.423  10.450  0.00  0.00    -0.372 N 
ATOM      4  C   UNL     1      -0.291  11.262   9.367  0.00  0.00    +0.166 C 
ATOM      5  H   UNL     1       1.513  11.520   8.478  0.00  0.00    +0.163 HD
ATOM      6  H   UNL     1      -1.774  10.305   8.312  0.00  0.00    +0.159 HD
ATOM      7  H   UNL     1      -0.295  10.506   7.451  0.00  0.00    +0.159 HD
ATOM      8  H   UNL     1      -0.716  11.877  11.286  0.00  0.00    +0.159 HD
ATOM      9  H   UNL     1      -2.011  11.082  10.480  0.00  0.00    +0.159 HD
ENDROOT
BRANCH   1  10
ATOM     10  C   UNL     1       1.629  12.433  10.399  0.00  0.00    +0.151 C 
BRANCH  10  11
ATOM     11  C   UNL     1       2.773  13.228   9.832  0.00  0.00    -0.028 A 
ATOM     12  C   UNL     1       3.122  13.107   8.478  0.00  0.00    +0.005 A 
ATOM     13  C   UNL     1       3.508  14.108  10.641  0.00  0.00    +0.005 A 
ATOM     14  C   UNL     1       4.165  13.867   7.944  0.00  0.00    +0.000 A 
ATOM     15  C   UNL     1       4.550  14.864  10.103  0.00  0.00    +0.000 A 
ATOM     16  C   UNL     1       4.876  14.745   8.755  0.00  0.00    +0.000 A 
ENDBRANCH  10  11
ENDBRANCH   1  10
TORSDOF 2
ENDMDL
MODEL 7
REMARK VINA RESULT:    -4.149     20.686     21.697
REMARK INTER + INTRA:          -4.734
REMARK INTER:                  -4.619
REMARK INTRA:                  -0.115
REMARK UNBOUND:                -0.100
REMARK  Name = 1550473
REMARK  2 active torsions:
REMARK  status: ('A' for Active; 'I' for Inactive)
REMARK    1  A    between atoms: N_1  and  C_4
REMARK    2  A    between atoms: C_4  and  C_5
REMARK                            x       y       z     vdW  Elec       q    Type
REMARK                         _______ _______ _______ _____ _____    ______ ____
ROOT
ATOM      1  N   UNL     1      -6.144   4.435   0.228  0.00  0.00    -0.354 N 
ATOM      2  N   UNL     1      -5.704   6.163   1.705  0.00  0.00    -0.372 N 
ATOM      3  N   UNL     1      -6.156   4.076   2.543  0.00  0.00    -0.372 N 
ATOM      4  C   UNL     1      -6.005   4.878   1.484  0.00  0.00    +0.166 C 
ATOM      5  H   UNL     1      -6.046   5.100  -0.531  0.00  0.00    +0.163 HD
ATOM      6  H   UNL     1      -5.590   6.526   2.642  0.00  0.00    +0.159 HD
ATOM      7  H   UNL     1      -5.562   6.816   0.944  0.00  0.00    +0.159 HD
ATOM      8  H   UNL     1      -6.389   3.097   2.445  0.00  0.00    +0.159 HD
ATOM      9  H   UNL     1      -6.057   4.423   3.489  0.00  0.00    +0.159 HD
ENDROOT
BRANCH   1  10
ATOM     10  C   UNL     1      -6.417   3.042  -0.123  0.00  0.00    +0.151 C 
BRANCH  10  11
ATOM     11  C   UNL     1      -7.520   3.000  -1.144  0.00  0.00    -0.028 A 
ATOM     12  C   UNL     1      -7.312   3.503  -2.437  0.00  0.00    +0.005 A 
ATOM     13  C   UNL     1      -8.773   2.453  -0.827  0.00  0.00    +0.005 A 
ATOM     14  C   UNL     1      -8.327   3.436  -3.395  0.00  0.00    +0.000 A 
ATOM     15  C   UNL     1      -9.783   2.390  -1.786  0.00  0.00    +0.000 A 
ATOM     16  C   UNL     1      -9.559   2.879  -3.071  0.00  0.00    +0.000 A 
ENDBRANCH  10  11
ENDBRANCH   1  10
TORSDOF 2
ENDMDL
MODEL 8
REMARK VINA RESULT:    -4.029     26.354     27.157
REMARK INTER + INTRA:          -4.600
REMARK INTER:                  -4.485
REMARK INTRA:                  -0.115
REMARK UNBOUND:                -0.100
REMARK  Name = 1550473
REMARK  2 active torsions:
REMARK  status: ('A' for Active; 'I' for Inactive)
REMARK    1  A    between atoms: N_1  and  C_4
REMARK    2  A    between atoms: C_4  and  C_5
REMARK                            x       y       z     vdW  Elec       q    Type
REMARK                         _______ _______ _______ _____ _____    ______ ____
ROOT
ATOM      1  N   UNL     1       5.100  14.268   6.877  0.00  0.00    -0.354 N 
ATOM      2  N   UNL     1       5.208  14.141   4.567  0.00  0.00    -0.372 N 
ATOM      3  N   UNL     1       6.604  15.595   5.664  0.00  0.00    -0.372 N 
ATOM      4  C   UNL     1       5.638  14.671   5.718  0.00  0.00    +0.166 C 
ATOM      5  H   UNL     1       4.351  13.587   6.849  0.00  0.00    +0.163 HD
ATOM      6  H   UNL     1       5.597  14.423   3.677  0.00  0.00    +0.159 HD
ATOM      7  H   UNL     1       4.490  13.427   4.545  0.00  0.00    +0.159 HD
ATOM      8  H   UNL     1       6.969  16.038   6.496  0.00  0.00    +0.159 HD
ATOM      9  H   UNL     1       6.998  15.898   4.782  0.00  0.00    +0.159 HD
ENDROOT
BRANCH   1  10
ATOM     10  C   UNL     1       5.535  14.743   8.189  0.00  0.00    +0.151 C 
BRANCH  10  11
ATOM     11  C   UNL     1       4.530  14.319   9.224  0.00  0.00    -0.028 A 
ATOM     12  C   UNL     1       4.304  15.106  10.363  0.00  0.00    +0.005 A 
ATOM     13  C   UNL     1       3.794  13.134   9.068  0.00  0.00    +0.005 A 
ATOM     14  C   UNL     1       3.349  14.728  11.309  0.00  0.00    +0.000 A 
ATOM     15  C   UNL     1       2.842  12.759  10.015  0.00  0.00    +0.000 A 
ATOM     16  C   UNL     1       2.617  13.557  11.134  0.00  0.00    +0.000 A 
ENDBRANCH  10  11
ENDBRANCH   1  10
TORSDOF 2
ENDMDL
MODEL 9
REMARK VINA RESULT:    -3.961     21.997     23.093
REMARK INTER + INTRA:          -4.524
REMARK INTER:                  -4.404
REMARK INTRA:                  -0.119
REMARK UNBOUND:                -0.100
REMARK  Name = 1550473
REMARK  2 active torsions:
REMARK  status: ('A' for Active; 'I' for Inactive)
REMARK    1  A    between atoms: N_1  and  C_4
REMARK    2  A    between atoms: C_4  and  C_5
REMARK                            x       y       z     vdW  Elec       q    Type
REMARK                         _______ _______ _______ _____ _____    ______ ____
ROOT
ATOM      1  N   UNL     1      15.988   1.789  18.228  0.00  0.00    -0.354 N 
ATOM      2  N   UNL     1      13.955   1.086  19.086  0.00  0.00    -0.372 N 
ATOM      3  N   UNL     1      14.694   3.201  19.578  0.00  0.00    -0.372 N 
ATOM      4  C   UNL     1      14.892   2.033  18.960  0.00  0.00    +0.166 C 
ATOM      5  H   UNL     1      16.093   0.872  17.810  0.00  0.00    +0.163 HD
ATOM      6  H   UNL     1      13.116   1.242  19.628  0.00  0.00    +0.159 HD
ATOM      7  H   UNL     1      14.041   0.187  18.628  0.00  0.00    +0.159 HD
ATOM      8  H   UNL     1      15.367   3.955  19.528  0.00  0.00    +0.159 HD
ATOM      9  H   UNL     1      13.866   3.373  20.136  0.00  0.00    +0.159 HD
ENDROOT
BRANCH   1  10
ATOM     10  C   UNL     1      17.043   2.771  17.984  0.00  0.00    +0.151 C 
BRANCH  10  11
ATOM     11  C   UNL     1      17.531   2.626  16.569  0.00  0.00    -0.028 A 
ATOM     12  C   UNL     1      17.686   1.355  15.996  0.00  0.00    +0.005 A 
ATOM     13  C   UNL     1      17.836   3.755  15.794  0.00  0.00    +0.005 A 
ATOM     14  C   UNL     1      18.111   1.221  14.672  0.00  0.00    +0.000 A 
ATOM     15  C   UNL     1      18.261   3.617  14.473  0.00  0.00    +0.000 A 
ATOM     16  C   UNL     1      18.396   2.350  13.912  0.00  0.00    +0.000 A 
ENDBRANCH  10  11
ENDBRANCH   1  10
TORSDOF 2
ENDMDL
