MODEL 1
REMARK VINA RESULT:    -4.974      0.000      0.000
REMARK INTER + INTRA:          -5.711
REMARK INTER:                  -5.556
REMARK INTRA:                  -0.155
REMARK UNBOUND:                -0.155
REMARK  Name = 1550473
REMARK  2 active torsions:
REMARK  status: ('A' for Active; 'I' for Inactive)
REMARK    1  A    between atoms: N_1  and  C_4
REMARK    2  A    between atoms: C_4  and  C_5
REMARK                            x       y       z     vdW  Elec       q    Type
REMARK                         _______ _______ _______ _____ _____    ______ ____
ROOT
ATOM      1  N   UNL     1      10.478   0.473   2.972  0.00  0.00    -0.354 N 
ATOM      2  N   UNL     1       9.931   2.243   1.582  0.00  0.00    -0.372 N 
ATOM      3  N   UNL     1      11.079   0.460   0.707  0.00  0.00    -0.372 N 
ATOM      4  C   UNL     1      10.501   1.046   1.761  0.00  0.00    +0.166 C 
ATOM      5  H   UNL     1      10.051   0.983   3.737  0.00  0.00    +0.163 HD
ATOM      6  H   UNL     1       9.929   2.699   0.679  0.00  0.00    +0.159 HD
ATOM      7  H   UNL     1       9.464   2.729   2.338  0.00  0.00    +0.159 HD
ATOM      8  H   UNL     1      11.532  -0.441   0.777  0.00  0.00    +0.159 HD
ATOM      9  H   UNL     1      11.098   0.905  -0.202  0.00  0.00    +0.159 HD
ENDROOT
BRANCH   1  10
ATOM     10  C   UNL     1      11.023  -0.852   3.261  0.00  0.00    +0.151 C 
BRANCH  10  11
ATOM     11  C   UNL     1      12.383  -0.699   3.885  0.00  0.00    -0.028 A 
ATOM     12  C   UNL     1      13.376  -1.667   3.675  0.00  0.00    +0.005 A 
ATOM     13  C   UNL     1      12.686   0.415   4.682  0.00  0.00    +0.005 A 
ATOM     14  C   UNL     1      14.648  -1.510   4.229  0.00  0.00    +0.000 A 
ATOM     15  C   UNL     1      13.958   0.568   5.235  0.00  0.00    +0.000 A 
ATOM     16  C   UNL     1      14.939  -0.394   5.007  0.00  0.00    +0.000 A 
ENDBRANCH  10  11
ENDBRANCH   1  10
TORSDOF 2
ENDMDL
MODEL 2
REMARK VINA RESULT:    -4.498     15.095     16.133
REMARK INTER + INTRA:          -5.179
REMARK INTER:                  -5.031
REMARK INTRA:                  -0.148
REMARK UNBOUND:                -0.155
REMARK  Name = 1550473
REMARK  2 active torsions:
REMARK  status: ('A' for Active; 'I' for Inactive)
REMARK    1  A    between atoms: N_1  and  C_4
REMARK    2  A    between atoms: C_4  and  C_5
REMARK                            x       y       z     vdW  Elec       q    Type
REMARK                         _______ _______ _______ _____ _____    ______ ____
ROOT
ATOM      1  N   UNL     1       4.733   6.095  -9.684  0.00  0.00    -0.354 N 
ATOM      2  N   UNL     1       5.806   7.280  -8.009  0.00  0.00    -0.372 N 
ATOM      3  N   UNL     1       3.522   7.074  -7.933  0.00  0.00    -0.372 N 
ATOM      4  C   UNL     1       4.677   6.809  -8.552  0.00  0.00    +0.166 C 
ATOM      5  H   UNL     1       5.637   5.955 -10.121  0.00  0.00    +0.163 HD
ATOM      6  H   UNL     1       5.796   7.819  -7.153  0.00  0.00    +0.159 HD
ATOM      7  H   UNL     1       6.713   7.100  -8.422  0.00  0.00    +0.159 HD
ATOM      8  H   UNL     1       2.634   6.752  -8.295  0.00  0.00    +0.159 HD
ATOM      9  H   UNL     1       3.490   7.621  -7.082  0.00  0.00    +0.159 HD
ENDROOT
BRANCH   1  10
ATOM     10  C   UNL     1       3.568   5.491 -10.328  0.00  0.00    +0.151 C 
BRANCH  10  11
ATOM     11  C   UNL     1       3.386   4.093  -9.804  0.00  0.00    -0.028 A 
ATOM     12  C   UNL     1       4.495   3.261  -9.595  0.00  0.00    +0.005 A 
ATOM     13  C   UNL     1       2.107   3.598  -9.508  0.00  0.00    +0.005 A 
ATOM     14  C   UNL     1       4.329   1.973  -9.080  0.00  0.00    +0.000 A 
ATOM     15  C   UNL     1       1.945   2.311  -8.994  0.00  0.00    +0.000 A 
ATOM     16  C   UNL     1       3.057   1.500  -8.778  0.00  0.00    +0.000 A 
ENDBRANCH  10  11
ENDBRANCH   1  10
TORSDOF 2
ENDMDL
MODEL 3
REMARK VINA RESULT:    -4.351      2.057      2.876
REMARK INTER + INTRA:          -5.014
REMARK INTER:                  -4.844
REMARK INTRA:                  -0.170
REMARK UNBOUND:                -0.155
REMARK  Name = 1550473
REMARK  2 active torsions:
REMARK  status: ('A' for Active; 'I' for Inactive)
REMARK    1  A    between atoms: N_1  and  C_4
REMARK    2  A    between atoms: C_4  and  C_5
REMARK                            x       y       z     vdW  Elec       q    Type
REMARK                         _______ _______ _______ _____ _____    ______ ____
ROOT
ATOM      1  N   UNL     1      10.830   0.008   1.859  0.00  0.00    -0.354 N 
ATOM      2  N   UNL     1       8.772  -1.010   2.157  0.00  0.00    -0.372 N 
ATOM      3  N   UNL     1      10.678  -2.222   2.561  0.00  0.00    -0.372 N 
ATOM      4  C   UNL     1      10.109  -1.070   2.191  0.00  0.00    +0.166 C 
ATOM      5  H   UNL     1      10.339   0.842   1.557  0.00  0.00    +0.163 HD
ATOM      6  H   UNL     1       8.201  -1.807   2.406  0.00  0.00    +0.159 HD
ATOM      7  H   UNL     1       8.283  -0.162   1.900  0.00  0.00    +0.159 HD
ATOM      8  H   UNL     1      11.682  -2.335   2.602  0.00  0.00    +0.159 HD
ATOM      9  H   UNL     1      10.123  -3.034   2.803  0.00  0.00    +0.159 HD
ENDROOT
BRANCH   1  10
ATOM     10  C   UNL     1      12.290   0.064   1.914  0.00  0.00    +0.151 C 
BRANCH  10  11
ATOM     11  C   UNL     1      12.705   0.975   3.036  0.00  0.00    -0.028 A 
ATOM     12  C   UNL     1      13.041   2.312   2.780  0.00  0.00    +0.005 A 
ATOM     13  C   UNL     1      12.759   0.508   4.358  0.00  0.00    +0.005 A 
ATOM     14  C   UNL     1      13.397   3.167   3.826  0.00  0.00    +0.000 A 
ATOM     15  C   UNL     1      13.116   1.364   5.400  0.00  0.00    +0.000 A 
ATOM     16  C   UNL     1      13.432   2.694   5.134  0.00  0.00    +0.000 A 
ENDBRANCH  10  11
ENDBRANCH   1  10
TORSDOF 2
ENDMDL
MODEL 4
REMARK VINA RESULT:    -4.222     13.163     16.059
REMARK INTER + INTRA:          -4.871
REMARK INTER:                  -4.754
REMARK INTRA:                  -0.117
REMARK UNBOUND:                -0.155
REMARK  Name = 1550473
REMARK  2 active torsions:
REMARK  status: ('A' for Active; 'I' for Inactive)
REMARK    1  A    between atoms: N_1  and  C_4
REMARK    2  A    between atoms: C_4  and  C_5
REMARK                            x       y       z     vdW  Elec       q    Type
REMARK                         _______ _______ _______ _____ _____    ______ ____
ROOT
ATOM      1  N   UNL     1       4.861   0.522  -8.446  0.00  0.00    -0.354 N 
ATOM      2  N   UNL     1       6.342  -1.174  -7.906  0.00  0.00    -0.372 N 
ATOM      3  N   UNL     1       7.118   0.983  -8.016  0.00  0.00    -0.372 N 
ATOM      4  C   UNL     1       6.099   0.124  -8.126  0.00  0.00    +0.166 C 
ATOM      5  H   UNL     1       4.138  -0.182  -8.544  0.00  0.00    +0.163 HD
ATOM      6  H   UNL     1       7.265  -1.504  -7.659  0.00  0.00    +0.159 HD
ATOM      7  H   UNL     1       5.608  -1.870  -7.959  0.00  0.00    +0.159 HD
ATOM      8  H   UNL     1       7.002   1.974  -8.175  0.00  0.00    +0.159 HD
ATOM      9  H   UNL     1       8.052   0.670  -7.781  0.00  0.00    +0.159 HD
ENDROOT
BRANCH   1  10
ATOM     10  C   UNL     1       4.479   1.918  -8.654  0.00  0.00    +0.151 C 
BRANCH  10  11
ATOM     11  C   UNL     1       3.182   1.965  -9.413  0.00  0.00    -0.028 A 
ATOM     12  C   UNL     1       2.965   1.111 -10.505  0.00  0.00    +0.005 A 
ATOM     13  C   UNL     1       2.164   2.858  -9.044  0.00  0.00    +0.005 A 
ATOM     14  C   UNL     1       1.749   1.133 -11.192  0.00  0.00    +0.000 A 
ATOM     15  C   UNL     1       0.952   2.877  -9.733  0.00  0.00    +0.000 A 
ATOM     16  C   UNL     1       0.744   2.013 -10.806  0.00  0.00    +0.000 A 
ENDBRANCH  10  11
ENDBRANCH   1  10
TORSDOF 2
ENDMDL
MODEL 5
REMARK VINA RESULT:    -4.200      3.334      4.645
REMARK INTER + INTRA:          -4.846
REMARK INTER:                  -4.696
REMARK INTRA:                  -0.150
REMARK UNBOUND:                -0.155
REMARK  Name = 1550473
REMARK  2 active torsions:
REMARK  status: ('A' for Active; 'I' for Inactive)
REMARK    1  A    between atoms: N_1  and  C_4
REMARK    2  A    between atoms: C_4  and  C_5
REMARK                            x       y       z     vdW  Elec       q    Type
REMARK                         _______ _______ _______ _____ _____    ______ ____
ROOT
ATOM      1  N   UNL     1      11.312   1.271   2.753  0.00  0.00    -0.354 N 
ATOM      2  N   UNL     1       9.419   0.014   2.306  0.00  0.00    -0.372 N 
ATOM      3  N   UNL     1      11.054   0.164   0.704  0.00  0.00    -0.372 N 
ATOM      4  C   UNL     1      10.609   0.491   1.922  0.00  0.00    +0.166 C 
ATOM      5  H   UNL     1      10.905   1.507   3.651  0.00  0.00    +0.163 HD
ATOM      6  H   UNL     1       8.867  -0.580   1.702  0.00  0.00    +0.159 HD
ATOM      7  H   UNL     1       9.035   0.214   3.222  0.00  0.00    +0.159 HD
ATOM      8  H   UNL     1      11.942   0.496   0.352  0.00  0.00    +0.159 HD
ATOM      9  H   UNL     1      10.511  -0.420   0.080  0.00  0.00    +0.159 HD
ENDROOT
BRANCH   1  10
ATOM     10  C   UNL     1      12.642   1.798   2.452  0.00  0.00    +0.151 C 
BRANCH  10  11
ATOM     11  C   UNL     1      12.582   3.300   2.431  0.00  0.00    -0.028 A 
ATOM     12  C   UNL     1      11.734   3.967   1.535  0.00  0.00    +0.005 A 
ATOM     13  C   UNL     1      13.367   4.063   3.310  0.00  0.00    +0.005 A 
ATOM     14  C   UNL     1      11.656   5.362   1.536  0.00  0.00    +0.000 A 
ATOM     15  C   UNL     1      13.287   5.455   3.307  0.00  0.00    +0.000 A 
ATOM     16  C   UNL     1      12.429   6.104   2.422  0.00  0.00    +0.000 A 
ENDBRANCH  10  11
ENDBRANCH   1  10
TORSDOF 2
ENDMDL
MODEL 6
REMARK VINA RESULT:    -4.115     21.855     23.188
REMARK INTER + INTRA:          -4.752
REMARK INTER:                  -4.577
REMARK INTRA:                  -0.174
REMARK UNBOUND:                -0.155
REMARK  Name = 1550473
REMARK  2 active torsions:
REMARK  status: ('A' for Active; 'I' for Inactive)
REMARK    1  A    between atoms: N_1  and  C_4
REMARK    2  A    between atoms: C_4  and  C_5
REMARK                            x       y       z     vdW  Elec       q    Type
REMARK                         _______ _______ _______ _____ _____    ______ ____
ROOT
ATOM      1  N   UNL     1      -4.532 -13.321  10.969  0.00  0.00    -0.354 N 
ATOM      2  N   UNL     1      -3.478 -13.413  13.029  0.00  0.00    -0.372 N 
ATOM      3  N   UNL     1      -2.983 -11.682  11.606  0.00  0.00    -0.372 N 
ATOM      4  C   UNL     1      -3.670 -12.803  11.853  0.00  0.00    +0.166 C 
ATOM      5  H   UNL     1      -4.999 -14.189  11.204  0.00  0.00    +0.163 HD
ATOM      6  H   UNL     1      -2.836 -13.044  13.718  0.00  0.00    +0.159 HD
ATOM      7  H   UNL     1      -3.980 -14.256  13.280  0.00  0.00    +0.159 HD
ATOM      8  H   UNL     1      -3.078 -11.177  10.735  0.00  0.00    +0.159 HD
ATOM      9  H   UNL     1      -2.327 -11.303  12.278  0.00  0.00    +0.159 HD
ENDROOT
BRANCH   1  10
ATOM     10  C   UNL     1      -4.853 -12.705   9.683  0.00  0.00    +0.151 C 
BRANCH  10  11
ATOM     11  C   UNL     1      -6.062 -11.826   9.847  0.00  0.00    -0.028 A 
ATOM     12  C   UNL     1      -5.988 -10.453   9.570  0.00  0.00    +0.005 A 
ATOM     13  C   UNL     1      -7.287 -12.361  10.275  0.00  0.00    +0.005 A 
ATOM     14  C   UNL     1      -7.118  -9.642   9.694  0.00  0.00    +0.000 A 
ATOM     15  C   UNL     1      -8.413 -11.548  10.399  0.00  0.00    +0.000 A 
ATOM     16  C   UNL     1      -8.329 -10.189  10.105  0.00  0.00    +0.000 A 
ENDBRANCH  10  11
ENDBRANCH   1  10
TORSDOF 2
ENDMDL
MODEL 7
REMARK VINA RESULT:    -4.109     20.216     21.259
REMARK INTER + INTRA:          -4.745
REMARK INTER:                  -4.569
REMARK INTRA:                  -0.175
REMARK UNBOUND:                -0.155
REMARK  Name = 1550473
REMARK  2 active torsions:
REMARK  status: ('A' for Active; 'I' for Inactive)
REMARK    1  A    between atoms: N_1  and  C_4
REMARK    2  A    between atoms: C_4  and  C_5
REMARK                            x       y       z     vdW  Elec       q    Type
REMARK                         _______ _______ _______ _____ _____    ______ ____
ROOT
ATOM      1  N   UNL     1      -6.814  -4.078  10.151  0.00  0.00    -0.354 N 
ATOM      2  N   UNL     1      -7.698  -3.487   8.093  0.00  0.00    -0.372 N 
ATOM      3  N   UNL     1      -9.124  -3.807   9.862  0.00  0.00    -0.372 N 
ATOM      4  C   UNL     1      -7.875  -3.795   9.384  0.00  0.00    +0.166 C 
ATOM      5  H   UNL     1      -5.896  -4.081   9.721  0.00  0.00    +0.163 HD
ATOM      6  H   UNL     1      -8.479  -3.266   7.491  0.00  0.00    +0.159 HD
ATOM      7  H   UNL     1      -6.775  -3.447   7.677  0.00  0.00    +0.159 HD
ATOM      8  H   UNL     1      -9.326  -4.037  10.826  0.00  0.00    +0.159 HD
ATOM      9  H   UNL     1      -9.920  -3.599   9.272  0.00  0.00    +0.159 HD
ENDROOT
BRANCH   1  10
ATOM     10  C   UNL     1      -6.894  -4.373  11.580  0.00  0.00    +0.151 C 
BRANCH  10  11
ATOM     11  C   UNL     1      -6.600  -3.119  12.358  0.00  0.00    -0.028 A 
ATOM     12  C   UNL     1      -7.645  -2.338  12.871  0.00  0.00    +0.005 A 
ATOM     13  C   UNL     1      -5.277  -2.711  12.589  0.00  0.00    +0.005 A 
ATOM     14  C   UNL     1      -7.372  -1.190  13.619  0.00  0.00    +0.000 A 
ATOM     15  C   UNL     1      -5.009  -1.563  13.335  0.00  0.00    +0.000 A 
ATOM     16  C   UNL     1      -6.056  -0.805  13.852  0.00  0.00    +0.000 A 
ENDBRANCH  10  11
ENDBRANCH   1  10
TORSDOF 2
ENDMDL
MODEL 8
REMARK VINA RESULT:    -3.984      2.631      4.586
REMARK INTER + INTRA:          -4.605
REMARK INTER:                  -4.474
REMARK INTRA:                  -0.131
REMARK UNBOUND:                -0.155
REMARK  Name = 1550473
REMARK  2 active torsions:
REMARK  status: ('A' for Active; 'I' for Inactive)
REMARK    1  A    between atoms: N_1  and  C_4
REMARK    2  A    between atoms: C_4  and  C_5
REMARK                            x       y       z     vdW  Elec       q    Type
REMARK                         _______ _______ _______ _____ _____    ______ ____
ROOT
ATOM      1  N   UNL     1      12.990  -0.351   4.128  0.00  0.00    -0.354 N 
ATOM      2  N   UNL     1      14.717  -1.892   4.028  0.00  0.00    -0.372 N 
ATOM      3  N   UNL     1      12.564  -2.616   3.701  0.00  0.00    -0.372 N 
ATOM      4  C   UNL     1      13.410  -1.611   3.953  0.00  0.00    +0.166 C 
ATOM      5  H   UNL     1      13.679   0.360   4.346  0.00  0.00    +0.163 HD
ATOM      6  H   UNL     1      15.064  -2.832   3.897  0.00  0.00    +0.159 HD
ATOM      7  H   UNL     1      15.408  -1.171   4.200  0.00  0.00    +0.159 HD
ATOM      8  H   UNL     1      11.565  -2.472   3.638  0.00  0.00    +0.159 HD
ATOM      9  H   UNL     1      12.891  -3.566   3.579  0.00  0.00    +0.159 HD
ENDROOT
BRANCH   1  10
ATOM     10  C   UNL     1      11.595   0.069   4.014  0.00  0.00    +0.151 C 
BRANCH  10  11
ATOM     11  C   UNL     1      11.513   1.254   3.092  0.00  0.00    -0.028 A 
ATOM     12  C   UNL     1      10.426   1.403   2.218  0.00  0.00    +0.005 A 
ATOM     13  C   UNL     1      12.516   2.235   3.092  0.00  0.00    +0.005 A 
ATOM     14  C   UNL     1      10.334   2.519   1.383  0.00  0.00    +0.000 A 
ATOM     15  C   UNL     1      12.421   3.348   2.257  0.00  0.00    +0.000 A 
ATOM     16  C   UNL     1      11.329   3.491   1.404  0.00  0.00    +0.000 A 
ENDBRANCH  10  11
ENDBRANCH   1  10
TORSDOF 2
ENDMDL
MODEL 9
REMARK VINA RESULT:    -3.889      2.153      3.240
REMARK INTER + INTRA:          -4.499
REMARK INTER:                  -4.319
REMARK INTRA:                  -0.180
REMARK UNBOUND:                -0.155
REMARK  Name = 1550473
REMARK  2 active torsions:
REMARK  status: ('A' for Active; 'I' for Inactive)
REMARK    1  A    between atoms: N_1  and  C_4
REMARK    2  A    between atoms: C_4  and  C_5
REMARK                            x       y       z     vdW  Elec       q    Type
REMARK                         _______ _______ _______ _____ _____    ______ ____
ROOT
ATOM      1  N   UNL     1      11.957   3.243   1.728  0.00  0.00    -0.354 N 
ATOM      2  N   UNL     1       9.766   3.004   1.015  0.00  0.00    -0.372 N 
ATOM      3  N   UNL     1      11.141   1.167   1.010  0.00  0.00    -0.372 N 
ATOM      4  C   UNL     1      10.970   2.470   1.255  0.00  0.00    +0.166 C 
ATOM      5  H   UNL     1      11.772   4.230   1.865  0.00  0.00    +0.163 HD
ATOM      6  H   UNL     1       9.002   2.445   0.661  0.00  0.00    +0.159 HD
ATOM      7  H   UNL     1       9.571   3.981   1.196  0.00  0.00    +0.159 HD
ATOM      8  H   UNL     1      12.027   0.705   1.164  0.00  0.00    +0.159 HD
ATOM      9  H   UNL     1      10.391   0.593   0.644  0.00  0.00    +0.159 HD
ENDROOT
BRANCH   1  10
ATOM     10  C   UNL     1      13.288   2.749   2.074  0.00  0.00    +0.151 C 
BRANCH  10  11
ATOM     11  C   UNL     1      13.365   2.541   3.561  0.00  0.00    -0.028 A 
ATOM     12  C   UNL     1      13.668   3.612   4.415  0.00  0.00    +0.005 A 
ATOM     13  C   UNL     1      13.129   1.277   4.123  0.00  0.00    +0.005 A 
ATOM     14  C   UNL     1      13.709   3.426   5.799  0.00  0.00    +0.000 A 
ATOM     15  C   UNL     1      13.173   1.096   5.506  0.00  0.00    +0.000 A 
ATOM     16  C   UNL     1      13.460   2.171   6.343  0.00  0.00    +0.000 A 
ENDBRANCH  10  11
ENDBRANCH   1  10
TORSDOF 2
ENDMDL
