MODEL 1
REMARK VINA RESULT:    -6.091      0.000      0.000
REMARK INTER + INTRA:          -6.969
REMARK INTER:                  -6.804
REMARK INTRA:                  -0.166
REMARK UNBOUND:                -0.166
REMARK  Name = 1550473
REMARK  2 active torsions:
REMARK  status: ('A' for Active; 'I' for Inactive)
REMARK    1  A    between atoms: N_1  and  C_4
REMARK    2  A    between atoms: C_4  and  C_5
REMARK                            x       y       z     vdW  Elec       q    Type
REMARK                         _______ _______ _______ _____ _____    ______ ____
ROOT
ATOM      1  N   UNL     1       1.648 -16.814 -13.108  0.00  0.00    -0.354 N 
ATOM      2  N   UNL     1       3.411 -17.679 -14.337  0.00  0.00    -0.372 N 
ATOM      3  N   UNL     1       1.281 -18.407 -14.788  0.00  0.00    -0.372 N 
ATOM      4  C   UNL     1       2.100 -17.629 -14.071  0.00  0.00    +0.166 C 
ATOM      5  H   UNL     1       2.323 -16.273 -12.580  0.00  0.00    +0.163 HD
ATOM      6  H   UNL     1       3.780 -18.282 -15.060  0.00  0.00    +0.159 HD
ATOM      7  H   UNL     1       4.078 -17.103 -13.839  0.00  0.00    +0.159 HD
ATOM      8  H   UNL     1       0.282 -18.420 -14.632  0.00  0.00    +0.159 HD
ATOM      9  H   UNL     1       1.634 -19.025 -15.508  0.00  0.00    +0.159 HD
ENDROOT
BRANCH   1  10
ATOM     10  C   UNL     1       0.235 -16.645 -12.776  0.00  0.00    +0.151 C 
BRANCH  10  11
ATOM     11  C   UNL     1      -0.306 -15.454 -13.519  0.00  0.00    -0.028 A 
ATOM     12  C   UNL     1       0.452 -14.279 -13.627  0.00  0.00    +0.005 A 
ATOM     13  C   UNL     1      -1.572 -15.497 -14.122  0.00  0.00    +0.005 A 
ATOM     14  C   UNL     1      -0.037 -13.183 -14.343  0.00  0.00    +0.000 A 
ATOM     15  C   UNL     1      -2.057 -14.401 -14.835  0.00  0.00    +0.000 A 
ATOM     16  C   UNL     1      -1.288 -13.245 -14.947  0.00  0.00    +0.000 A 
ENDBRANCH  10  11
ENDBRANCH   1  10
TORSDOF 2
ENDMDL
MODEL 2
REMARK VINA RESULT:    -5.955      2.383      2.966
REMARK INTER + INTRA:          -6.817
REMARK INTER:                  -6.679
REMARK INTRA:                  -0.138
REMARK UNBOUND:                -0.166
REMARK  Name = 1550473
REMARK  2 active torsions:
REMARK  status: ('A' for Active; 'I' for Inactive)
REMARK    1  A    between atoms: N_1  and  C_4
REMARK    2  A    between atoms: C_4  and  C_5
REMARK                            x       y       z     vdW  Elec       q    Type
REMARK                         _______ _______ _______ _____ _____    ______ ____
ROOT
ATOM      1  N   UNL     1       0.884 -19.586 -13.906  0.00  0.00    -0.354 N 
ATOM      2  N   UNL     1       0.446 -21.856 -14.034  0.00  0.00    -0.372 N 
ATOM      3  N   UNL     1       0.091 -20.769 -12.044  0.00  0.00    -0.372 N 
ATOM      4  C   UNL     1       0.476 -20.722 -13.324  0.00  0.00    +0.166 C 
ATOM      5  H   UNL     1       1.192 -19.622 -14.871  0.00  0.00    +0.163 HD
ATOM      6  H   UNL     1       0.139 -22.728 -13.623  0.00  0.00    +0.159 HD
ATOM      7  H   UNL     1       0.710 -21.881 -15.011  0.00  0.00    +0.159 HD
ATOM      8  H   UNL     1       0.097 -19.948 -11.453  0.00  0.00    +0.159 HD
ATOM      9  H   UNL     1      -0.207 -21.634 -11.612  0.00  0.00    +0.159 HD
ENDROOT
BRANCH   1  10
ATOM     10  C   UNL     1       0.904 -18.286 -13.237  0.00  0.00    +0.151 C 
BRANCH  10  11
ATOM     11  C   UNL     1       0.063 -17.317 -14.022  0.00  0.00    -0.028 A 
ATOM     12  C   UNL     1      -0.034 -15.975 -13.625  0.00  0.00    +0.005 A 
ATOM     13  C   UNL     1      -0.634 -17.733 -15.166  0.00  0.00    +0.005 A 
ATOM     14  C   UNL     1      -0.790 -15.068 -14.371  0.00  0.00    +0.000 A 
ATOM     15  C   UNL     1      -1.389 -16.824 -15.907  0.00  0.00    +0.000 A 
ATOM     16  C   UNL     1      -1.465 -15.491 -15.511  0.00  0.00    +0.000 A 
ENDBRANCH  10  11
ENDBRANCH   1  10
TORSDOF 2
ENDMDL
MODEL 3
REMARK VINA RESULT:    -5.903      1.452      2.405
REMARK INTER + INTRA:          -6.759
REMARK INTER:                  -6.612
REMARK INTRA:                  -0.147
REMARK UNBOUND:                -0.166
REMARK  Name = 1550473
REMARK  2 active torsions:
REMARK  status: ('A' for Active; 'I' for Inactive)
REMARK    1  A    between atoms: N_1  and  C_4
REMARK    2  A    between atoms: C_4  and  C_5
REMARK                            x       y       z     vdW  Elec       q    Type
REMARK                         _______ _______ _______ _____ _____    ______ ____
ROOT
ATOM      1  N   UNL     1      -0.686 -18.036 -13.229  0.00  0.00    -0.354 N 
ATOM      2  N   UNL     1      -0.954 -20.126 -14.190  0.00  0.00    -0.372 N 
ATOM      3  N   UNL     1       1.104 -19.115 -14.289  0.00  0.00    -0.372 N 
ATOM      4  C   UNL     1      -0.174 -19.078 -13.897  0.00  0.00    +0.166 C 
ATOM      5  H   UNL     1      -1.670 -18.056 -12.987  0.00  0.00    +0.163 HD
ATOM      6  H   UNL     1      -0.594 -20.928 -14.690  0.00  0.00    +0.159 HD
ATOM      7  H   UNL     1      -1.925 -20.163 -13.907  0.00  0.00    +0.159 HD
ATOM      8  H   UNL     1       1.743 -18.353 -14.105  0.00  0.00    +0.159 HD
ATOM      9  H   UNL     1       1.479 -19.904 -14.801  0.00  0.00    +0.159 HD
ENDROOT
BRANCH   1  10
ATOM     10  C   UNL     1       0.091 -16.869 -12.814  0.00  0.00    +0.151 C 
BRANCH  10  11
ATOM     11  C   UNL     1      -0.416 -15.656 -13.544  0.00  0.00    -0.028 A 
ATOM     12  C   UNL     1      -1.639 -15.698 -14.231  0.00  0.00    +0.005 A 
ATOM     13  C   UNL     1       0.318 -14.461 -13.549  0.00  0.00    +0.005 A 
ATOM     14  C   UNL     1      -2.125 -14.562 -14.884  0.00  0.00    +0.000 A 
ATOM     15  C   UNL     1      -0.170 -13.329 -14.203  0.00  0.00    +0.000 A 
ATOM     16  C   UNL     1      -1.393 -13.380 -14.868  0.00  0.00    +0.000 A 
ENDBRANCH  10  11
ENDBRANCH   1  10
TORSDOF 2
ENDMDL
MODEL 4
REMARK VINA RESULT:    -5.713      2.580      3.692
REMARK INTER + INTRA:          -6.547
REMARK INTER:                  -6.406
REMARK INTRA:                  -0.141
REMARK UNBOUND:                -0.166
REMARK  Name = 1550473
REMARK  2 active torsions:
REMARK  status: ('A' for Active; 'I' for Inactive)
REMARK    1  A    between atoms: N_1  and  C_4
REMARK    2  A    between atoms: C_4  and  C_5
REMARK                            x       y       z     vdW  Elec       q    Type
REMARK                         _______ _______ _______ _____ _____    ______ ____
ROOT
ATOM      1  N   UNL     1       0.313 -15.875 -10.941  0.00  0.00    -0.354 N 
ATOM      2  N   UNL     1       1.208 -15.157  -8.929  0.00  0.00    -0.372 N 
ATOM      3  N   UNL     1      -1.073 -15.245  -9.159  0.00  0.00    -0.372 N 
ATOM      4  C   UNL     1       0.141 -15.430  -9.689  0.00  0.00    +0.166 C 
ATOM      5  H   UNL     1       1.258 -15.965 -11.294  0.00  0.00    +0.163 HD
ATOM      6  H   UNL     1       1.110 -14.823  -7.980  0.00  0.00    +0.159 HD
ATOM      7  H   UNL     1       2.153 -15.292  -9.269  0.00  0.00    +0.159 HD
ATOM      8  H   UNL     1      -1.919 -15.427  -9.682  0.00  0.00    +0.159 HD
ATOM      9  H   UNL     1      -1.192 -14.901  -8.214  0.00  0.00    +0.159 HD
ENDROOT
BRANCH   1  10
ATOM     10  C   UNL     1      -0.783 -16.252 -11.832  0.00  0.00    +0.151 C 
BRANCH  10  11
ATOM     11  C   UNL     1      -0.927 -15.205 -12.903  0.00  0.00    -0.028 A 
ATOM     12  C   UNL     1      -2.099 -15.128 -13.669  0.00  0.00    +0.005 A 
ATOM     13  C   UNL     1       0.103 -14.285 -13.152  0.00  0.00    +0.005 A 
ATOM     14  C   UNL     1      -2.246 -14.137 -14.643  0.00  0.00    +0.000 A 
ATOM     15  C   UNL     1      -0.047 -13.298 -14.126  0.00  0.00    +0.000 A 
ATOM     16  C   UNL     1      -1.223 -13.223 -14.870  0.00  0.00    +0.000 A 
ENDBRANCH  10  11
ENDBRANCH   1  10
TORSDOF 2
ENDMDL
MODEL 5
REMARK VINA RESULT:    -5.686      2.455      3.447
REMARK INTER + INTRA:          -6.517
REMARK INTER:                  -6.370
REMARK INTRA:                  -0.146
REMARK UNBOUND:                -0.166
REMARK  Name = 1550473
REMARK  2 active torsions:
REMARK  status: ('A' for Active; 'I' for Inactive)
REMARK    1  A    between atoms: N_1  and  C_4
REMARK    2  A    between atoms: C_4  and  C_5
REMARK                            x       y       z     vdW  Elec       q    Type
REMARK                         _______ _______ _______ _____ _____    ______ ____
ROOT
ATOM      1  N   UNL     1      -0.230 -17.602 -13.239  0.00  0.00    -0.354 N 
ATOM      2  N   UNL     1       1.042 -18.406 -14.999  0.00  0.00    -0.372 N 
ATOM      3  N   UNL     1      -0.795 -17.112 -15.460  0.00  0.00    -0.372 N 
ATOM      4  C   UNL     1      -0.005 -17.700 -14.556  0.00  0.00    +0.166 C 
ATOM      5  H   UNL     1       0.388 -18.097 -12.607  0.00  0.00    +0.163 HD
ATOM      6  H   UNL     1       1.240 -18.495 -15.987  0.00  0.00    +0.159 HD
ATOM      7  H   UNL     1       1.686 -18.862 -14.363  0.00  0.00    +0.159 HD
ATOM      8  H   UNL     1      -1.605 -16.569 -15.191  0.00  0.00    +0.159 HD
ATOM      9  H   UNL     1      -0.621 -17.199 -16.454  0.00  0.00    +0.159 HD
ENDROOT
BRANCH   1  10
ATOM     10  C   UNL     1      -1.312 -16.813 -12.651  0.00  0.00    +0.151 C 
BRANCH  10  11
ATOM     11  C   UNL     1      -0.728 -15.838 -11.667  0.00  0.00    -0.028 A 
ATOM     12  C   UNL     1      -0.996 -15.964 -10.296  0.00  0.00    +0.005 A 
ATOM     13  C   UNL     1       0.098 -14.788 -12.097  0.00  0.00    +0.005 A 
ATOM     14  C   UNL     1      -0.430 -15.076  -9.377  0.00  0.00    +0.000 A 
ATOM     15  C   UNL     1       0.660 -13.903 -11.178  0.00  0.00    +0.000 A 
ATOM     16  C   UNL     1       0.398 -14.049  -9.817  0.00  0.00    +0.000 A 
ENDBRANCH  10  11
ENDBRANCH   1  10
TORSDOF 2
ENDMDL
MODEL 6
REMARK VINA RESULT:    -5.403     23.368     24.215
REMARK INTER + INTRA:          -6.200
REMARK INTER:                  -6.077
REMARK INTRA:                  -0.124
REMARK UNBOUND:                -0.166
REMARK  Name = 1550473
REMARK  2 active torsions:
REMARK  status: ('A' for Active; 'I' for Inactive)
REMARK    1  A    between atoms: N_1  and  C_4
REMARK    2  A    between atoms: C_4  and  C_5
REMARK                            x       y       z     vdW  Elec       q    Type
REMARK                         _______ _______ _______ _____ _____    ______ ____
ROOT
ATOM      1  N   UNL     1      -6.972  -1.670   5.837  0.00  0.00    -0.354 N 
ATOM      2  N   UNL     1      -5.454  -2.743   7.218  0.00  0.00    -0.372 N 
ATOM      3  N   UNL     1      -7.646  -3.421   7.242  0.00  0.00    -0.372 N 
ATOM      4  C   UNL     1      -6.703  -2.606   6.758  0.00  0.00    +0.166 C 
ATOM      5  H   UNL     1      -6.220  -1.064   5.533  0.00  0.00    +0.163 HD
ATOM      6  H   UNL     1      -5.220  -3.443   7.910  0.00  0.00    +0.159 HD
ATOM      7  H   UNL     1      -4.694  -2.166   6.878  0.00  0.00    +0.159 HD
ATOM      8  H   UNL     1      -8.610  -3.364   6.940  0.00  0.00    +0.159 HD
ATOM      9  H   UNL     1      -7.434  -4.119   7.944  0.00  0.00    +0.159 HD
ENDROOT
BRANCH   1  10
ATOM     10  C   UNL     1      -8.288  -1.474   5.232  0.00  0.00    +0.151 C 
BRANCH  10  11
ATOM     11  C   UNL     1      -8.376  -2.290   3.972  0.00  0.00    -0.028 A 
ATOM     12  C   UNL     1      -7.234  -2.517   3.190  0.00  0.00    +0.005 A 
ATOM     13  C   UNL     1      -9.597  -2.844   3.557  0.00  0.00    +0.005 A 
ATOM     14  C   UNL     1      -7.309  -3.301   2.035  0.00  0.00    +0.000 A 
ATOM     15  C   UNL     1      -9.667  -3.625   2.404  0.00  0.00    +0.000 A 
ATOM     16  C   UNL     1      -8.523  -3.855   1.645  0.00  0.00    +0.000 A 
ENDBRANCH  10  11
ENDBRANCH   1  10
TORSDOF 2
ENDMDL
MODEL 7
REMARK VINA RESULT:    -5.373     21.438     22.438
REMARK INTER + INTRA:          -6.167
REMARK INTER:                  -5.991
REMARK INTRA:                  -0.176
REMARK UNBOUND:                -0.166
REMARK  Name = 1550473
REMARK  2 active torsions:
REMARK  status: ('A' for Active; 'I' for Inactive)
REMARK    1  A    between atoms: N_1  and  C_4
REMARK    2  A    between atoms: C_4  and  C_5
REMARK                            x       y       z     vdW  Elec       q    Type
REMARK                         _______ _______ _______ _____ _____    ______ ____
ROOT
ATOM      1  N   UNL     1      -7.202  -0.259   2.024  0.00  0.00    -0.354 N 
ATOM      2  N   UNL     1      -5.048   0.251   2.706  0.00  0.00    -0.372 N 
ATOM      3  N   UNL     1      -6.281  -1.236   3.945  0.00  0.00    -0.372 N 
ATOM      4  C   UNL     1      -6.192  -0.420   2.889  0.00  0.00    +0.166 C 
ATOM      5  H   UNL     1      -7.083   0.398   1.262  0.00  0.00    +0.163 HD
ATOM      6  H   UNL     1      -4.268   0.147   3.340  0.00  0.00    +0.159 HD
ATOM      7  H   UNL     1      -4.915   0.872   1.917  0.00  0.00    +0.159 HD
ATOM      8  H   UNL     1      -7.119  -1.766   4.143  0.00  0.00    +0.159 HD
ATOM      9  H   UNL     1      -5.515  -1.344   4.597  0.00  0.00    +0.159 HD
ENDROOT
BRANCH   1  10
ATOM     10  C   UNL     1      -8.470  -0.983   2.104  0.00  0.00    +0.151 C 
BRANCH  10  11
ATOM     11  C   UNL     1      -8.399  -2.195   1.217  0.00  0.00    -0.028 A 
ATOM     12  C   UNL     1      -8.511  -2.067  -0.175  0.00  0.00    +0.005 A 
ATOM     13  C   UNL     1      -8.215  -3.475   1.763  0.00  0.00    +0.005 A 
ATOM     14  C   UNL     1      -8.415  -3.189  -1.001  0.00  0.00    +0.000 A 
ATOM     15  C   UNL     1      -8.121  -4.593   0.934  0.00  0.00    +0.000 A 
ATOM     16  C   UNL     1      -8.219  -4.450  -0.447  0.00  0.00    +0.000 A 
ENDBRANCH  10  11
ENDBRANCH   1  10
TORSDOF 2
ENDMDL
MODEL 8
REMARK VINA RESULT:    -5.240     23.493     24.380
REMARK INTER + INTRA:          -6.018
REMARK INTER:                  -5.840
REMARK INTRA:                  -0.179
REMARK UNBOUND:                -0.166
REMARK  Name = 1550473
REMARK  2 active torsions:
REMARK  status: ('A' for Active; 'I' for Inactive)
REMARK    1  A    between atoms: N_1  and  C_4
REMARK    2  A    between atoms: C_4  and  C_5
REMARK                            x       y       z     vdW  Elec       q    Type
REMARK                         _______ _______ _______ _____ _____    ______ ____
ROOT
ATOM      1  N   UNL     1      -7.873  -3.016   6.022  0.00  0.00    -0.354 N 
ATOM      2  N   UNL     1      -8.684  -3.951   7.980  0.00  0.00    -0.372 N 
ATOM      3  N   UNL     1      -9.761  -2.130   7.091  0.00  0.00    -0.372 N 
ATOM      4  C   UNL     1      -8.769  -3.024   7.018  0.00  0.00    +0.166 C 
ATOM      5  H   UNL     1      -7.127  -3.702   6.040  0.00  0.00    +0.163 HD
ATOM      6  H   UNL     1      -9.348  -3.984   8.742  0.00  0.00    +0.159 HD
ATOM      7  H   UNL     1      -7.965  -4.664   7.970  0.00  0.00    +0.159 HD
ATOM      8  H   UNL     1      -9.877  -1.401   6.400  0.00  0.00    +0.159 HD
ATOM      9  H   UNL     1     -10.428  -2.140   7.853  0.00  0.00    +0.159 HD
ENDROOT
BRANCH   1  10
ATOM     10  C   UNL     1      -7.909  -2.083   4.898  0.00  0.00    +0.151 C 
BRANCH  10  11
ATOM     11  C   UNL     1      -8.442  -2.794   3.685  0.00  0.00    -0.028 A 
ATOM     12  C   UNL     1      -9.812  -2.762   3.386  0.00  0.00    +0.005 A 
ATOM     13  C   UNL     1      -7.582  -3.498   2.828  0.00  0.00    +0.005 A 
ATOM     14  C   UNL     1     -10.304  -3.398   2.243  0.00  0.00    +0.000 A 
ATOM     15  C   UNL     1      -8.077  -4.132   1.689  0.00  0.00    +0.000 A 
ATOM     16  C   UNL     1      -9.437  -4.080   1.395  0.00  0.00    +0.000 A 
ENDBRANCH  10  11
ENDBRANCH   1  10
TORSDOF 2
ENDMDL
MODEL 9
REMARK VINA RESULT:    -5.227     22.750     23.612
REMARK INTER + INTRA:          -6.004
REMARK INTER:                  -5.849
REMARK INTRA:                  -0.155
REMARK UNBOUND:                -0.166
REMARK  Name = 1550473
REMARK  2 active torsions:
REMARK  status: ('A' for Active; 'I' for Inactive)
REMARK    1  A    between atoms: N_1  and  C_4
REMARK    2  A    between atoms: C_4  and  C_5
REMARK                            x       y       z     vdW  Elec       q    Type
REMARK                         _______ _______ _______ _____ _____    ______ ____
ROOT
ATOM      1  N   UNL     1      -6.307  -2.024   5.239  0.00  0.00    -0.354 N 
ATOM      2  N   UNL     1      -5.698  -2.623   7.392  0.00  0.00    -0.372 N 
ATOM      3  N   UNL     1      -4.708  -3.693   5.621  0.00  0.00    -0.372 N 
ATOM      4  C   UNL     1      -5.573  -2.778   6.068  0.00  0.00    +0.166 C 
ATOM      5  H   UNL     1      -6.967  -1.368   5.642  0.00  0.00    +0.163 HD
ATOM      6  H   UNL     1      -5.156  -3.175   8.042  0.00  0.00    +0.159 HD
ATOM      7  H   UNL     1      -6.326  -1.935   7.791  0.00  0.00    +0.159 HD
ATOM      8  H   UNL     1      -4.571  -3.863   4.633  0.00  0.00    +0.159 HD
ATOM      9  H   UNL     1      -4.164  -4.264   6.256  0.00  0.00    +0.159 HD
ENDROOT
BRANCH   1  10
ATOM     10  C   UNL     1      -6.207  -2.076   3.782  0.00  0.00    +0.151 C 
BRANCH  10  11
ATOM     11  C   UNL     1      -7.465  -2.683   3.225  0.00  0.00    -0.028 A 
ATOM     12  C   UNL     1      -8.715  -2.357   3.771  0.00  0.00    +0.005 A 
ATOM     13  C   UNL     1      -7.415  -3.581   2.147  0.00  0.00    +0.005 A 
ATOM     14  C   UNL     1      -9.887  -2.897   3.234  0.00  0.00    +0.000 A 
ATOM     15  C   UNL     1      -8.586  -4.119   1.615  0.00  0.00    +0.000 A 
ATOM     16  C   UNL     1      -9.822  -3.774   2.157  0.00  0.00    +0.000 A 
ENDBRANCH  10  11
ENDBRANCH   1  10
TORSDOF 2
ENDMDL
