MODEL 1
REMARK VINA RESULT:    -5.486      0.000      0.000
REMARK INTER + INTRA:          -6.305
REMARK INTER:                  -6.127
REMARK INTRA:                  -0.178
REMARK UNBOUND:                -0.178
REMARK  Name = 1550473
REMARK  2 active torsions:
REMARK  status: ('A' for Active; 'I' for Inactive)
REMARK    1  A    between atoms: N_1  and  C_4
REMARK    2  A    between atoms: C_4  and  C_5
REMARK                            x       y       z     vdW  Elec       q    Type
REMARK                         _______ _______ _______ _____ _____    ______ ____
ROOT
ATOM      1  N   UNL     1      -3.608 -13.190  -4.723  0.00  0.00    -0.354 N 
ATOM      2  N   UNL     1      -2.850 -12.716  -2.586  0.00  0.00    -0.372 N 
ATOM      3  N   UNL     1      -1.405 -13.675  -4.088  0.00  0.00    -0.372 N 
ATOM      4  C   UNL     1      -2.624 -13.198  -3.814  0.00  0.00    +0.166 C 
ATOM      5  H   UNL     1      -4.518 -12.843  -4.443  0.00  0.00    +0.163 HD
ATOM      6  H   UNL     1      -2.126 -12.705  -1.881  0.00  0.00    +0.159 HD
ATOM      7  H   UNL     1      -3.748 -12.327  -2.324  0.00  0.00    +0.159 HD
ATOM      8  H   UNL     1      -1.172 -14.059  -4.994  0.00  0.00    +0.159 HD
ATOM      9  H   UNL     1      -0.670 -13.685  -3.392  0.00  0.00    +0.159 HD
ENDROOT
BRANCH   1  10
ATOM     10  C   UNL     1      -3.450 -13.643  -6.104  0.00  0.00    +0.151 C 
BRANCH  10  11
ATOM     11  C   UNL     1      -3.296 -12.444  -6.999  0.00  0.00    -0.028 A 
ATOM     12  C   UNL     1      -4.280 -11.445  -7.026  0.00  0.00    +0.005 A 
ATOM     13  C   UNL     1      -2.166 -12.299  -7.818  0.00  0.00    +0.005 A 
ATOM     14  C   UNL     1      -4.123 -10.317  -7.835  0.00  0.00    +0.000 A 
ATOM     15  C   UNL     1      -2.013 -11.172  -8.624  0.00  0.00    +0.000 A 
ATOM     16  C   UNL     1      -2.990 -10.180  -8.631  0.00  0.00    +0.000 A 
ENDBRANCH  10  11
ENDBRANCH   1  10
TORSDOF 2
ENDMDL
MODEL 2
REMARK VINA RESULT:    -4.870      2.957      3.863
REMARK INTER + INTRA:          -5.617
REMARK INTER:                  -5.476
REMARK INTRA:                  -0.140
REMARK UNBOUND:                -0.178
REMARK  Name = 1550473
REMARK  2 active torsions:
REMARK  status: ('A' for Active; 'I' for Inactive)
REMARK    1  A    between atoms: N_1  and  C_4
REMARK    2  A    between atoms: C_4  and  C_5
REMARK                            x       y       z     vdW  Elec       q    Type
REMARK                         _______ _______ _______ _____ _____    ______ ____
ROOT
ATOM      1  N   UNL     1      -6.400 -11.643  -6.420  0.00  0.00    -0.354 N 
ATOM      2  N   UNL     1      -8.624 -10.995  -6.427  0.00  0.00    -0.372 N 
ATOM      3  N   UNL     1      -8.097 -13.159  -6.980  0.00  0.00    -0.372 N 
ATOM      4  C   UNL     1      -7.693 -11.940  -6.610  0.00  0.00    +0.166 C 
ATOM      5  H   UNL     1      -6.156 -10.692  -6.170  0.00  0.00    +0.163 HD
ATOM      6  H   UNL     1      -9.607 -11.190  -6.559  0.00  0.00    +0.159 HD
ATOM      7  H   UNL     1      -8.381 -10.058  -6.132  0.00  0.00    +0.159 HD
ATOM      8  H   UNL     1      -7.444 -13.914  -7.140  0.00  0.00    +0.159 HD
ATOM      9  H   UNL     1      -9.076 -13.371  -7.129  0.00  0.00    +0.159 HD
ENDROOT
BRANCH   1  10
ATOM     10  C   UNL     1      -5.313 -12.613  -6.541  0.00  0.00    +0.151 C 
BRANCH  10  11
ATOM     11  C   UNL     1      -4.186 -11.993  -7.322  0.00  0.00    -0.028 A 
ATOM     12  C   UNL     1      -4.249 -10.649  -7.717  0.00  0.00    +0.005 A 
ATOM     13  C   UNL     1      -3.051 -12.743  -7.664  0.00  0.00    +0.005 A 
ATOM     14  C   UNL     1      -3.190 -10.064  -8.416  0.00  0.00    +0.000 A 
ATOM     15  C   UNL     1      -1.996 -12.157  -8.363  0.00  0.00    +0.000 A 
ATOM     16  C   UNL     1      -2.065 -10.817  -8.736  0.00  0.00    +0.000 A 
ENDBRANCH  10  11
ENDBRANCH   1  10
TORSDOF 2
ENDMDL
MODEL 3
REMARK VINA RESULT:    -4.712      2.053      2.595
REMARK INTER + INTRA:          -5.440
REMARK INTER:                  -5.304
REMARK INTRA:                  -0.136
REMARK UNBOUND:                -0.178
REMARK  Name = 1550473
REMARK  2 active torsions:
REMARK  status: ('A' for Active; 'I' for Inactive)
REMARK    1  A    between atoms: N_1  and  C_4
REMARK    2  A    between atoms: C_4  and  C_5
REMARK                            x       y       z     vdW  Elec       q    Type
REMARK                         _______ _______ _______ _____ _____    ______ ____
ROOT
ATOM      1  N   UNL     1      -0.725 -13.434  -6.522  0.00  0.00    -0.354 N 
ATOM      2  N   UNL     1      -0.160 -14.845  -4.774  0.00  0.00    -0.372 N 
ATOM      3  N   UNL     1      -0.664 -15.758  -6.818  0.00  0.00    -0.372 N 
ATOM      4  C   UNL     1      -0.521 -14.672  -6.052  0.00  0.00    +0.166 C 
ATOM      5  H   UNL     1      -0.630 -12.654  -5.881  0.00  0.00    +0.163 HD
ATOM      6  H   UNL     1       0.004 -15.767  -4.392  0.00  0.00    +0.159 HD
ATOM      7  H   UNL     1      -0.021 -14.061  -4.149  0.00  0.00    +0.159 HD
ATOM      8  H   UNL     1      -0.940 -15.695  -7.789  0.00  0.00    +0.159 HD
ATOM      9  H   UNL     1      -0.515 -16.690  -6.451  0.00  0.00    +0.159 HD
ENDROOT
BRANCH   1  10
ATOM     10  C   UNL     1      -1.068 -13.133  -7.911  0.00  0.00    +0.151 C 
BRANCH  10  11
ATOM     11  C   UNL     1      -2.184 -12.125  -7.934  0.00  0.00    -0.028 A 
ATOM     12  C   UNL     1      -3.370 -12.359  -7.222  0.00  0.00    +0.005 A 
ATOM     13  C   UNL     1      -2.059 -10.932  -8.661  0.00  0.00    +0.005 A 
ATOM     14  C   UNL     1      -4.395 -11.410  -7.219  0.00  0.00    +0.000 A 
ATOM     15  C   UNL     1      -3.085  -9.986  -8.656  0.00  0.00    +0.000 A 
ATOM     16  C   UNL     1      -4.252 -10.225  -7.933  0.00  0.00    +0.000 A 
ENDBRANCH  10  11
ENDBRANCH   1  10
TORSDOF 2
ENDMDL
MODEL 4
REMARK VINA RESULT:    -4.360      2.764      3.762
REMARK INTER + INTRA:          -5.048
REMARK INTER:                  -4.901
REMARK INTRA:                  -0.146
REMARK UNBOUND:                -0.178
REMARK  Name = 1550473
REMARK  2 active torsions:
REMARK  status: ('A' for Active; 'I' for Inactive)
REMARK    1  A    between atoms: N_1  and  C_4
REMARK    2  A    between atoms: C_4  and  C_5
REMARK                            x       y       z     vdW  Elec       q    Type
REMARK                         _______ _______ _______ _____ _____    ______ ____
ROOT
ATOM      1  N   UNL     1      -2.011 -14.599  -7.677  0.00  0.00    -0.354 N 
ATOM      2  N   UNL     1      -2.878 -16.719  -8.018  0.00  0.00    -0.372 N 
ATOM      3  N   UNL     1      -2.103 -15.534  -9.824  0.00  0.00    -0.372 N 
ATOM      4  C   UNL     1      -2.325 -15.603  -8.507  0.00  0.00    +0.166 C 
ATOM      5  H   UNL     1      -2.233 -14.700  -6.694  0.00  0.00    +0.163 HD
ATOM      6  H   UNL     1      -3.122 -17.495  -8.619  0.00  0.00    +0.159 HD
ATOM      7  H   UNL     1      -3.056 -16.836  -7.028  0.00  0.00    +0.159 HD
ATOM      8  H   UNL     1      -1.693 -14.717 -10.256  0.00  0.00    +0.159 HD
ATOM      9  H   UNL     1      -2.351 -16.296 -10.444  0.00  0.00    +0.159 HD
ENDROOT
BRANCH   1  10
ATOM     10  C   UNL     1      -1.356 -13.362  -8.101  0.00  0.00    +0.151 C 
BRANCH  10  11
ATOM     11  C   UNL     1      -2.344 -12.231  -8.022  0.00  0.00    -0.028 A 
ATOM     12  C   UNL     1      -2.108 -11.031  -8.708  0.00  0.00    +0.005 A 
ATOM     13  C   UNL     1      -3.520 -12.355  -7.266  0.00  0.00    +0.005 A 
ATOM     14  C   UNL     1      -3.040  -9.991  -8.659  0.00  0.00    +0.000 A 
ATOM     15  C   UNL     1      -4.447 -11.314  -7.219  0.00  0.00    +0.000 A 
ATOM     16  C   UNL     1      -4.208 -10.133  -7.917  0.00  0.00    +0.000 A 
ENDBRANCH  10  11
ENDBRANCH   1  10
TORSDOF 2
ENDMDL
MODEL 5
REMARK VINA RESULT:    -4.354      2.449      2.856
REMARK INTER + INTRA:          -5.040
REMARK INTER:                  -4.906
REMARK INTRA:                  -0.135
REMARK UNBOUND:                -0.178
REMARK  Name = 1550473
REMARK  2 active torsions:
REMARK  status: ('A' for Active; 'I' for Inactive)
REMARK    1  A    between atoms: N_1  and  C_4
REMARK    2  A    between atoms: C_4  and  C_5
REMARK                            x       y       z     vdW  Elec       q    Type
REMARK                         _______ _______ _______ _____ _____    ______ ____
ROOT
ATOM      1  N   UNL     1      -5.600 -13.422  -6.374  0.00  0.00    -0.354 N 
ATOM      2  N   UNL     1      -6.067 -15.312  -5.120  0.00  0.00    -0.372 N 
ATOM      3  N   UNL     1      -6.581 -13.250  -4.253  0.00  0.00    -0.372 N 
ATOM      4  C   UNL     1      -6.080 -13.980  -5.255  0.00  0.00    +0.166 C 
ATOM      5  H   UNL     1      -5.206 -14.029  -7.084  0.00  0.00    +0.163 HD
ATOM      6  H   UNL     1      -6.426 -15.762  -4.288  0.00  0.00    +0.159 HD
ATOM      7  H   UNL     1      -5.715 -15.918  -5.850  0.00  0.00    +0.159 HD
ATOM      8  H   UNL     1      -6.614 -12.240  -4.291  0.00  0.00    +0.159 HD
ATOM      9  H   UNL     1      -6.934 -13.682  -3.408  0.00  0.00    +0.159 HD
ENDROOT
BRANCH   1  10
ATOM     10  C   UNL     1      -5.617 -11.985  -6.644  0.00  0.00    +0.151 C 
BRANCH  10  11
ATOM     11  C   UNL     1      -4.367 -11.610  -7.392  0.00  0.00    -0.028 A 
ATOM     12  C   UNL     1      -4.162 -10.291  -7.819  0.00  0.00    +0.005 A 
ATOM     13  C   UNL     1      -3.382 -12.569  -7.670  0.00  0.00    +0.005 A 
ATOM     14  C   UNL     1      -2.988  -9.936  -8.487  0.00  0.00    +0.000 A 
ATOM     15  C   UNL     1      -2.211 -12.211  -8.338  0.00  0.00    +0.000 A 
ATOM     16  C   UNL     1      -2.013 -10.894  -8.745  0.00  0.00    +0.000 A 
ENDBRANCH  10  11
ENDBRANCH   1  10
TORSDOF 2
ENDMDL
MODEL 6
REMARK VINA RESULT:    -4.121     21.082     21.765
REMARK INTER + INTRA:          -4.781
REMARK INTER:                  -4.644
REMARK INTRA:                  -0.137
REMARK UNBOUND:                -0.178
REMARK  Name = 1550473
REMARK  2 active torsions:
REMARK  status: ('A' for Active; 'I' for Inactive)
REMARK    1  A    between atoms: N_1  and  C_4
REMARK    2  A    between atoms: C_4  and  C_5
REMARK                            x       y       z     vdW  Elec       q    Type
REMARK                         _______ _______ _______ _____ _____    ______ ____
ROOT
ATOM      1  N   UNL     1      -8.906   7.490 -13.252  0.00  0.00    -0.354 N 
ATOM      2  N   UNL     1      -7.297   7.386 -11.590  0.00  0.00    -0.372 N 
ATOM      3  N   UNL     1      -9.485   6.960 -11.044  0.00  0.00    -0.372 N 
ATOM      4  C   UNL     1      -8.576   7.279 -11.971  0.00  0.00    +0.166 C 
ATOM      5  H   UNL     1      -8.175   7.758 -13.900  0.00  0.00    +0.163 HD
ATOM      6  H   UNL     1      -7.017   7.229 -10.631  0.00  0.00    +0.159 HD
ATOM      7  H   UNL     1      -6.561   7.609 -12.249  0.00  0.00    +0.159 HD
ATOM      8  H   UNL     1     -10.467   6.870 -11.266  0.00  0.00    +0.159 HD
ATOM      9  H   UNL     1      -9.226   6.811 -10.076  0.00  0.00    +0.159 HD
ENDROOT
BRANCH   1  10
ATOM     10  C   UNL     1     -10.261   7.346 -13.781  0.00  0.00    +0.151 C 
BRANCH  10  11
ATOM     11  C   UNL     1     -10.195   6.681 -15.128  0.00  0.00    -0.028 A 
ATOM     12  C   UNL     1      -9.038   5.996 -15.528  0.00  0.00    +0.005 A 
ATOM     13  C   UNL     1     -11.288   6.727 -16.007  0.00  0.00    +0.005 A 
ATOM     14  C   UNL     1      -8.987   5.353 -16.767  0.00  0.00    +0.000 A 
ATOM     15  C   UNL     1     -11.232   6.085 -17.244  0.00  0.00    +0.000 A 
ATOM     16  C   UNL     1     -10.082   5.395 -17.622  0.00  0.00    +0.000 A 
ENDBRANCH  10  11
ENDBRANCH   1  10
TORSDOF 2
ENDMDL
MODEL 7
REMARK VINA RESULT:    -4.118     25.994     27.577
REMARK INTER + INTRA:          -4.777
REMARK INTER:                  -4.615
REMARK INTRA:                  -0.163
REMARK UNBOUND:                -0.178
REMARK  Name = 1550473
REMARK  2 active torsions:
REMARK  status: ('A' for Active; 'I' for Inactive)
REMARK    1  A    between atoms: N_1  and  C_4
REMARK    2  A    between atoms: C_4  and  C_5
REMARK                            x       y       z     vdW  Elec       q    Type
REMARK                         _______ _______ _______ _____ _____    ______ ____
ROOT
ATOM      1  N   UNL     1       2.224  -9.840 -34.250  0.00  0.00    -0.354 N 
ATOM      2  N   UNL     1       0.918 -11.562 -35.082  0.00  0.00    -0.372 N 
ATOM      3  N   UNL     1       0.119  -9.414 -35.189  0.00  0.00    -0.372 N 
ATOM      4  C   UNL     1       1.094 -10.259 -34.835  0.00  0.00    +0.166 C 
ATOM      5  H   UNL     1       2.911 -10.534 -33.979  0.00  0.00    +0.163 HD
ATOM      6  H   UNL     1       0.077 -11.908 -35.525  0.00  0.00    +0.159 HD
ATOM      7  H   UNL     1       1.626 -12.249 -34.851  0.00  0.00    +0.159 HD
ATOM      8  H   UNL     1       0.188  -8.419 -35.025  0.00  0.00    +0.159 HD
ATOM      9  H   UNL     1      -0.735  -9.742 -35.623  0.00  0.00    +0.159 HD
ENDROOT
BRANCH   1  10
ATOM     10  C   UNL     1       2.536  -8.437 -33.986  0.00  0.00    +0.151 C 
BRANCH  10  11
ATOM     11  C   UNL     1       2.628  -8.224 -32.500  0.00  0.00    -0.028 A 
ATOM     12  C   UNL     1       3.868  -7.985 -31.891  0.00  0.00    +0.005 A 
ATOM     13  C   UNL     1       1.478  -8.256 -31.697  0.00  0.00    +0.005 A 
ATOM     14  C   UNL     1       3.950  -7.758 -30.515  0.00  0.00    +0.000 A 
ATOM     15  C   UNL     1       1.564  -8.030 -30.324  0.00  0.00    +0.000 A 
ATOM     16  C   UNL     1       2.800  -7.779 -29.733  0.00  0.00    +0.000 A 
ENDBRANCH  10  11
ENDBRANCH   1  10
TORSDOF 2
ENDMDL
MODEL 8
REMARK VINA RESULT:    -4.004     22.811     24.166
REMARK INTER + INTRA:          -4.650
REMARK INTER:                  -4.516
REMARK INTRA:                  -0.134
REMARK UNBOUND:                -0.178
REMARK  Name = 1550473
REMARK  2 active torsions:
REMARK  status: ('A' for Active; 'I' for Inactive)
REMARK    1  A    between atoms: N_1  and  C_4
REMARK    2  A    between atoms: C_4  and  C_5
REMARK                            x       y       z     vdW  Elec       q    Type
REMARK                         _______ _______ _______ _____ _____    ______ ____
ROOT
ATOM      1  N   UNL     1      10.365  -0.587   9.359  0.00  0.00    -0.354 N 
ATOM      2  N   UNL     1       9.128   0.247   7.587  0.00  0.00    -0.372 N 
ATOM      3  N   UNL     1      11.301  -0.391   7.219  0.00  0.00    -0.372 N 
ATOM      4  C   UNL     1      10.275  -0.249   8.065  0.00  0.00    +0.166 C 
ATOM      5  H   UNL     1       9.561  -0.427   9.955  0.00  0.00    +0.163 HD
ATOM      6  H   UNL     1       9.029   0.507   6.615  0.00  0.00    +0.159 HD
ATOM      7  H   UNL     1       8.311   0.362   8.175  0.00  0.00    +0.159 HD
ATOM      8  H   UNL     1      12.196  -0.754   7.519  0.00  0.00    +0.159 HD
ATOM      9  H   UNL     1      11.226  -0.125   6.245  0.00  0.00    +0.159 HD
ENDROOT
BRANCH   1  10
ATOM     10  C   UNL     1      11.552  -1.185   9.967  0.00  0.00    +0.151 C 
BRANCH  10  11
ATOM     11  C   UNL     1      11.125  -2.291  10.892  0.00  0.00    -0.028 A 
ATOM     12  C   UNL     1      11.734  -2.445  12.146  0.00  0.00    +0.005 A 
ATOM     13  C   UNL     1      10.108  -3.185  10.523  0.00  0.00    +0.005 A 
ATOM     14  C   UNL     1      11.317  -3.454  13.018  0.00  0.00    +0.000 A 
ATOM     15  C   UNL     1       9.695  -4.191  11.397  0.00  0.00    +0.000 A 
ATOM     16  C   UNL     1      10.298  -4.324  12.645  0.00  0.00    +0.000 A 
ENDBRANCH  10  11
ENDBRANCH   1  10
TORSDOF 2
ENDMDL
MODEL 9
REMARK VINA RESULT:    -3.956     22.682     24.147
REMARK INTER + INTRA:          -4.596
REMARK INTER:                  -4.486
REMARK INTRA:                  -0.110
REMARK UNBOUND:                -0.178
REMARK  Name = 1550473
REMARK  2 active torsions:
REMARK  status: ('A' for Active; 'I' for Inactive)
REMARK    1  A    between atoms: N_1  and  C_4
REMARK    2  A    between atoms: C_4  and  C_5
REMARK                            x       y       z     vdW  Elec       q    Type
REMARK                         _______ _______ _______ _____ _____    ______ ____
ROOT
ATOM      1  N   UNL     1       4.125  -6.848 -27.350  0.00  0.00    -0.354 N 
ATOM      2  N   UNL     1       3.861  -6.357 -25.102  0.00  0.00    -0.372 N 
ATOM      3  N   UNL     1       4.814  -8.359 -25.696  0.00  0.00    -0.372 N 
ATOM      4  C   UNL     1       4.269  -7.194 -26.064  0.00  0.00    +0.166 C 
ATOM      5  H   UNL     1       3.677  -5.964 -27.564  0.00  0.00    +0.163 HD
ATOM      6  H   UNL     1       3.960  -6.590 -24.123  0.00  0.00    +0.159 HD
ATOM      7  H   UNL     1       3.456  -5.455 -25.318  0.00  0.00    +0.159 HD
ATOM      8  H   UNL     1       5.137  -9.036 -26.374  0.00  0.00    +0.159 HD
ATOM      9  H   UNL     1       4.911  -8.614 -24.722  0.00  0.00    +0.159 HD
ENDROOT
BRANCH   1  10
ATOM     10  C   UNL     1       4.586  -7.663 -28.473  0.00  0.00    +0.151 C 
BRANCH  10  11
ATOM     11  C   UNL     1       3.677  -7.437 -29.650  0.00  0.00    -0.028 A 
ATOM     12  C   UNL     1       4.120  -6.703 -30.760  0.00  0.00    +0.005 A 
ATOM     13  C   UNL     1       2.374  -7.958 -29.663  0.00  0.00    +0.005 A 
ATOM     14  C   UNL     1       3.287  -6.519 -31.866  0.00  0.00    +0.000 A 
ATOM     15  C   UNL     1       1.545  -7.771 -30.769  0.00  0.00    +0.000 A 
ATOM     16  C   UNL     1       2.003  -7.053 -31.871  0.00  0.00    +0.000 A 
ENDBRANCH  10  11
ENDBRANCH   1  10
TORSDOF 2
ENDMDL
