MODEL 1
REMARK VINA RESULT:    -5.266      0.000      0.000
REMARK INTER + INTRA:          -6.026
REMARK INTER:                  -5.881
REMARK INTRA:                  -0.144
REMARK UNBOUND:                -0.144
REMARK  Name = 1550473
REMARK  2 active torsions:
REMARK  status: ('A' for Active; 'I' for Inactive)
REMARK    1  A    between atoms: N_1  and  C_4
REMARK    2  A    between atoms: C_4  and  C_5
REMARK                            x       y       z     vdW  Elec       q    Type
REMARK                         _______ _______ _______ _____ _____    ______ ____
ROOT
ATOM      1  N   UNL     1       3.330   7.217  22.095  0.00  0.00    -0.354 N 
ATOM      2  N   UNL     1       2.658   5.052  21.622  0.00  0.00    -0.372 N 
ATOM      3  N   UNL     1       1.215   6.782  21.185  0.00  0.00    -0.372 N 
ATOM      4  C   UNL     1       2.403   6.366  21.636  0.00  0.00    +0.166 C 
ATOM      5  H   UNL     1       4.199   6.837  22.452  0.00  0.00    +0.163 HD
ATOM      6  H   UNL     1       1.980   4.386  21.278  0.00  0.00    +0.159 HD
ATOM      7  H   UNL     1       3.545   4.678  21.936  0.00  0.00    +0.159 HD
ATOM      8  H   UNL     1       0.958   7.760  21.175  0.00  0.00    +0.159 HD
ATOM      9  H   UNL     1       0.518   6.129  20.848  0.00  0.00    +0.159 HD
ENDROOT
BRANCH   1  10
ATOM     10  C   UNL     1       3.172   8.671  22.104  0.00  0.00    +0.151 C 
BRANCH  10  11
ATOM     11  C   UNL     1       3.617   9.221  20.777  0.00  0.00    -0.028 A 
ATOM     12  C   UNL     1       2.759  10.030  20.018  0.00  0.00    +0.005 A 
ATOM     13  C   UNL     1       4.898   8.942  20.276  0.00  0.00    +0.005 A 
ATOM     14  C   UNL     1       3.183  10.566  18.799  0.00  0.00    +0.000 A 
ATOM     15  C   UNL     1       5.317   9.479  19.059  0.00  0.00    +0.000 A 
ATOM     16  C   UNL     1       4.460  10.293  18.322  0.00  0.00    +0.000 A 
ENDBRANCH  10  11
ENDBRANCH   1  10
TORSDOF 2
ENDMDL
MODEL 2
REMARK VINA RESULT:    -4.764      2.287      3.185
REMARK INTER + INTRA:          -5.465
REMARK INTER:                  -5.361
REMARK INTRA:                  -0.105
REMARK UNBOUND:                -0.144
REMARK  Name = 1550473
REMARK  2 active torsions:
REMARK  status: ('A' for Active; 'I' for Inactive)
REMARK    1  A    between atoms: N_1  and  C_4
REMARK    2  A    between atoms: C_4  and  C_5
REMARK                            x       y       z     vdW  Elec       q    Type
REMARK                         _______ _______ _______ _____ _____    ______ ____
ROOT
ATOM      1  N   UNL     1      -0.207   8.532  20.096  0.00  0.00    -0.354 N 
ATOM      2  N   UNL     1      -2.096   7.450  19.305  0.00  0.00    -0.372 N 
ATOM      3  N   UNL     1      -1.509   7.189  21.508  0.00  0.00    -0.372 N 
ATOM      4  C   UNL     1      -1.258   7.730  20.311  0.00  0.00    +0.166 C 
ATOM      5  H   UNL     1      -0.055   8.885  19.158  0.00  0.00    +0.163 HD
ATOM      6  H   UNL     1      -2.899   6.851  19.438  0.00  0.00    +0.159 HD
ATOM      7  H   UNL     1      -1.967   7.841  18.380  0.00  0.00    +0.159 HD
ATOM      8  H   UNL     1      -0.912   7.357  22.307  0.00  0.00    +0.159 HD
ATOM      9  H   UNL     1      -2.302   6.578  21.658  0.00  0.00    +0.159 HD
ENDROOT
BRANCH   1  10
ATOM     10  C   UNL     1       0.735   8.942  21.136  0.00  0.00    +0.151 C 
BRANCH  10  11
ATOM     11  C   UNL     1       2.061   9.259  20.502  0.00  0.00    -0.028 A 
ATOM     12  C   UNL     1       3.235   8.644  20.961  0.00  0.00    +0.005 A 
ATOM     13  C   UNL     1       2.149  10.169  19.437  0.00  0.00    +0.005 A 
ATOM     14  C   UNL     1       4.462   8.916  20.352  0.00  0.00    +0.000 A 
ATOM     15  C   UNL     1       3.377  10.438  18.832  0.00  0.00    +0.000 A 
ATOM     16  C   UNL     1       4.533   9.809  19.288  0.00  0.00    +0.000 A 
ENDBRANCH  10  11
ENDBRANCH   1  10
TORSDOF 2
ENDMDL
MODEL 3
REMARK VINA RESULT:    -4.691     26.099     27.481
REMARK INTER + INTRA:          -5.384
REMARK INTER:                  -5.240
REMARK INTRA:                  -0.143
REMARK UNBOUND:                -0.144
REMARK  Name = 1550473
REMARK  2 active torsions:
REMARK  status: ('A' for Active; 'I' for Inactive)
REMARK    1  A    between atoms: N_1  and  C_4
REMARK    2  A    between atoms: C_4  and  C_5
REMARK                            x       y       z     vdW  Elec       q    Type
REMARK                         _______ _______ _______ _____ _____    ______ ____
ROOT
ATOM      1  N   UNL     1      -0.535   9.921  -4.999  0.00  0.00    -0.354 N 
ATOM      2  N   UNL     1      -0.653   8.812  -2.969  0.00  0.00    -0.372 N 
ATOM      3  N   UNL     1      -1.119  11.058  -3.035  0.00  0.00    -0.372 N 
ATOM      4  C   UNL     1      -0.769   9.940  -3.680  0.00  0.00    +0.166 C 
ATOM      5  H   UNL     1      -0.243   9.048  -5.423  0.00  0.00    +0.163 HD
ATOM      6  H   UNL     1      -0.827   8.795  -1.973  0.00  0.00    +0.159 HD
ATOM      7  H   UNL     1      -0.406   7.931  -3.404  0.00  0.00    +0.159 HD
ATOM      8  H   UNL     1      -1.218  11.943  -3.513  0.00  0.00    +0.159 HD
ATOM      9  H   UNL     1      -1.286  11.063  -2.036  0.00  0.00    +0.159 HD
ENDROOT
BRANCH   1  10
ATOM     10  C   UNL     1      -0.685  11.083  -5.873  0.00  0.00    +0.151 C 
BRANCH  10  11
ATOM     11  C   UNL     1      -1.646  10.744  -6.979  0.00  0.00    -0.028 A 
ATOM     12  C   UNL     1      -1.284  10.937  -8.321  0.00  0.00    +0.005 A 
ATOM     13  C   UNL     1      -2.918  10.224  -6.693  0.00  0.00    +0.005 A 
ATOM     14  C   UNL     1      -2.164  10.595  -9.350  0.00  0.00    +0.000 A 
ATOM     15  C   UNL     1      -3.794   9.884  -7.724  0.00  0.00    +0.000 A 
ATOM     16  C   UNL     1      -3.416  10.067  -9.051  0.00  0.00    +0.000 A 
ENDBRANCH  10  11
ENDBRANCH   1  10
TORSDOF 2
ENDMDL
MODEL 4
REMARK VINA RESULT:    -4.687     45.769     46.803
REMARK INTER + INTRA:          -5.379
REMARK INTER:                  -5.288
REMARK INTRA:                  -0.092
REMARK UNBOUND:                -0.144
REMARK  Name = 1550473
REMARK  2 active torsions:
REMARK  status: ('A' for Active; 'I' for Inactive)
REMARK    1  A    between atoms: N_1  and  C_4
REMARK    2  A    between atoms: C_4  and  C_5
REMARK                            x       y       z     vdW  Elec       q    Type
REMARK                         _______ _______ _______ _____ _____    ______ ____
ROOT
ATOM      1  N   UNL     1       3.800  -9.597 -21.840  0.00  0.00    -0.354 N 
ATOM      2  N   UNL     1       2.819 -10.358 -19.885  0.00  0.00    -0.372 N 
ATOM      3  N   UNL     1       1.479  -9.886 -21.687  0.00  0.00    -0.372 N 
ATOM      4  C   UNL     1       2.703  -9.942 -21.152  0.00  0.00    +0.166 C 
ATOM      5  H   UNL     1       4.696  -9.632 -21.368  0.00  0.00    +0.163 HD
ATOM      6  H   UNL     1       2.011 -10.628 -19.342  0.00  0.00    +0.159 HD
ATOM      7  H   UNL     1       3.721 -10.437 -19.430  0.00  0.00    +0.159 HD
ATOM      8  H   UNL     1       1.323  -9.574 -22.636  0.00  0.00    +0.159 HD
ATOM      9  H   UNL     1       0.656 -10.141 -21.155  0.00  0.00    +0.159 HD
ENDROOT
BRANCH   1  10
ATOM     10  C   UNL     1       3.788  -9.181 -23.242  0.00  0.00    +0.151 C 
BRANCH  10  11
ATOM     11  C   UNL     1       5.142  -8.638 -23.605  0.00  0.00    -0.028 A 
ATOM     12  C   UNL     1       6.200  -9.507 -23.908  0.00  0.00    +0.005 A 
ATOM     13  C   UNL     1       5.373  -7.254 -23.652  0.00  0.00    +0.005 A 
ATOM     14  C   UNL     1       7.450  -9.003 -24.274  0.00  0.00    +0.000 A 
ATOM     15  C   UNL     1       6.623  -6.754 -24.017  0.00  0.00    +0.000 A 
ATOM     16  C   UNL     1       7.660  -7.629 -24.331  0.00  0.00    +0.000 A 
ENDBRANCH  10  11
ENDBRANCH   1  10
TORSDOF 2
ENDMDL
MODEL 5
REMARK VINA RESULT:    -4.588     25.169     26.606
REMARK INTER + INTRA:          -5.269
REMARK INTER:                  -5.091
REMARK INTRA:                  -0.178
REMARK UNBOUND:                -0.144
REMARK  Name = 1550473
REMARK  2 active torsions:
REMARK  status: ('A' for Active; 'I' for Inactive)
REMARK    1  A    between atoms: N_1  and  C_4
REMARK    2  A    between atoms: C_4  and  C_5
REMARK                            x       y       z     vdW  Elec       q    Type
REMARK                         _______ _______ _______ _____ _____    ______ ____
ROOT
ATOM      1  N   UNL     1      -0.433  11.618  -3.614  0.00  0.00    -0.354 N 
ATOM      2  N   UNL     1      -1.134  13.393  -2.301  0.00  0.00    -0.372 N 
ATOM      3  N   UNL     1      -2.643  11.751  -2.843  0.00  0.00    -0.372 N 
ATOM      4  C   UNL     1      -1.401  12.241  -2.929  0.00  0.00    +0.166 C 
ATOM      5  H   UNL     1       0.479  12.057  -3.666  0.00  0.00    +0.163 HD
ATOM      6  H   UNL     1      -1.843  13.884  -1.774  0.00  0.00    +0.159 HD
ATOM      7  H   UNL     1      -0.210  13.806  -2.316  0.00  0.00    +0.159 HD
ATOM      8  H   UNL     1      -2.910  10.888  -3.299  0.00  0.00    +0.159 HD
ATOM      9  H   UNL     1      -3.369  12.233  -2.329  0.00  0.00    +0.159 HD
ENDROOT
BRANCH   1  10
ATOM     10  C   UNL     1      -0.606  10.332  -4.287  0.00  0.00    +0.151 C 
BRANCH  10  11
ATOM     11  C   UNL     1      -0.843  10.573  -5.753  0.00  0.00    -0.028 A 
ATOM     12  C   UNL     1       0.225  10.898  -6.603  0.00  0.00    +0.005 A 
ATOM     13  C   UNL     1      -2.131  10.472  -6.299  0.00  0.00    +0.005 A 
ATOM     14  C   UNL     1       0.010  11.092  -7.969  0.00  0.00    +0.000 A 
ATOM     15  C   UNL     1      -2.342  10.668  -7.664  0.00  0.00    +0.000 A 
ATOM     16  C   UNL     1      -1.270  10.975  -8.499  0.00  0.00    +0.000 A 
ENDBRANCH  10  11
ENDBRANCH   1  10
TORSDOF 2
ENDMDL
MODEL 6
REMARK VINA RESULT:    -4.462     38.342     39.162
REMARK INTER + INTRA:          -5.128
REMARK INTER:                  -4.987
REMARK INTRA:                  -0.142
REMARK UNBOUND:                -0.144
REMARK  Name = 1550473
REMARK  2 active torsions:
REMARK  status: ('A' for Active; 'I' for Inactive)
REMARK    1  A    between atoms: N_1  and  C_4
REMARK    2  A    between atoms: C_4  and  C_5
REMARK                            x       y       z     vdW  Elec       q    Type
REMARK                         _______ _______ _______ _____ _____    ______ ____
ROOT
ATOM      1  N   UNL     1     -13.567 -13.042  -7.845  0.00  0.00    -0.354 N 
ATOM      2  N   UNL     1     -13.137 -15.225  -7.202  0.00  0.00    -0.372 N 
ATOM      3  N   UNL     1     -14.456 -14.850  -9.042  0.00  0.00    -0.372 N 
ATOM      4  C   UNL     1     -13.725 -14.359  -8.036  0.00  0.00    +0.166 C 
ATOM      5  H   UNL     1     -13.025 -12.733  -7.046  0.00  0.00    +0.163 HD
ATOM      6  H   UNL     1     -13.236 -16.224  -7.323  0.00  0.00    +0.159 HD
ATOM      7  H   UNL     1     -12.559 -14.914  -6.431  0.00  0.00    +0.159 HD
ATOM      8  H   UNL     1     -14.930 -14.249  -9.703  0.00  0.00    +0.159 HD
ATOM      9  H   UNL     1     -14.576 -15.847  -9.173  0.00  0.00    +0.159 HD
ENDROOT
BRANCH   1  10
ATOM     10  C   UNL     1     -14.120 -12.016  -8.727  0.00  0.00    +0.151 C 
BRANCH  10  11
ATOM     11  C   UNL     1     -14.807 -10.970  -7.893  0.00  0.00    -0.028 A 
ATOM     12  C   UNL     1     -15.203  -9.751  -8.464  0.00  0.00    +0.005 A 
ATOM     13  C   UNL     1     -15.070 -11.193  -6.533  0.00  0.00    +0.005 A 
ATOM     14  C   UNL     1     -15.868  -8.791  -7.697  0.00  0.00    +0.000 A 
ATOM     15  C   UNL     1     -15.734 -10.232  -5.770  0.00  0.00    +0.000 A 
ATOM     16  C   UNL     1     -16.134  -9.032  -6.353  0.00  0.00    +0.000 A 
ENDBRANCH  10  11
ENDBRANCH   1  10
TORSDOF 2
ENDMDL
MODEL 7
REMARK VINA RESULT:    -4.393     12.849     14.453
REMARK INTER + INTRA:          -5.051
REMARK INTER:                  -4.941
REMARK INTRA:                  -0.110
REMARK UNBOUND:                -0.144
REMARK  Name = 1550473
REMARK  2 active torsions:
REMARK  status: ('A' for Active; 'I' for Inactive)
REMARK    1  A    between atoms: N_1  and  C_4
REMARK    2  A    between atoms: C_4  and  C_5
REMARK                            x       y       z     vdW  Elec       q    Type
REMARK                         _______ _______ _______ _____ _____    ______ ____
ROOT
ATOM      1  N   UNL     1      -2.065  13.721   7.346  0.00  0.00    -0.354 N 
ATOM      2  N   UNL     1      -3.114  12.615   5.603  0.00  0.00    -0.372 N 
ATOM      3  N   UNL     1      -3.648  14.810   6.005  0.00  0.00    -0.372 N 
ATOM      4  C   UNL     1      -2.937  13.725   6.329  0.00  0.00    +0.166 C 
ATOM      5  H   UNL     1      -1.579  12.858   7.560  0.00  0.00    +0.163 HD
ATOM      6  H   UNL     1      -3.763  12.588   4.828  0.00  0.00    +0.159 HD
ATOM      7  H   UNL     1      -2.593  11.767   5.790  0.00  0.00    +0.159 HD
ATOM      8  H   UNL     1      -3.565  15.678   6.517  0.00  0.00    +0.159 HD
ATOM      9  H   UNL     1      -4.311  14.800   5.240  0.00  0.00    +0.159 HD
ENDROOT
BRANCH   1  10
ATOM     10  C   UNL     1      -1.758  14.893   8.165  0.00  0.00    +0.151 C 
BRANCH  10  11
ATOM     11  C   UNL     1      -1.676  14.476   9.608  0.00  0.00    -0.028 A 
ATOM     12  C   UNL     1      -2.629  14.924  10.534  0.00  0.00    +0.005 A 
ATOM     13  C   UNL     1      -0.651  13.628  10.053  0.00  0.00    +0.005 A 
ATOM     14  C   UNL     1      -2.570  14.513  11.868  0.00  0.00    +0.000 A 
ATOM     15  C   UNL     1      -0.595  13.221  11.386  0.00  0.00    +0.000 A 
ATOM     16  C   UNL     1      -1.556  13.662  12.292  0.00  0.00    +0.000 A 
ENDBRANCH  10  11
ENDBRANCH   1  10
TORSDOF 2
ENDMDL
MODEL 8
REMARK VINA RESULT:    -4.302     16.326     17.958
REMARK INTER + INTRA:          -4.949
REMARK INTER:                  -4.853
REMARK INTRA:                  -0.096
REMARK UNBOUND:                -0.144
REMARK  Name = 1550473
REMARK  2 active torsions:
REMARK  status: ('A' for Active; 'I' for Inactive)
REMARK    1  A    between atoms: N_1  and  C_4
REMARK    2  A    between atoms: C_4  and  C_5
REMARK                            x       y       z     vdW  Elec       q    Type
REMARK                         _______ _______ _______ _____ _____    ______ ____
ROOT
ATOM      1  N   UNL     1       2.440  14.474   2.634  0.00  0.00    -0.354 N 
ATOM      2  N   UNL     1       0.768  14.317   1.040  0.00  0.00    -0.372 N 
ATOM      3  N   UNL     1       2.949  14.028   0.390  0.00  0.00    -0.372 N 
ATOM      4  C   UNL     1       2.066  14.274   1.363  0.00  0.00    +0.166 C 
ATOM      5  H   UNL     1       1.724  14.686   3.319  0.00  0.00    +0.163 HD
ATOM      6  H   UNL     1       0.455  14.167   0.090  0.00  0.00    +0.159 HD
ATOM      7  H   UNL     1       0.050  14.483   1.735  0.00  0.00    +0.159 HD
ATOM      8  H   UNL     1       3.944  13.988   0.568  0.00  0.00    +0.159 HD
ATOM      9  H   UNL     1       2.657  13.886  -0.568  0.00  0.00    +0.159 HD
ENDROOT
BRANCH   1  10
ATOM     10  C   UNL     1       3.823  14.395   3.101  0.00  0.00    +0.151 C 
BRANCH  10  11
ATOM     11  C   UNL     1       3.832  14.334   4.604  0.00  0.00    -0.028 A 
ATOM     12  C   UNL     1       3.408  15.435   5.363  0.00  0.00    +0.005 A 
ATOM     13  C   UNL     1       4.256  13.176   5.274  0.00  0.00    +0.005 A 
ATOM     14  C   UNL     1       3.388  15.368   6.758  0.00  0.00    +0.000 A 
ATOM     15  C   UNL     1       4.235  13.114   6.667  0.00  0.00    +0.000 A 
ATOM     16  C   UNL     1       3.798  14.210   7.409  0.00  0.00    +0.000 A 
ENDBRANCH  10  11
ENDBRANCH   1  10
TORSDOF 2
ENDMDL
MODEL 9
REMARK VINA RESULT:    -4.294     33.341     34.469
REMARK INTER + INTRA:          -4.941
REMARK INTER:                  -4.836
REMARK INTRA:                  -0.105
REMARK UNBOUND:                -0.144
REMARK  Name = 1550473
REMARK  2 active torsions:
REMARK  status: ('A' for Active; 'I' for Inactive)
REMARK    1  A    between atoms: N_1  and  C_4
REMARK    2  A    between atoms: C_4  and  C_5
REMARK                            x       y       z     vdW  Elec       q    Type
REMARK                         _______ _______ _______ _____ _____    ______ ____
ROOT
ATOM      1  N   UNL     1       3.497   0.876 -13.026  0.00  0.00    -0.354 N 
ATOM      2  N   UNL     1       5.680   0.569 -13.734  0.00  0.00    -0.372 N 
ATOM      3  N   UNL     1       5.194   0.333 -11.504  0.00  0.00    -0.372 N 
ATOM      4  C   UNL     1       4.776   0.595 -12.747  0.00  0.00    +0.166 C 
ATOM      5  H   UNL     1       3.250   1.096 -13.984  0.00  0.00    +0.163 HD
ATOM      6  H   UNL     1       6.652   0.356 -13.554  0.00  0.00    +0.159 HD
ATOM      7  H   UNL     1       5.422   0.743 -14.697  0.00  0.00    +0.159 HD
ATOM      8  H   UNL     1       4.562   0.342 -10.714  0.00  0.00    +0.159 HD
ATOM      9  H   UNL     1       6.165   0.129 -11.302  0.00  0.00    +0.159 HD
ENDROOT
BRANCH   1  10
ATOM     10  C   UNL     1       2.424   0.877 -12.032  0.00  0.00    +0.151 C 
BRANCH  10  11
ATOM     11  C   UNL     1       1.167   1.404 -12.666  0.00  0.00    -0.028 A 
ATOM     12  C   UNL     1       0.426   2.419 -12.043  0.00  0.00    +0.005 A 
ATOM     13  C   UNL     1       0.714   0.898 -13.894  0.00  0.00    +0.005 A 
ATOM     14  C   UNL     1      -0.725   2.930 -12.646  0.00  0.00    +0.000 A 
ATOM     15  C   UNL     1      -0.436   1.411 -14.493  0.00  0.00    +0.000 A 
ATOM     16  C   UNL     1      -1.154   2.428 -13.870  0.00  0.00    +0.000 A 
ENDBRANCH  10  11
ENDBRANCH   1  10
TORSDOF 2
ENDMDL
