MODEL 1
REMARK VINA RESULT:    -5.307      0.000      0.000
REMARK INTER + INTRA:          -6.074
REMARK INTER:                  -5.928
REMARK INTRA:                  -0.147
REMARK UNBOUND:                -0.147
REMARK  Name = 1550473
REMARK  2 active torsions:
REMARK  status: ('A' for Active; 'I' for Inactive)
REMARK    1  A    between atoms: N_1  and  C_4
REMARK    2  A    between atoms: C_4  and  C_5
REMARK                            x       y       z     vdW  Elec       q    Type
REMARK                         _______ _______ _______ _____ _____    ______ ____
ROOT
ATOM      1  N   UNL     1      -6.782  -4.651  -9.916  0.00  0.00    -0.354 N 
ATOM      2  N   UNL     1      -5.926  -3.501  -8.097  0.00  0.00    -0.372 N 
ATOM      3  N   UNL     1      -8.182  -3.409  -8.505  0.00  0.00    -0.372 N 
ATOM      4  C   UNL     1      -6.972  -3.860  -8.851  0.00  0.00    +0.166 C 
ATOM      5  H   UNL     1      -5.836  -4.934 -10.143  0.00  0.00    +0.163 HD
ATOM      6  H   UNL     1      -6.039  -2.909  -7.285  0.00  0.00    +0.159 HD
ATOM      7  H   UNL     1      -4.988  -3.824  -8.299  0.00  0.00    +0.159 HD
ATOM      8  H   UNL     1      -9.011  -3.639  -9.037  0.00  0.00    +0.159 HD
ATOM      9  H   UNL     1      -8.314  -2.806  -7.703  0.00  0.00    +0.159 HD
ENDROOT
BRANCH   1  10
ATOM     10  C   UNL     1      -7.860  -5.143 -10.772  0.00  0.00    +0.151 C 
BRANCH  10  11
ATOM     11  C   UNL     1      -7.941  -6.640 -10.648  0.00  0.00    -0.028 A 
ATOM     12  C   UNL     1      -6.834  -7.441 -10.967  0.00  0.00    +0.005 A 
ATOM     13  C   UNL     1      -9.118  -7.262 -10.208  0.00  0.00    +0.005 A 
ATOM     14  C   UNL     1      -6.899  -8.829 -10.824  0.00  0.00    +0.000 A 
ATOM     15  C   UNL     1      -9.179  -8.649 -10.067  0.00  0.00    +0.000 A 
ATOM     16  C   UNL     1      -8.068  -9.431 -10.373  0.00  0.00    +0.000 A 
ENDBRANCH  10  11
ENDBRANCH   1  10
TORSDOF 2
ENDMDL
MODEL 2
REMARK VINA RESULT:    -5.293      7.486      8.784
REMARK INTER + INTRA:          -6.058
REMARK INTER:                  -5.951
REMARK INTRA:                  -0.107
REMARK UNBOUND:                -0.147
REMARK  Name = 1550473
REMARK  2 active torsions:
REMARK  status: ('A' for Active; 'I' for Inactive)
REMARK    1  A    between atoms: N_1  and  C_4
REMARK    2  A    between atoms: C_4  and  C_5
REMARK                            x       y       z     vdW  Elec       q    Type
REMARK                         _______ _______ _______ _____ _____    ______ ____
ROOT
ATOM      1  N   UNL     1      -5.398 -12.912  -6.775  0.00  0.00    -0.354 N 
ATOM      2  N   UNL     1      -5.245 -10.685  -6.159  0.00  0.00    -0.372 N 
ATOM      3  N   UNL     1      -4.136 -12.260  -4.911  0.00  0.00    -0.372 N 
ATOM      4  C   UNL     1      -4.926 -11.968  -5.950  0.00  0.00    +0.166 C 
ATOM      5  H   UNL     1      -6.016 -12.629  -7.527  0.00  0.00    +0.163 HD
ATOM      6  H   UNL     1      -4.901  -9.950  -5.556  0.00  0.00    +0.159 HD
ATOM      7  H   UNL     1      -5.826 -10.400  -6.938  0.00  0.00    +0.159 HD
ATOM      8  H   UNL     1      -3.864 -13.209  -4.696  0.00  0.00    +0.159 HD
ATOM      9  H   UNL     1      -3.791 -11.539  -4.289  0.00  0.00    +0.159 HD
ENDROOT
BRANCH   1  10
ATOM     10  C   UNL     1      -5.067 -14.332  -6.667  0.00  0.00    +0.151 C 
BRANCH  10  11
ATOM     11  C   UNL     1      -5.363 -15.006  -7.979  0.00  0.00    -0.028 A 
ATOM     12  C   UNL     1      -6.573 -14.767  -8.645  0.00  0.00    +0.005 A 
ATOM     13  C   UNL     1      -4.434 -15.881  -8.563  0.00  0.00    +0.005 A 
ATOM     14  C   UNL     1      -6.836 -15.370  -9.878  0.00  0.00    +0.000 A 
ATOM     15  C   UNL     1      -4.700 -16.481  -9.793  0.00  0.00    +0.000 A 
ATOM     16  C   UNL     1      -5.900 -16.224 -10.451  0.00  0.00    +0.000 A 
ENDBRANCH  10  11
ENDBRANCH   1  10
TORSDOF 2
ENDMDL
MODEL 3
REMARK VINA RESULT:    -5.162      2.061      3.276
REMARK INTER + INTRA:          -5.912
REMARK INTER:                  -5.815
REMARK INTRA:                  -0.097
REMARK UNBOUND:                -0.147
REMARK  Name = 1550473
REMARK  2 active torsions:
REMARK  status: ('A' for Active; 'I' for Inactive)
REMARK    1  A    between atoms: N_1  and  C_4
REMARK    2  A    between atoms: C_4  and  C_5
REMARK                            x       y       z     vdW  Elec       q    Type
REMARK                         _______ _______ _______ _____ _____    ______ ____
ROOT
ATOM      1  N   UNL     1      -7.516  -5.229  -7.676  0.00  0.00    -0.354 N 
ATOM      2  N   UNL     1      -9.578  -4.181  -7.797  0.00  0.00    -0.372 N 
ATOM      3  N   UNL     1      -7.705  -3.024  -8.444  0.00  0.00    -0.372 N 
ATOM      4  C   UNL     1      -8.251  -4.149  -7.972  0.00  0.00    +0.166 C 
ATOM      5  H   UNL     1      -7.987  -6.041  -7.293  0.00  0.00    +0.163 HD
ATOM      6  H   UNL     1     -10.158  -3.382  -8.016  0.00  0.00    +0.159 HD
ATOM      7  H   UNL     1     -10.051  -5.009  -7.458  0.00  0.00    +0.159 HD
ATOM      8  H   UNL     1      -6.708  -2.933  -8.593  0.00  0.00    +0.159 HD
ATOM      9  H   UNL     1      -8.268  -2.210  -8.657  0.00  0.00    +0.159 HD
ENDROOT
BRANCH   1  10
ATOM     10  C   UNL     1      -6.071  -5.317  -7.881  0.00  0.00    +0.151 C 
BRANCH  10  11
ATOM     11  C   UNL     1      -5.802  -5.830  -9.268  0.00  0.00    -0.028 A 
ATOM     12  C   UNL     1      -6.691  -6.726  -9.881  0.00  0.00    +0.005 A 
ATOM     13  C   UNL     1      -4.663  -5.420  -9.978  0.00  0.00    +0.005 A 
ATOM     14  C   UNL     1      -6.457  -7.180 -11.181  0.00  0.00    +0.000 A 
ATOM     15  C   UNL     1      -4.433  -5.876 -11.276  0.00  0.00    +0.000 A 
ATOM     16  C   UNL     1      -5.331  -6.754 -11.878  0.00  0.00    +0.000 A 
ENDBRANCH  10  11
ENDBRANCH   1  10
TORSDOF 2
ENDMDL
MODEL 4
REMARK VINA RESULT:    -5.058      2.307      3.155
REMARK INTER + INTRA:          -5.796
REMARK INTER:                  -5.639
REMARK INTRA:                  -0.157
REMARK UNBOUND:                -0.147
REMARK  Name = 1550473
REMARK  2 active torsions:
REMARK  status: ('A' for Active; 'I' for Inactive)
REMARK    1  A    between atoms: N_1  and  C_4
REMARK    2  A    between atoms: C_4  and  C_5
REMARK                            x       y       z     vdW  Elec       q    Type
REMARK                         _______ _______ _______ _____ _____    ______ ____
ROOT
ATOM      1  N   UNL     1      -7.835  -5.515  -8.469  0.00  0.00    -0.354 N 
ATOM      2  N   UNL     1      -8.850  -3.761  -7.346  0.00  0.00    -0.372 N 
ATOM      3  N   UNL     1      -6.608  -4.130  -7.031  0.00  0.00    -0.372 N 
ATOM      4  C   UNL     1      -7.755  -4.480  -7.622  0.00  0.00    +0.166 C 
ATOM      5  H   UNL     1      -8.741  -5.747  -8.860  0.00  0.00    +0.163 HD
ATOM      6  H   UNL     1      -8.820  -2.973  -6.714  0.00  0.00    +0.159 HD
ATOM      7  H   UNL     1      -9.745  -3.968  -7.775  0.00  0.00    +0.159 HD
ATOM      8  H   UNL     1      -5.747  -4.635  -7.192  0.00  0.00    +0.159 HD
ATOM      9  H   UNL     1      -6.559  -3.351  -6.386  0.00  0.00    +0.159 HD
ENDROOT
BRANCH   1  10
ATOM     10  C   UNL     1      -6.691  -6.328  -8.877  0.00  0.00    +0.151 C 
BRANCH  10  11
ATOM     11  C   UNL     1      -6.327  -5.987 -10.296  0.00  0.00    -0.028 A 
ATOM     12  C   UNL     1      -5.007  -6.130 -10.746  0.00  0.00    +0.005 A 
ATOM     13  C   UNL     1      -7.300  -5.526 -11.197  0.00  0.00    +0.005 A 
ATOM     14  C   UNL     1      -4.674  -5.842 -12.072  0.00  0.00    +0.000 A 
ATOM     15  C   UNL     1      -6.964  -5.238 -12.519  0.00  0.00    +0.000 A 
ATOM     16  C   UNL     1      -5.651  -5.399 -12.957  0.00  0.00    +0.000 A 
ENDBRANCH  10  11
ENDBRANCH   1  10
TORSDOF 2
ENDMDL
MODEL 5
REMARK VINA RESULT:    -4.989      1.771      2.209
REMARK INTER + INTRA:          -5.719
REMARK INTER:                  -5.575
REMARK INTRA:                  -0.144
REMARK UNBOUND:                -0.147
REMARK  Name = 1550473
REMARK  2 active torsions:
REMARK  status: ('A' for Active; 'I' for Inactive)
REMARK    1  A    between atoms: N_1  and  C_4
REMARK    2  A    between atoms: C_4  and  C_5
REMARK                            x       y       z     vdW  Elec       q    Type
REMARK                         _______ _______ _______ _____ _____    ______ ____
ROOT
ATOM      1  N   UNL     1      -5.680  -5.686 -11.355  0.00  0.00    -0.354 N 
ATOM      2  N   UNL     1      -3.429  -5.613 -10.815  0.00  0.00    -0.372 N 
ATOM      3  N   UNL     1      -4.869  -4.165  -9.767  0.00  0.00    -0.372 N 
ATOM      4  C   UNL     1      -4.675  -5.153 -10.648  0.00  0.00    +0.166 C 
ATOM      5  H   UNL     1      -5.463  -6.412 -12.028  0.00  0.00    +0.163 HD
ATOM      6  H   UNL     1      -2.651  -5.233 -10.293  0.00  0.00    +0.159 HD
ATOM      7  H   UNL     1      -3.222  -6.370 -11.455  0.00  0.00    +0.159 HD
ATOM      8  H   UNL     1      -5.784  -3.770  -9.599  0.00  0.00    +0.159 HD
ATOM      9  H   UNL     1      -4.101  -3.764  -9.244  0.00  0.00    +0.159 HD
ENDROOT
BRANCH   1  10
ATOM     10  C   UNL     1      -7.081  -5.294 -11.208  0.00  0.00    +0.151 C 
BRANCH  10  11
ATOM     11  C   UNL     1      -7.888  -6.497 -10.806  0.00  0.00    -0.028 A 
ATOM     12  C   UNL     1      -7.303  -7.771 -10.780  0.00  0.00    +0.005 A 
ATOM     13  C   UNL     1      -9.239  -6.369 -10.446  0.00  0.00    +0.005 A 
ATOM     14  C   UNL     1      -8.044  -8.885 -10.378  0.00  0.00    +0.000 A 
ATOM     15  C   UNL     1      -9.976  -7.484 -10.046  0.00  0.00    +0.000 A 
ATOM     16  C   UNL     1      -9.377  -8.741 -10.010  0.00  0.00    +0.000 A 
ENDBRANCH  10  11
ENDBRANCH   1  10
TORSDOF 2
ENDMDL
MODEL 6
REMARK VINA RESULT:    -4.880      3.888      5.404
REMARK INTER + INTRA:          -5.597
REMARK INTER:                  -5.506
REMARK INTRA:                  -0.091
REMARK UNBOUND:                -0.147
REMARK  Name = 1550473
REMARK  2 active torsions:
REMARK  status: ('A' for Active; 'I' for Inactive)
REMARK    1  A    between atoms: N_1  and  C_4
REMARK    2  A    between atoms: C_4  and  C_5
REMARK                            x       y       z     vdW  Elec       q    Type
REMARK                         _______ _______ _______ _____ _____    ______ ____
ROOT
ATOM      1  N   UNL     1      -6.664 -10.293  -9.176  0.00  0.00    -0.354 N 
ATOM      2  N   UNL     1      -5.843 -11.608  -7.455  0.00  0.00    -0.372 N 
ATOM      3  N   UNL     1      -6.473 -12.616  -9.418  0.00  0.00    -0.372 N 
ATOM      4  C   UNL     1      -6.333 -11.499  -8.696  0.00  0.00    +0.166 C 
ATOM      5  H   UNL     1      -6.562  -9.489  -8.568  0.00  0.00    +0.163 HD
ATOM      6  H   UNL     1      -5.581 -12.505  -7.067  0.00  0.00    +0.159 HD
ATOM      7  H   UNL     1      -5.699 -10.797  -6.866  0.00  0.00    +0.159 HD
ATOM      8  H   UNL     1      -6.843 -12.603 -10.359  0.00  0.00    +0.159 HD
ATOM      9  H   UNL     1      -6.228 -13.524  -9.043  0.00  0.00    +0.159 HD
ENDROOT
BRANCH   1  10
ATOM     10  C   UNL     1      -7.155 -10.060 -10.533  0.00  0.00    +0.151 C 
BRANCH  10  11
ATOM     11  C   UNL     1      -7.498  -8.604 -10.687  0.00  0.00    -0.028 A 
ATOM     12  C   UNL     1      -8.776  -8.133 -10.351  0.00  0.00    +0.005 A 
ATOM     13  C   UNL     1      -6.547  -7.688 -11.164  0.00  0.00    +0.005 A 
ATOM     14  C   UNL     1      -9.085  -6.776 -10.466  0.00  0.00    +0.000 A 
ATOM     15  C   UNL     1      -6.860  -6.333 -11.278  0.00  0.00    +0.000 A 
ATOM     16  C   UNL     1      -8.128  -5.878 -10.927  0.00  0.00    +0.000 A 
ENDBRANCH  10  11
ENDBRANCH   1  10
TORSDOF 2
ENDMDL
MODEL 7
REMARK VINA RESULT:    -4.854     27.726     29.036
REMARK INTER + INTRA:          -5.568
REMARK INTER:                  -5.513
REMARK INTRA:                  -0.054
REMARK UNBOUND:                -0.147
REMARK  Name = 1550473
REMARK  2 active torsions:
REMARK  status: ('A' for Active; 'I' for Inactive)
REMARK    1  A    between atoms: N_1  and  C_4
REMARK    2  A    between atoms: C_4  and  C_5
REMARK                            x       y       z     vdW  Elec       q    Type
REMARK                         _______ _______ _______ _____ _____    ______ ____
ROOT
ATOM      1  N   UNL     1      -6.057   8.454  16.810  0.00  0.00    -0.354 N 
ATOM      2  N   UNL     1      -3.965   8.399  17.802  0.00  0.00    -0.372 N 
ATOM      3  N   UNL     1      -4.895   6.435  17.065  0.00  0.00    -0.372 N 
ATOM      4  C   UNL     1      -4.986   7.760  17.219  0.00  0.00    +0.166 C 
ATOM      5  H   UNL     1      -6.078   9.452  16.983  0.00  0.00    +0.163 HD
ATOM      6  H   UNL     1      -3.142   7.902  18.118  0.00  0.00    +0.159 HD
ATOM      7  H   UNL     1      -3.969   9.403  17.932  0.00  0.00    +0.159 HD
ATOM      8  H   UNL     1      -5.634   5.893  16.637  0.00  0.00    +0.159 HD
ATOM      9  H   UNL     1      -4.085   5.919  17.385  0.00  0.00    +0.159 HD
ENDROOT
BRANCH   1  10
ATOM     10  C   UNL     1      -7.199   7.862  16.115  0.00  0.00    +0.151 C 
BRANCH  10  11
ATOM     11  C   UNL     1      -7.165   8.278  14.671  0.00  0.00    -0.028 A 
ATOM     12  C   UNL     1      -5.943   8.395  13.992  0.00  0.00    +0.005 A 
ATOM     13  C   UNL     1      -8.352   8.552  13.974  0.00  0.00    +0.005 A 
ATOM     14  C   UNL     1      -5.913   8.752  12.642  0.00  0.00    +0.000 A 
ATOM     15  C   UNL     1      -8.317   8.910  12.626  0.00  0.00    +0.000 A 
ATOM     16  C   UNL     1      -7.098   9.007  11.960  0.00  0.00    +0.000 A 
ENDBRANCH  10  11
ENDBRANCH   1  10
TORSDOF 2
ENDMDL
MODEL 8
REMARK VINA RESULT:    -4.716     23.479     24.741
REMARK INTER + INTRA:          -5.413
REMARK INTER:                  -5.298
REMARK INTRA:                  -0.115
REMARK UNBOUND:                -0.147
REMARK  Name = 1550473
REMARK  2 active torsions:
REMARK  status: ('A' for Active; 'I' for Inactive)
REMARK    1  A    between atoms: N_1  and  C_4
REMARK    2  A    between atoms: C_4  and  C_5
REMARK                            x       y       z     vdW  Elec       q    Type
REMARK                         _______ _______ _______ _____ _____    ______ ____
ROOT
ATOM      1  N   UNL     1       1.249  -9.609  10.744  0.00  0.00    -0.354 N 
ATOM      2  N   UNL     1       0.329 -10.775   8.966  0.00  0.00    -0.372 N 
ATOM      3  N   UNL     1       2.304  -9.650   8.652  0.00  0.00    -0.372 N 
ATOM      4  C   UNL     1       1.302 -10.003   9.464  0.00  0.00    +0.166 C 
ATOM      5  H   UNL     1       0.447  -9.885  11.299  0.00  0.00    +0.163 HD
ATOM      6  H   UNL     1       0.344 -11.090   8.006  0.00  0.00    +0.159 HD
ATOM      7  H   UNL     1      -0.448 -11.088   9.537  0.00  0.00    +0.159 HD
ATOM      8  H   UNL     1       3.066  -9.064   8.964  0.00  0.00    +0.159 HD
ATOM      9  H   UNL     1       2.331  -9.946   7.684  0.00  0.00    +0.159 HD
ENDROOT
BRANCH   1  10
ATOM     10  C   UNL     1       2.285  -8.812  11.398  0.00  0.00    +0.151 C 
BRANCH  10  11
ATOM     11  C   UNL     1       2.196  -9.016  12.885  0.00  0.00    -0.028 A 
ATOM     12  C   UNL     1       0.953  -9.206  13.505  0.00  0.00    +0.005 A 
ATOM     13  C   UNL     1       3.353  -9.027  13.679  0.00  0.00    +0.005 A 
ATOM     14  C   UNL     1       0.872  -9.426  14.882  0.00  0.00    +0.000 A 
ATOM     15  C   UNL     1       3.269  -9.246  15.054  0.00  0.00    +0.000 A 
ATOM     16  C   UNL     1       2.028  -9.448  15.655  0.00  0.00    +0.000 A 
ENDBRANCH  10  11
ENDBRANCH   1  10
TORSDOF 2
ENDMDL
MODEL 9
REMARK VINA RESULT:    -4.695      3.527      5.147
REMARK INTER + INTRA:          -5.390
REMARK INTER:                  -5.284
REMARK INTRA:                  -0.106
REMARK UNBOUND:                -0.147
REMARK  Name = 1550473
REMARK  2 active torsions:
REMARK  status: ('A' for Active; 'I' for Inactive)
REMARK    1  A    between atoms: N_1  and  C_4
REMARK    2  A    between atoms: C_4  and  C_5
REMARK                            x       y       z     vdW  Elec       q    Type
REMARK                         _______ _______ _______ _____ _____    ______ ____
ROOT
ATOM      1  N   UNL     1      -6.941  -8.754 -10.870  0.00  0.00    -0.354 N 
ATOM      2  N   UNL     1      -6.854 -11.059 -11.077  0.00  0.00    -0.372 N 
ATOM      3  N   UNL     1      -6.963 -10.138  -8.979  0.00  0.00    -0.372 N 
ATOM      4  C   UNL     1      -6.920  -9.969 -10.304  0.00  0.00    +0.166 C 
ATOM      5  H   UNL     1      -6.875  -8.692 -11.879  0.00  0.00    +0.163 HD
ATOM      6  H   UNL     1      -6.840 -11.989 -10.679  0.00  0.00    +0.159 HD
ATOM      7  H   UNL     1      -6.834 -10.996 -12.088  0.00  0.00    +0.159 HD
ATOM      8  H   UNL     1      -7.008  -9.355  -8.340  0.00  0.00    +0.159 HD
ATOM      9  H   UNL     1      -6.938 -11.060  -8.561  0.00  0.00    +0.159 HD
ENDROOT
BRANCH   1  10
ATOM     10  C   UNL     1      -7.065  -7.505 -10.120  0.00  0.00    +0.151 C 
BRANCH  10  11
ATOM     11  C   UNL     1      -6.224  -6.449 -10.783  0.00  0.00    -0.028 A 
ATOM     12  C   UNL     1      -5.143  -5.870 -10.103  0.00  0.00    +0.005 A 
ATOM     13  C   UNL     1      -6.500  -6.027 -12.092  0.00  0.00    +0.005 A 
ATOM     14  C   UNL     1      -4.344  -4.910 -10.728  0.00  0.00    +0.000 A 
ATOM     15  C   UNL     1      -5.700  -5.068 -12.713  0.00  0.00    +0.000 A 
ATOM     16  C   UNL     1      -4.620  -4.512 -12.032  0.00  0.00    +0.000 A 
ENDBRANCH  10  11
ENDBRANCH   1  10
TORSDOF 2
ENDMDL
