MODEL 1
REMARK VINA RESULT:    -5.392      0.000      0.000
REMARK INTER + INTRA:          -6.133
REMARK INTER:                  -6.022
REMARK INTRA:                  -0.110
REMARK UNBOUND:                -0.110
REMARK  Name = 1550473
REMARK  2 active torsions:
REMARK  status: ('A' for Active; 'I' for Inactive)
REMARK    1  A    between atoms: N_1  and  C_4
REMARK    2  A    between atoms: C_4  and  C_5
REMARK                            x       y       z     vdW  Elec       q    Type
REMARK                         _______ _______ _______ _____ _____    ______ ____
ROOT
ATOM      1  N   UNL     1      -3.118   1.339   0.677  0.00  0.00    -0.354 N 
ATOM      2  N   UNL     1      -1.627   0.041  -0.529  0.00  0.00    -0.372 N 
ATOM      3  N   UNL     1      -0.876   1.151   1.333  0.00  0.00    -0.372 N 
ATOM      4  C   UNL     1      -1.881   0.853   0.504  0.00  0.00    +0.166 C 
ATOM      5  H   UNL     1      -3.829   1.100  -0.004  0.00  0.00    +0.163 HD
ATOM      6  H   UNL     1      -0.704  -0.344  -0.684  0.00  0.00    +0.159 HD
ATOM      7  H   UNL     1      -2.350  -0.234  -1.182  0.00  0.00    +0.159 HD
ATOM      8  H   UNL     1      -1.001   1.764   2.128  0.00  0.00    +0.159 HD
ATOM      9  H   UNL     1       0.057   0.786   1.188  0.00  0.00    +0.159 HD
ENDROOT
BRANCH   1  10
ATOM     10  C   UNL     1      -3.512   2.189   1.800  0.00  0.00    +0.151 C 
BRANCH  10  11
ATOM     11  C   UNL     1      -4.567   1.481   2.604  0.00  0.00    -0.028 A 
ATOM     12  C   UNL     1      -4.708   0.088   2.525  0.00  0.00    +0.005 A 
ATOM     13  C   UNL     1      -5.426   2.197   3.453  0.00  0.00    +0.005 A 
ATOM     14  C   UNL     1      -5.667  -0.574   3.295  0.00  0.00    +0.000 A 
ATOM     15  C   UNL     1      -6.383   1.533   4.219  0.00  0.00    +0.000 A 
ATOM     16  C   UNL     1      -6.502   0.148   4.142  0.00  0.00    +0.000 A 
ENDBRANCH  10  11
ENDBRANCH   1  10
TORSDOF 2
ENDMDL
MODEL 2
REMARK VINA RESULT:    -4.988      1.869      2.593
REMARK INTER + INTRA:          -5.682
REMARK INTER:                  -5.536
REMARK INTRA:                  -0.146
REMARK UNBOUND:                -0.110
REMARK  Name = 1550473
REMARK  2 active torsions:
REMARK  status: ('A' for Active; 'I' for Inactive)
REMARK    1  A    between atoms: N_1  and  C_4
REMARK    2  A    between atoms: C_4  and  C_5
REMARK                            x       y       z     vdW  Elec       q    Type
REMARK                         _______ _______ _______ _____ _____    ______ ____
ROOT
ATOM      1  N   UNL     1      -4.854   0.143   0.609  0.00  0.00    -0.354 N 
ATOM      2  N   UNL     1      -5.435   0.398  -1.618  0.00  0.00    -0.372 N 
ATOM      3  N   UNL     1      -3.935   1.864  -0.689  0.00  0.00    -0.372 N 
ATOM      4  C   UNL     1      -4.736   0.802  -0.551  0.00  0.00    +0.166 C 
ATOM      5  H   UNL     1      -5.500  -0.636   0.657  0.00  0.00    +0.163 HD
ATOM      6  H   UNL     1      -5.364   0.873  -2.508  0.00  0.00    +0.159 HD
ATOM      7  H   UNL     1      -6.046  -0.409  -1.580  0.00  0.00    +0.159 HD
ATOM      8  H   UNL     1      -3.385   2.223   0.080  0.00  0.00    +0.159 HD
ATOM      9  H   UNL     1      -3.859   2.360  -1.568  0.00  0.00    +0.159 HD
ENDROOT
BRANCH   1  10
ATOM     10  C   UNL     1      -4.095   0.469   1.816  0.00  0.00    +0.151 C 
BRANCH  10  11
ATOM     11  C   UNL     1      -5.054   0.851   2.910  0.00  0.00    -0.028 A 
ATOM     12  C   UNL     1      -5.195   2.191   3.297  0.00  0.00    +0.005 A 
ATOM     13  C   UNL     1      -5.829  -0.123   3.559  0.00  0.00    +0.005 A 
ATOM     14  C   UNL     1      -6.107   2.550   4.293  0.00  0.00    +0.000 A 
ATOM     15  C   UNL     1      -6.738   0.240   4.553  0.00  0.00    +0.000 A 
ATOM     16  C   UNL     1      -6.878   1.576   4.918  0.00  0.00    +0.000 A 
ENDBRANCH  10  11
ENDBRANCH   1  10
TORSDOF 2
ENDMDL
MODEL 3
REMARK VINA RESULT:    -4.876      2.505      4.752
REMARK INTER + INTRA:          -5.556
REMARK INTER:                  -5.429
REMARK INTRA:                  -0.127
REMARK UNBOUND:                -0.110
REMARK  Name = 1550473
REMARK  2 active torsions:
REMARK  status: ('A' for Active; 'I' for Inactive)
REMARK    1  A    between atoms: N_1  and  C_4
REMARK    2  A    between atoms: C_4  and  C_5
REMARK                            x       y       z     vdW  Elec       q    Type
REMARK                         _______ _______ _______ _____ _____    ______ ____
ROOT
ATOM      1  N   UNL     1      -4.495   0.483   2.474  0.00  0.00    -0.354 N 
ATOM      2  N   UNL     1      -5.380  -1.508   3.260  0.00  0.00    -0.372 N 
ATOM      3  N   UNL     1      -6.242   0.472   4.036  0.00  0.00    -0.372 N 
ATOM      4  C   UNL     1      -5.368  -0.170   3.253  0.00  0.00    +0.166 C 
ATOM      5  H   UNL     1      -3.838  -0.062   1.927  0.00  0.00    +0.163 HD
ATOM      6  H   UNL     1      -6.030  -2.028   3.835  0.00  0.00    +0.159 HD
ATOM      7  H   UNL     1      -4.753  -2.050   2.677  0.00  0.00    +0.159 HD
ATOM      8  H   UNL     1      -6.280   1.481   4.081  0.00  0.00    +0.159 HD
ATOM      9  H   UNL     1      -6.892  -0.031   4.627  0.00  0.00    +0.159 HD
ENDROOT
BRANCH   1  10
ATOM     10  C   UNL     1      -4.436   1.938   2.353  0.00  0.00    +0.151 C 
BRANCH  10  11
ATOM     11  C   UNL     1      -3.081   2.333   1.834  0.00  0.00    -0.028 A 
ATOM     12  C   UNL     1      -2.139   1.355   1.484  0.00  0.00    +0.005 A 
ATOM     13  C   UNL     1      -2.735   3.685   1.684  0.00  0.00    +0.005 A 
ATOM     14  C   UNL     1      -0.892   1.721   0.973  0.00  0.00    +0.000 A 
ATOM     15  C   UNL     1      -1.487   4.047   1.175  0.00  0.00    +0.000 A 
ATOM     16  C   UNL     1      -0.567   3.064   0.817  0.00  0.00    +0.000 A 
ENDBRANCH  10  11
ENDBRANCH   1  10
TORSDOF 2
ENDMDL
MODEL 4
REMARK VINA RESULT:    -4.822      3.898      4.680
REMARK INTER + INTRA:          -5.496
REMARK INTER:                  -5.357
REMARK INTRA:                  -0.139
REMARK UNBOUND:                -0.110
REMARK  Name = 1550473
REMARK  2 active torsions:
REMARK  status: ('A' for Active; 'I' for Inactive)
REMARK    1  A    between atoms: N_1  and  C_4
REMARK    2  A    between atoms: C_4  and  C_5
REMARK                            x       y       z     vdW  Elec       q    Type
REMARK                         _______ _______ _______ _____ _____    ______ ____
ROOT
ATOM      1  N   UNL     1      -7.983   3.228   0.907  0.00  0.00    -0.354 N 
ATOM      2  N   UNL     1      -9.925   3.371  -0.345  0.00  0.00    -0.372 N 
ATOM      3  N   UNL     1      -8.126   2.243  -1.214  0.00  0.00    -0.372 N 
ATOM      4  C   UNL     1      -8.664   2.945  -0.211  0.00  0.00    +0.166 C 
ATOM      5  H   UNL     1      -8.436   3.790   1.618  0.00  0.00    +0.163 HD
ATOM      6  H   UNL     1     -10.465   3.171  -1.176  0.00  0.00    +0.159 HD
ATOM      7  H   UNL     1     -10.392   3.894   0.386  0.00  0.00    +0.159 HD
ATOM      8  H   UNL     1      -7.177   1.897  -1.177  0.00  0.00    +0.159 HD
ATOM      9  H   UNL     1      -8.647   2.042  -2.059  0.00  0.00    +0.159 HD
ENDROOT
BRANCH   1  10
ATOM     10  C   UNL     1      -6.622   2.765   1.175  0.00  0.00    +0.151 C 
BRANCH  10  11
ATOM     11  C   UNL     1      -6.626   1.927   2.425  0.00  0.00    -0.028 A 
ATOM     12  C   UNL     1      -5.903   0.726   2.479  0.00  0.00    +0.005 A 
ATOM     13  C   UNL     1      -7.344   2.333   3.560  0.00  0.00    +0.005 A 
ATOM     14  C   UNL     1      -5.882  -0.037   3.649  0.00  0.00    +0.000 A 
ATOM     15  C   UNL     1      -7.321   1.568   4.726  0.00  0.00    +0.000 A 
ATOM     16  C   UNL     1      -6.588   0.384   4.771  0.00  0.00    +0.000 A 
ENDBRANCH  10  11
ENDBRANCH   1  10
TORSDOF 2
ENDMDL
MODEL 5
REMARK VINA RESULT:    -4.819      2.560      3.423
REMARK INTER + INTRA:          -5.492
REMARK INTER:                  -5.382
REMARK INTRA:                  -0.111
REMARK UNBOUND:                -0.110
REMARK  Name = 1550473
REMARK  2 active torsions:
REMARK  status: ('A' for Active; 'I' for Inactive)
REMARK    1  A    between atoms: N_1  and  C_4
REMARK    2  A    between atoms: C_4  and  C_5
REMARK                            x       y       z     vdW  Elec       q    Type
REMARK                         _______ _______ _______ _____ _____    ______ ____
ROOT
ATOM      1  N   UNL     1      -3.678   4.025   3.178  0.00  0.00    -0.354 N 
ATOM      2  N   UNL     1      -2.255   5.781   3.679  0.00  0.00    -0.372 N 
ATOM      3  N   UNL     1      -2.017   4.700   1.669  0.00  0.00    -0.372 N 
ATOM      4  C   UNL     1      -2.658   4.823   2.837  0.00  0.00    +0.166 C 
ATOM      5  H   UNL     1      -4.103   4.149   4.090  0.00  0.00    +0.163 HD
ATOM      6  H   UNL     1      -1.490   6.401   3.448  0.00  0.00    +0.159 HD
ATOM      7  H   UNL     1      -2.711   5.934   4.571  0.00  0.00    +0.159 HD
ATOM      8  H   UNL     1      -2.269   3.993   0.992  0.00  0.00    +0.159 HD
ATOM      9  H   UNL     1      -1.242   5.304   1.424  0.00  0.00    +0.159 HD
ENDROOT
BRANCH   1  10
ATOM     10  C   UNL     1      -4.230   2.986   2.310  0.00  0.00    +0.151 C 
BRANCH  10  11
ATOM     11  C   UNL     1      -5.103   2.075   3.128  0.00  0.00    -0.028 A 
ATOM     12  C   UNL     1      -5.944   2.597   4.121  0.00  0.00    +0.005 A 
ATOM     13  C   UNL     1      -5.099   0.688   2.910  0.00  0.00    +0.005 A 
ATOM     14  C   UNL     1      -6.778   1.755   4.861  0.00  0.00    +0.000 A 
ATOM     15  C   UNL     1      -5.932  -0.150   3.651  0.00  0.00    +0.000 A 
ATOM     16  C   UNL     1      -6.773   0.384   4.624  0.00  0.00    +0.000 A 
ENDBRANCH  10  11
ENDBRANCH   1  10
TORSDOF 2
ENDMDL
MODEL 6
REMARK VINA RESULT:    -4.620      1.615      2.085
REMARK INTER + INTRA:          -5.270
REMARK INTER:                  -5.152
REMARK INTRA:                  -0.118
REMARK UNBOUND:                -0.110
REMARK  Name = 1550473
REMARK  2 active torsions:
REMARK  status: ('A' for Active; 'I' for Inactive)
REMARK    1  A    between atoms: N_1  and  C_4
REMARK    2  A    between atoms: C_4  and  C_5
REMARK                            x       y       z     vdW  Elec       q    Type
REMARK                         _______ _______ _______ _____ _____    ______ ____
ROOT
ATOM      1  N   UNL     1      -3.459   3.145   1.918  0.00  0.00    -0.354 N 
ATOM      2  N   UNL     1      -1.834   4.795   1.908  0.00  0.00    -0.372 N 
ATOM      3  N   UNL     1      -1.488   2.891   0.676  0.00  0.00    -0.372 N 
ATOM      4  C   UNL     1      -2.270   3.597   1.500  0.00  0.00    +0.166 C 
ATOM      5  H   UNL     1      -3.991   3.716   2.566  0.00  0.00    +0.163 HD
ATOM      6  H   UNL     1      -0.942   5.164   1.607  0.00  0.00    +0.159 HD
ATOM      7  H   UNL     1      -2.388   5.383   2.519  0.00  0.00    +0.159 HD
ATOM      8  H   UNL     1      -1.757   1.977   0.336  0.00  0.00    +0.159 HD
ATOM      9  H   UNL     1      -0.587   3.238   0.372  0.00  0.00    +0.159 HD
ENDROOT
BRANCH   1  10
ATOM     10  C   UNL     1      -4.049   1.878   1.489  0.00  0.00    +0.151 C 
BRANCH  10  11
ATOM     11  C   UNL     1      -4.975   1.379   2.564  0.00  0.00    -0.028 A 
ATOM     12  C   UNL     1      -5.153   0.002   2.767  0.00  0.00    +0.005 A 
ATOM     13  C   UNL     1      -5.673   2.277   3.386  0.00  0.00    +0.005 A 
ATOM     14  C   UNL     1      -5.990  -0.462   3.785  0.00  0.00    +0.000 A 
ATOM     15  C   UNL     1      -6.508   1.809   4.401  0.00  0.00    +0.000 A 
ATOM     16  C   UNL     1      -6.664   0.440   4.601  0.00  0.00    +0.000 A 
ENDBRANCH  10  11
ENDBRANCH   1  10
TORSDOF 2
ENDMDL
MODEL 7
REMARK VINA RESULT:    -4.592      3.165      5.217
REMARK INTER + INTRA:          -5.239
REMARK INTER:                  -5.108
REMARK INTRA:                  -0.131
REMARK UNBOUND:                -0.110
REMARK  Name = 1550473
REMARK  2 active torsions:
REMARK  status: ('A' for Active; 'I' for Inactive)
REMARK    1  A    between atoms: N_1  and  C_4
REMARK    2  A    between atoms: C_4  and  C_5
REMARK                            x       y       z     vdW  Elec       q    Type
REMARK                         _______ _______ _______ _____ _____    ______ ____
ROOT
ATOM      1  N   UNL     1      -6.826   1.764   2.848  0.00  0.00    -0.354 N 
ATOM      2  N   UNL     1      -8.587   3.216   3.244  0.00  0.00    -0.372 N 
ATOM      3  N   UNL     1      -7.647   2.102   5.017  0.00  0.00    -0.372 N 
ATOM      4  C   UNL     1      -7.675   2.350   3.703  0.00  0.00    +0.166 C 
ATOM      5  H   UNL     1      -6.919   1.972   1.860  0.00  0.00    +0.163 HD
ATOM      6  H   UNL     1      -9.238   3.677   3.866  0.00  0.00    +0.159 HD
ATOM      7  H   UNL     1      -8.646   3.457   2.263  0.00  0.00    +0.159 HD
ATOM      8  H   UNL     1      -6.987   1.454   5.425  0.00  0.00    +0.159 HD
ATOM      9  H   UNL     1      -8.298   2.544   5.654  0.00  0.00    +0.159 HD
ENDROOT
BRANCH   1  10
ATOM     10  C   UNL     1      -5.762   0.848   3.252  0.00  0.00    +0.151 C 
BRANCH  10  11
ATOM     11  C   UNL     1      -4.486   1.241   2.559  0.00  0.00    -0.028 A 
ATOM     12  C   UNL     1      -3.847   2.449   2.876  0.00  0.00    +0.005 A 
ATOM     13  C   UNL     1      -3.908   0.407   1.589  0.00  0.00    +0.005 A 
ATOM     14  C   UNL     1      -2.646   2.800   2.254  0.00  0.00    +0.000 A 
ATOM     15  C   UNL     1      -2.709   0.763   0.970  0.00  0.00    +0.000 A 
ATOM     16  C   UNL     1      -2.078   1.958   1.305  0.00  0.00    +0.000 A 
ENDBRANCH  10  11
ENDBRANCH   1  10
TORSDOF 2
ENDMDL
MODEL 8
REMARK VINA RESULT:    -4.560     15.685     16.630
REMARK INTER + INTRA:          -5.203
REMARK INTER:                  -5.041
REMARK INTRA:                  -0.162
REMARK UNBOUND:                -0.110
REMARK  Name = 1550473
REMARK  2 active torsions:
REMARK  status: ('A' for Active; 'I' for Inactive)
REMARK    1  A    between atoms: N_1  and  C_4
REMARK    2  A    between atoms: C_4  and  C_5
REMARK                            x       y       z     vdW  Elec       q    Type
REMARK                         _______ _______ _______ _____ _____    ______ ____
ROOT
ATOM      1  N   UNL     1     -11.115  12.937  -9.222  0.00  0.00    -0.354 N 
ATOM      2  N   UNL     1     -10.419  15.070  -8.646  0.00  0.00    -0.372 N 
ATOM      3  N   UNL     1     -12.229  14.164  -7.566  0.00  0.00    -0.372 N 
ATOM      4  C   UNL     1     -11.261  14.043  -8.480  0.00  0.00    +0.166 C 
ATOM      5  H   UNL     1     -10.380  12.919  -9.920  0.00  0.00    +0.163 HD
ATOM      6  H   UNL     1     -10.502  15.915  -8.099  0.00  0.00    +0.159 HD
ATOM      7  H   UNL     1      -9.657  15.031  -9.312  0.00  0.00    +0.159 HD
ATOM      8  H   UNL     1     -12.901  13.428  -7.396  0.00  0.00    +0.159 HD
ATOM      9  H   UNL     1     -12.336  15.007  -7.016  0.00  0.00    +0.159 HD
ENDROOT
BRANCH   1  10
ATOM     10  C   UNL     1     -11.946  11.742  -9.082  0.00  0.00    +0.151 C 
BRANCH  10  11
ATOM     11  C   UNL     1     -11.154  10.673  -8.382  0.00  0.00    -0.028 A 
ATOM     12  C   UNL     1     -11.764   9.841  -7.432  0.00  0.00    +0.005 A 
ATOM     13  C   UNL     1      -9.793  10.482  -8.669  0.00  0.00    +0.005 A 
ATOM     14  C   UNL     1     -11.036   8.828  -6.804  0.00  0.00    +0.000 A 
ATOM     15  C   UNL     1      -9.070   9.469  -8.039  0.00  0.00    +0.000 A 
ATOM     16  C   UNL     1      -9.692   8.641  -7.108  0.00  0.00    +0.000 A 
ENDBRANCH  10  11
ENDBRANCH   1  10
TORSDOF 2
ENDMDL
MODEL 9
REMARK VINA RESULT:    -4.373      3.047      3.629
REMARK INTER + INTRA:          -4.994
REMARK INTER:                  -4.837
REMARK INTRA:                  -0.157
REMARK UNBOUND:                -0.110
REMARK  Name = 1550473
REMARK  2 active torsions:
REMARK  status: ('A' for Active; 'I' for Inactive)
REMARK    1  A    between atoms: N_1  and  C_4
REMARK    2  A    between atoms: C_4  and  C_5
REMARK                            x       y       z     vdW  Elec       q    Type
REMARK                         _______ _______ _______ _____ _____    ______ ____
ROOT
ATOM      1  N   UNL     1      -4.351   4.406   3.915  0.00  0.00    -0.354 N 
ATOM      2  N   UNL     1      -2.329   5.441   3.462  0.00  0.00    -0.372 N 
ATOM      3  N   UNL     1      -3.912   5.325   1.805  0.00  0.00    -0.372 N 
ATOM      4  C   UNL     1      -3.545   5.051   3.061  0.00  0.00    +0.166 C 
ATOM      5  H   UNL     1      -4.002   4.201   4.844  0.00  0.00    +0.163 HD
ATOM      6  H   UNL     1      -1.700   5.932   2.841  0.00  0.00    +0.159 HD
ATOM      7  H   UNL     1      -2.001   5.276   4.406  0.00  0.00    +0.159 HD
ATOM      8  H   UNL     1      -4.814   5.053   1.438  0.00  0.00    +0.159 HD
ATOM      9  H   UNL     1      -3.292   5.806   1.165  0.00  0.00    +0.159 HD
ENDROOT
BRANCH   1  10
ATOM     10  C   UNL     1      -5.714   3.986   3.594  0.00  0.00    +0.151 C 
BRANCH  10  11
ATOM     11  C   UNL     1      -5.783   2.484   3.616  0.00  0.00    -0.028 A 
ATOM     12  C   UNL     1      -5.081   1.724   2.669  0.00  0.00    +0.005 A 
ATOM     13  C   UNL     1      -6.544   1.813   4.586  0.00  0.00    +0.005 A 
ATOM     14  C   UNL     1      -5.121   0.328   2.707  0.00  0.00    +0.000 A 
ATOM     15  C   UNL     1      -6.582   0.419   4.621  0.00  0.00    +0.000 A 
ATOM     16  C   UNL     1      -5.868  -0.323   3.683  0.00  0.00    +0.000 A 
ENDBRANCH  10  11
ENDBRANCH   1  10
TORSDOF 2
ENDMDL
