MODEL 1
REMARK VINA RESULT:    -5.479      0.000      0.000
REMARK INTER + INTRA:          -6.236
REMARK INTER:                  -6.120
REMARK INTRA:                  -0.116
REMARK UNBOUND:                -0.116
REMARK  Name = 1550473
REMARK  2 active torsions:
REMARK  status: ('A' for Active; 'I' for Inactive)
REMARK    1  A    between atoms: N_1  and  C_4
REMARK    2  A    between atoms: C_4  and  C_5
REMARK                            x       y       z     vdW  Elec       q    Type
REMARK                         _______ _______ _______ _____ _____    ______ ____
ROOT
ATOM      1  N   UNL     1       7.696  11.351   6.783  0.00  0.00    -0.354 N 
ATOM      2  N   UNL     1       6.566  10.226   8.463  0.00  0.00    -0.372 N 
ATOM      3  N   UNL     1       5.482  11.897   7.324  0.00  0.00    -0.372 N 
ATOM      4  C   UNL     1       6.587  11.167   7.512  0.00  0.00    +0.166 C 
ATOM      5  H   UNL     1       8.510  10.785   6.995  0.00  0.00    +0.163 HD
ATOM      6  H   UNL     1       5.743  10.062   9.026  0.00  0.00    +0.159 HD
ATOM      7  H   UNL     1       7.366   9.631   8.641  0.00  0.00    +0.159 HD
ATOM      8  H   UNL     1       5.435  12.628   6.627  0.00  0.00    +0.159 HD
ATOM      9  H   UNL     1       4.652  11.756   7.886  0.00  0.00    +0.159 HD
ENDROOT
BRANCH   1  10
ATOM     10  C   UNL     1       7.805  12.313   5.688  0.00  0.00    +0.151 C 
BRANCH  10  11
ATOM     11  C   UNL     1       8.517  11.664   4.533  0.00  0.00    -0.028 A 
ATOM     12  C   UNL     1       7.801  10.924   3.580  0.00  0.00    +0.005 A 
ATOM     13  C   UNL     1       9.907  11.790   4.383  0.00  0.00    +0.005 A 
ATOM     14  C   UNL     1       8.458  10.346   2.491  0.00  0.00    +0.000 A 
ATOM     15  C   UNL     1      10.559  11.210   3.294  0.00  0.00    +0.000 A 
ATOM     16  C   UNL     1       9.834  10.491   2.348  0.00  0.00    +0.000 A 
ENDBRANCH  10  11
ENDBRANCH   1  10
TORSDOF 2
ENDMDL
MODEL 2
REMARK VINA RESULT:    -5.277      2.069      3.023
REMARK INTER + INTRA:          -6.010
REMARK INTER:                  -5.965
REMARK INTRA:                  -0.045
REMARK UNBOUND:                -0.116
REMARK  Name = 1550473
REMARK  2 active torsions:
REMARK  status: ('A' for Active; 'I' for Inactive)
REMARK    1  A    between atoms: N_1  and  C_4
REMARK    2  A    between atoms: C_4  and  C_5
REMARK                            x       y       z     vdW  Elec       q    Type
REMARK                         _______ _______ _______ _____ _____    ______ ____
ROOT
ATOM      1  N   UNL     1       7.509  11.733   7.813  0.00  0.00    -0.354 N 
ATOM      2  N   UNL     1       9.243  13.072   8.563  0.00  0.00    -0.372 N 
ATOM      3  N   UNL     1       7.264  14.059   7.954  0.00  0.00    -0.372 N 
ATOM      4  C   UNL     1       7.992  12.948   8.104  0.00  0.00    +0.166 C 
ATOM      5  H   UNL     1       8.121  10.933   7.920  0.00  0.00    +0.163 HD
ATOM      6  H   UNL     1       9.634  13.975   8.795  0.00  0.00    +0.159 HD
ATOM      7  H   UNL     1       9.838  12.266   8.713  0.00  0.00    +0.159 HD
ATOM      8  H   UNL     1       6.314  14.035   7.606  0.00  0.00    +0.159 HD
ATOM      9  H   UNL     1       7.641  14.974   8.169  0.00  0.00    +0.159 HD
ENDROOT
BRANCH   1  10
ATOM     10  C   UNL     1       6.142  11.484   7.358  0.00  0.00    +0.151 C 
BRANCH  10  11
ATOM     11  C   UNL     1       6.159  11.204   5.881  0.00  0.00    -0.028 A 
ATOM     12  C   UNL     1       5.025  10.680   5.242  0.00  0.00    +0.005 A 
ATOM     13  C   UNL     1       7.303  11.467   5.112  0.00  0.00    +0.005 A 
ATOM     14  C   UNL     1       5.031  10.448   3.865  0.00  0.00    +0.000 A 
ATOM     15  C   UNL     1       7.305  11.233   3.737  0.00  0.00    +0.000 A 
ATOM     16  C   UNL     1       6.168  10.726   3.114  0.00  0.00    +0.000 A 
ENDBRANCH  10  11
ENDBRANCH   1  10
TORSDOF 2
ENDMDL
MODEL 3
REMARK VINA RESULT:    -5.267     18.460     19.106
REMARK INTER + INTRA:          -5.999
REMARK INTER:                  -5.818
REMARK INTRA:                  -0.181
REMARK UNBOUND:                -0.116
REMARK  Name = 1550473
REMARK  2 active torsions:
REMARK  status: ('A' for Active; 'I' for Inactive)
REMARK    1  A    between atoms: N_1  and  C_4
REMARK    2  A    between atoms: C_4  and  C_5
REMARK                            x       y       z     vdW  Elec       q    Type
REMARK                         _______ _______ _______ _____ _____    ______ ____
ROOT
ATOM      1  N   UNL     1      -4.400   5.649  -8.878  0.00  0.00    -0.354 N 
ATOM      2  N   UNL     1      -4.421   7.620  -7.662  0.00  0.00    -0.372 N 
ATOM      3  N   UNL     1      -5.015   5.665  -6.617  0.00  0.00    -0.372 N 
ATOM      4  C   UNL     1      -4.613   6.296  -7.725  0.00  0.00    +0.166 C 
ATOM      5  H   UNL     1      -4.125   6.189  -9.691  0.00  0.00    +0.163 HD
ATOM      6  H   UNL     1      -4.570   8.135  -6.805  0.00  0.00    +0.159 HD
ATOM      7  H   UNL     1      -4.102   8.150  -8.463  0.00  0.00    +0.159 HD
ATOM      8  H   UNL     1      -5.184   4.668  -6.600  0.00  0.00    +0.159 HD
ATOM      9  H   UNL     1      -5.182   6.165  -5.753  0.00  0.00    +0.159 HD
ENDROOT
BRANCH   1  10
ATOM     10  C   UNL     1      -4.528   4.201  -9.039  0.00  0.00    +0.151 C 
BRANCH  10  11
ATOM     11  C   UNL     1      -3.170   3.570  -8.903  0.00  0.00    -0.028 A 
ATOM     12  C   UNL     1      -2.838   2.836  -7.755  0.00  0.00    +0.005 A 
ATOM     13  C   UNL     1      -2.213   3.696  -9.922  0.00  0.00    +0.005 A 
ATOM     14  C   UNL     1      -1.587   2.224  -7.641  0.00  0.00    +0.000 A 
ATOM     15  C   UNL     1      -0.966   3.084  -9.805  0.00  0.00    +0.000 A 
ATOM     16  C   UNL     1      -0.654   2.346  -8.665  0.00  0.00    +0.000 A 
ENDBRANCH  10  11
ENDBRANCH   1  10
TORSDOF 2
ENDMDL
MODEL 4
REMARK VINA RESULT:    -5.069      2.490      4.111
REMARK INTER + INTRA:          -5.778
REMARK INTER:                  -5.601
REMARK INTRA:                  -0.177
REMARK UNBOUND:                -0.116
REMARK  Name = 1550473
REMARK  2 active torsions:
REMARK  status: ('A' for Active; 'I' for Inactive)
REMARK    1  A    between atoms: N_1  and  C_4
REMARK    2  A    between atoms: C_4  and  C_5
REMARK                            x       y       z     vdW  Elec       q    Type
REMARK                         _______ _______ _______ _____ _____    ______ ____
ROOT
ATOM      1  N   UNL     1       9.600  11.924   6.242  0.00  0.00    -0.354 N 
ATOM      2  N   UNL     1      11.619  10.793   6.132  0.00  0.00    -0.372 N 
ATOM      3  N   UNL     1      10.944  12.038   4.326  0.00  0.00    -0.372 N 
ATOM      4  C   UNL     1      10.708  11.593   5.565  0.00  0.00    +0.166 C 
ATOM      5  H   UNL     1       9.465  11.529   7.166  0.00  0.00    +0.163 HD
ATOM      6  H   UNL     1      12.466  10.530   5.647  0.00  0.00    +0.159 HD
ATOM      7  H   UNL     1      11.503  10.438   7.073  0.00  0.00    +0.159 HD
ATOM      8  H   UNL     1      10.293  12.640   3.840  0.00  0.00    +0.159 HD
ATOM      9  H   UNL     1      11.781  11.775   3.819  0.00  0.00    +0.159 HD
ENDROOT
BRANCH   1  10
ATOM     10  C   UNL     1       8.572  12.831   5.736  0.00  0.00    +0.151 C 
BRANCH  10  11
ATOM     11  C   UNL     1       7.356  12.033   5.356  0.00  0.00    -0.028 A 
ATOM     12  C   UNL     1       7.214  11.526   4.056  0.00  0.00    +0.005 A 
ATOM     13  C   UNL     1       6.344  11.775   6.293  0.00  0.00    +0.005 A 
ATOM     14  C   UNL     1       6.099  10.759   3.711  0.00  0.00    +0.000 A 
ATOM     15  C   UNL     1       5.231  11.009   5.945  0.00  0.00    +0.000 A 
ATOM     16  C   UNL     1       5.110  10.499   4.654  0.00  0.00    +0.000 A 
ENDBRANCH  10  11
ENDBRANCH   1  10
TORSDOF 2
ENDMDL
MODEL 5
REMARK VINA RESULT:    -5.063     18.987     19.748
REMARK INTER + INTRA:          -5.771
REMARK INTER:                  -5.632
REMARK INTRA:                  -0.139
REMARK UNBOUND:                -0.116
REMARK  Name = 1550473
REMARK  2 active torsions:
REMARK  status: ('A' for Active; 'I' for Inactive)
REMARK    1  A    between atoms: N_1  and  C_4
REMARK    2  A    between atoms: C_4  and  C_5
REMARK                            x       y       z     vdW  Elec       q    Type
REMARK                         _______ _______ _______ _____ _____    ______ ____
ROOT
ATOM      1  N   UNL     1      -5.445   4.352  -8.747  0.00  0.00    -0.354 N 
ATOM      2  N   UNL     1      -7.008   5.157  -7.240  0.00  0.00    -0.372 N 
ATOM      3  N   UNL     1      -5.660   6.650  -8.344  0.00  0.00    -0.372 N 
ATOM      4  C   UNL     1      -6.026   5.384  -8.121  0.00  0.00    +0.166 C 
ATOM      5  H   UNL     1      -5.747   3.414  -8.512  0.00  0.00    +0.163 HD
ATOM      6  H   UNL     1      -7.468   5.915  -6.755  0.00  0.00    +0.159 HD
ATOM      7  H   UNL     1      -7.340   4.221  -7.041  0.00  0.00    +0.159 HD
ATOM      8  H   UNL     1      -4.922   6.888  -8.992  0.00  0.00    +0.159 HD
ATOM      9  H   UNL     1      -6.101   7.422  -7.859  0.00  0.00    +0.159 HD
ENDROOT
BRANCH   1  10
ATOM     10  C   UNL     1      -4.404   4.494  -9.764  0.00  0.00    +0.151 C 
BRANCH  10  11
ATOM     11  C   UNL     1      -3.192   3.711  -9.339  0.00  0.00    -0.028 A 
ATOM     12  C   UNL     1      -2.094   3.576 -10.200  0.00  0.00    +0.005 A 
ATOM     13  C   UNL     1      -3.135   3.105  -8.074  0.00  0.00    +0.005 A 
ATOM     14  C   UNL     1      -0.956   2.873  -9.794  0.00  0.00    +0.000 A 
ATOM     15  C   UNL     1      -1.998   2.404  -7.673  0.00  0.00    +0.000 A 
ATOM     16  C   UNL     1      -0.908   2.291  -8.533  0.00  0.00    +0.000 A 
ENDBRANCH  10  11
ENDBRANCH   1  10
TORSDOF 2
ENDMDL
MODEL 6
REMARK VINA RESULT:    -4.729      1.948      3.030
REMARK INTER + INTRA:          -5.398
REMARK INTER:                  -5.216
REMARK INTRA:                  -0.181
REMARK UNBOUND:                -0.116
REMARK  Name = 1550473
REMARK  2 active torsions:
REMARK  status: ('A' for Active; 'I' for Inactive)
REMARK    1  A    between atoms: N_1  and  C_4
REMARK    2  A    between atoms: C_4  and  C_5
REMARK                            x       y       z     vdW  Elec       q    Type
REMARK                         _______ _______ _______ _____ _____    ______ ____
ROOT
ATOM      1  N   UNL     1       7.549  10.950   6.496  0.00  0.00    -0.354 N 
ATOM      2  N   UNL     1       6.665  10.246   8.518  0.00  0.00    -0.372 N 
ATOM      3  N   UNL     1       5.467  11.728   7.239  0.00  0.00    -0.372 N 
ATOM      4  C   UNL     1       6.564  10.981   7.404  0.00  0.00    +0.166 C 
ATOM      5  H   UNL     1       8.368  10.387   6.694  0.00  0.00    +0.163 HD
ATOM      6  H   UNL     1       5.936  10.247   9.219  0.00  0.00    +0.159 HD
ATOM      7  H   UNL     1       7.464   9.649   8.691  0.00  0.00    +0.159 HD
ATOM      8  H   UNL     1       5.333  12.310   6.423  0.00  0.00    +0.159 HD
ATOM      9  H   UNL     1       4.732  11.751   7.935  0.00  0.00    +0.159 HD
ENDROOT
BRANCH   1  10
ATOM     10  C   UNL     1       7.512  11.671   5.225  0.00  0.00    +0.151 C 
BRANCH  10  11
ATOM     11  C   UNL     1       8.324  12.930   5.351  0.00  0.00    -0.028 A 
ATOM     12  C   UNL     1       7.697  14.185   5.350  0.00  0.00    +0.005 A 
ATOM     13  C   UNL     1       9.721  12.876   5.479  0.00  0.00    +0.005 A 
ATOM     14  C   UNL     1       8.447  15.354   5.498  0.00  0.00    +0.000 A 
ATOM     15  C   UNL     1      10.467  14.045   5.625  0.00  0.00    +0.000 A 
ATOM     16  C   UNL     1       9.829  15.284   5.637  0.00  0.00    +0.000 A 
ENDBRANCH  10  11
ENDBRANCH   1  10
TORSDOF 2
ENDMDL
MODEL 7
REMARK VINA RESULT:    -4.650     44.143     44.884
REMARK INTER + INTRA:          -5.310
REMARK INTER:                  -5.201
REMARK INTRA:                  -0.109
REMARK UNBOUND:                -0.116
REMARK  Name = 1550473
REMARK  2 active torsions:
REMARK  status: ('A' for Active; 'I' for Inactive)
REMARK    1  A    between atoms: N_1  and  C_4
REMARK    2  A    between atoms: C_4  and  C_5
REMARK                            x       y       z     vdW  Elec       q    Type
REMARK                         _______ _______ _______ _____ _____    ______ ____
ROOT
ATOM      1  N   UNL     1     -15.175 -17.545 -20.177  0.00  0.00    -0.354 N 
ATOM      2  N   UNL     1     -17.240 -17.851 -19.174  0.00  0.00    -0.372 N 
ATOM      3  N   UNL     1     -15.746 -19.593 -19.191  0.00  0.00    -0.372 N 
ATOM      4  C   UNL     1     -16.039 -18.331 -19.520  0.00  0.00    +0.166 C 
ATOM      5  H   UNL     1     -15.468 -16.607 -20.424  0.00  0.00    +0.163 HD
ATOM      6  H   UNL     1     -17.911 -18.419 -18.675  0.00  0.00    +0.159 HD
ATOM      7  H   UNL     1     -17.513 -16.899 -19.381  0.00  0.00    +0.159 HD
ATOM      8  H   UNL     1     -14.859 -20.017 -19.429  0.00  0.00    +0.159 HD
ATOM      9  H   UNL     1     -16.409 -20.181 -18.702  0.00  0.00    +0.159 HD
ENDROOT
BRANCH   1  10
ATOM     10  C   UNL     1     -13.822 -17.953 -20.553  0.00  0.00    +0.151 C 
BRANCH  10  11
ATOM     11  C   UNL     1     -13.373 -17.138 -21.734  0.00  0.00    -0.028 A 
ATOM     12  C   UNL     1     -12.736 -17.751 -22.822  0.00  0.00    +0.005 A 
ATOM     13  C   UNL     1     -13.587 -15.751 -21.773  0.00  0.00    +0.005 A 
ATOM     14  C   UNL     1     -12.346 -16.998 -23.932  0.00  0.00    +0.000 A 
ATOM     15  C   UNL     1     -13.196 -15.003 -22.883  0.00  0.00    +0.000 A 
ATOM     16  C   UNL     1     -12.577 -15.627 -23.963  0.00  0.00    +0.000 A 
ENDBRANCH  10  11
ENDBRANCH   1  10
TORSDOF 2
ENDMDL
MODEL 8
REMARK VINA RESULT:    -4.502     12.625     13.482
REMARK INTER + INTRA:          -5.145
REMARK INTER:                  -5.055
REMARK INTRA:                  -0.090
REMARK UNBOUND:                -0.116
REMARK  Name = 1550473
REMARK  2 active torsions:
REMARK  status: ('A' for Active; 'I' for Inactive)
REMARK    1  A    between atoms: N_1  and  C_4
REMARK    2  A    between atoms: C_4  and  C_5
REMARK                            x       y       z     vdW  Elec       q    Type
REMARK                         _______ _______ _______ _____ _____    ______ ____
ROOT
ATOM      1  N   UNL     1      -0.217  15.107  -2.647  0.00  0.00    -0.354 N 
ATOM      2  N   UNL     1       0.676  13.228  -1.629  0.00  0.00    -0.372 N 
ATOM      3  N   UNL     1      -1.605  13.460  -1.724  0.00  0.00    -0.372 N 
ATOM      4  C   UNL     1      -0.391  13.944  -2.006  0.00  0.00    +0.166 C 
ATOM      5  H   UNL     1       0.730  15.434  -2.805  0.00  0.00    +0.163 HD
ATOM      6  H   UNL     1       0.576  12.345  -1.147  0.00  0.00    +0.159 HD
ATOM      7  H   UNL     1       1.621  13.535  -1.828  0.00  0.00    +0.159 HD
ATOM      8  H   UNL     1      -2.450  13.954  -1.977  0.00  0.00    +0.159 HD
ATOM      9  H   UNL     1      -1.725  12.583  -1.232  0.00  0.00    +0.159 HD
ENDROOT
BRANCH   1  10
ATOM     10  C   UNL     1      -1.312  15.936  -3.148  0.00  0.00    +0.151 C 
BRANCH  10  11
ATOM     11  C   UNL     1      -0.740  17.161  -3.806  0.00  0.00    -0.028 A 
ATOM     12  C   UNL     1      -0.504  17.183  -5.188  0.00  0.00    +0.005 A 
ATOM     13  C   UNL     1      -0.437  18.306  -3.053  0.00  0.00    +0.005 A 
ATOM     14  C   UNL     1      -0.000  18.331  -5.804  0.00  0.00    +0.000 A 
ATOM     15  C   UNL     1       0.067  19.450  -3.671  0.00  0.00    +0.000 A 
ATOM     16  C   UNL     1       0.283  19.463  -5.047  0.00  0.00    +0.000 A 
ENDBRANCH  10  11
ENDBRANCH   1  10
TORSDOF 2
ENDMDL
MODEL 9
REMARK VINA RESULT:    -4.492     19.822     20.940
REMARK INTER + INTRA:          -5.133
REMARK INTER:                  -4.999
REMARK INTRA:                  -0.134
REMARK UNBOUND:                -0.116
REMARK  Name = 1550473
REMARK  2 active torsions:
REMARK  status: ('A' for Active; 'I' for Inactive)
REMARK    1  A    between atoms: N_1  and  C_4
REMARK    2  A    between atoms: C_4  and  C_5
REMARK                            x       y       z     vdW  Elec       q    Type
REMARK                         _______ _______ _______ _____ _____    ______ ____
ROOT
ATOM      1  N   UNL     1      -2.765   3.986 -12.377  0.00  0.00    -0.354 N 
ATOM      2  N   UNL     1      -4.210   4.913 -13.931  0.00  0.00    -0.372 N 
ATOM      3  N   UNL     1      -2.260   6.016 -13.434  0.00  0.00    -0.372 N 
ATOM      4  C   UNL     1      -3.067   4.968 -13.237  0.00  0.00    +0.166 C 
ATOM      5  H   UNL     1      -3.432   3.234 -12.250  0.00  0.00    +0.163 HD
ATOM      6  H   UNL     1      -4.463   5.637 -14.590  0.00  0.00    +0.159 HD
ATOM      7  H   UNL     1      -4.854   4.137 -13.837  0.00  0.00    +0.159 HD
ATOM      8  H   UNL     1      -1.386   6.120 -12.937  0.00  0.00    +0.159 HD
ATOM      9  H   UNL     1      -2.502   6.757 -14.080  0.00  0.00    +0.159 HD
ENDROOT
BRANCH   1  10
ATOM     10  C   UNL     1      -1.520   3.924 -11.612  0.00  0.00    +0.151 C 
BRANCH  10  11
ATOM     11  C   UNL     1      -1.824   3.452 -10.217  0.00  0.00    -0.028 A 
ATOM     12  C   UNL     1      -0.961   2.561  -9.563  0.00  0.00    +0.005 A 
ATOM     13  C   UNL     1      -2.971   3.898  -9.541  0.00  0.00    +0.005 A 
ATOM     14  C   UNL     1      -1.228   2.146  -8.256  0.00  0.00    +0.000 A 
ATOM     15  C   UNL     1      -3.234   3.480  -8.236  0.00  0.00    +0.000 A 
ATOM     16  C   UNL     1      -2.361   2.606  -7.593  0.00  0.00    +0.000 A 
ENDBRANCH  10  11
ENDBRANCH   1  10
TORSDOF 2
ENDMDL
