MODEL 1
REMARK VINA RESULT:    -5.789      0.000      0.000
REMARK INTER + INTRA:          -6.584
REMARK INTER:                  -6.466
REMARK INTRA:                  -0.118
REMARK UNBOUND:                -0.118
REMARK  Name = 1550473
REMARK  2 active torsions:
REMARK  status: ('A' for Active; 'I' for Inactive)
REMARK    1  A    between atoms: N_1  and  C_4
REMARK    2  A    between atoms: C_4  and  C_5
REMARK                            x       y       z     vdW  Elec       q    Type
REMARK                         _______ _______ _______ _____ _____    ______ ____
ROOT
ATOM      1  N   UNL     1      -2.899  -9.234   7.381  0.00  0.00    -0.354 N 
ATOM      2  N   UNL     1      -3.580  -7.576   8.847  0.00  0.00    -0.372 N 
ATOM      3  N   UNL     1      -4.740  -9.555   8.796  0.00  0.00    -0.372 N 
ATOM      4  C   UNL     1      -3.737  -8.801   8.332  0.00  0.00    +0.166 C 
ATOM      5  H   UNL     1      -2.178  -8.603   7.051  0.00  0.00    +0.163 HD
ATOM      6  H   UNL     1      -4.195  -7.223   9.569  0.00  0.00    +0.159 HD
ATOM      7  H   UNL     1      -2.830  -6.965   8.549  0.00  0.00    +0.159 HD
ATOM      8  H   UNL     1      -4.916 -10.487   8.444  0.00  0.00    +0.159 HD
ATOM      9  H   UNL     1      -5.373  -9.216   9.509  0.00  0.00    +0.159 HD
ENDROOT
BRANCH   1  10
ATOM     10  C   UNL     1      -2.951 -10.572   6.793  0.00  0.00    +0.151 C 
BRANCH  10  11
ATOM     11  C   UNL     1      -2.898 -10.451   5.295  0.00  0.00    -0.028 A 
ATOM     12  C   UNL     1      -1.774  -9.897   4.664  0.00  0.00    +0.005 A 
ATOM     13  C   UNL     1      -3.966 -10.895   4.500  0.00  0.00    +0.005 A 
ATOM     14  C   UNL     1      -1.712  -9.813   3.271  0.00  0.00    +0.000 A 
ATOM     15  C   UNL     1      -3.900 -10.808   3.109  0.00  0.00    +0.000 A 
ATOM     16  C   UNL     1      -2.772 -10.270   2.495  0.00  0.00    +0.000 A 
ENDBRANCH  10  11
ENDBRANCH   1  10
TORSDOF 2
ENDMDL
MODEL 2
REMARK VINA RESULT:    -5.668     17.698     19.026
REMARK INTER + INTRA:          -6.449
REMARK INTER:                  -6.267
REMARK INTRA:                  -0.182
REMARK UNBOUND:                -0.118
REMARK  Name = 1550473
REMARK  2 active torsions:
REMARK  status: ('A' for Active; 'I' for Inactive)
REMARK    1  A    between atoms: N_1  and  C_4
REMARK    2  A    between atoms: C_4  and  C_5
REMARK                            x       y       z     vdW  Elec       q    Type
REMARK                         _______ _______ _______ _____ _____    ______ ____
ROOT
ATOM      1  N   UNL     1       2.762  -1.939  21.573  0.00  0.00    -0.354 N 
ATOM      2  N   UNL     1       3.038  -3.397  23.350  0.00  0.00    -0.372 N 
ATOM      3  N   UNL     1       3.320  -1.148  23.707  0.00  0.00    -0.372 N 
ATOM      4  C   UNL     1       3.039  -2.149  22.866  0.00  0.00    +0.166 C 
ATOM      5  H   UNL     1       2.587  -2.743  20.981  0.00  0.00    +0.163 HD
ATOM      6  H   UNL     1       3.240  -3.587  24.323  0.00  0.00    +0.159 HD
ATOM      7  H   UNL     1       2.818  -4.195  22.767  0.00  0.00    +0.159 HD
ATOM      8  H   UNL     1       3.342  -0.184  23.403  0.00  0.00    +0.159 HD
ATOM      9  H   UNL     1       3.536  -1.318  24.681  0.00  0.00    +0.159 HD
ENDROOT
BRANCH   1  10
ATOM     10  C   UNL     1       2.684  -0.614  20.958  0.00  0.00    +0.151 C 
BRANCH  10  11
ATOM     11  C   UNL     1       1.240  -0.206  20.854  0.00  0.00    -0.028 A 
ATOM     12  C   UNL     1       0.772   0.931  21.527  0.00  0.00    +0.005 A 
ATOM     13  C   UNL     1       0.337  -0.949  20.078  0.00  0.00    +0.005 A 
ATOM     14  C   UNL     1      -0.562   1.328  21.406  0.00  0.00    +0.000 A 
ATOM     15  C   UNL     1      -0.994  -0.550  19.960  0.00  0.00    +0.000 A 
ATOM     16  C   UNL     1      -1.443   0.590  20.623  0.00  0.00    +0.000 A 
ENDBRANCH  10  11
ENDBRANCH   1  10
TORSDOF 2
ENDMDL
MODEL 3
REMARK VINA RESULT:    -5.062     17.169     18.330
REMARK INTER + INTRA:          -5.772
REMARK INTER:                  -5.625
REMARK INTRA:                  -0.147
REMARK UNBOUND:                -0.118
REMARK  Name = 1550473
REMARK  2 active torsions:
REMARK  status: ('A' for Active; 'I' for Inactive)
REMARK    1  A    between atoms: N_1  and  C_4
REMARK    2  A    between atoms: C_4  and  C_5
REMARK                            x       y       z     vdW  Elec       q    Type
REMARK                         _______ _______ _______ _____ _____    ______ ____
ROOT
ATOM      1  N   UNL     1      -2.541  -0.375  21.545  0.00  0.00    -0.354 N 
ATOM      2  N   UNL     1      -3.804  -2.293  21.848  0.00  0.00    -0.372 N 
ATOM      3  N   UNL     1      -3.353  -1.587  19.711  0.00  0.00    -0.372 N 
ATOM      4  C   UNL     1      -3.225  -1.406  21.030  0.00  0.00    +0.166 C 
ATOM      5  H   UNL     1      -2.506  -0.276  22.553  0.00  0.00    +0.163 HD
ATOM      6  H   UNL     1      -4.323  -3.082  21.488  0.00  0.00    +0.159 HD
ATOM      7  H   UNL     1      -3.729  -2.217  22.855  0.00  0.00    +0.159 HD
ATOM      8  H   UNL     1      -2.945  -0.950  19.040  0.00  0.00    +0.159 HD
ATOM      9  H   UNL     1      -3.879  -2.365  19.332  0.00  0.00    +0.159 HD
ENDROOT
BRANCH   1  10
ATOM     10  C   UNL     1      -1.828   0.616  20.741  0.00  0.00    +0.151 C 
BRANCH  10  11
ATOM     11  C   UNL     1      -0.353   0.332  20.807  0.00  0.00    -0.028 A 
ATOM     12  C   UNL     1       0.204  -0.719  20.064  0.00  0.00    +0.005 A 
ATOM     13  C   UNL     1       0.496   1.115  21.605  0.00  0.00    +0.005 A 
ATOM     14  C   UNL     1       1.578  -0.965  20.100  0.00  0.00    +0.000 A 
ATOM     15  C   UNL     1       1.868   0.866  21.640  0.00  0.00    +0.000 A 
ATOM     16  C   UNL     1       2.409  -0.172  20.886  0.00  0.00    +0.000 A 
ENDBRANCH  10  11
ENDBRANCH   1  10
TORSDOF 2
ENDMDL
MODEL 4
REMARK VINA RESULT:    -4.997     18.951     20.173
REMARK INTER + INTRA:          -5.699
REMARK INTER:                  -5.561
REMARK INTRA:                  -0.138
REMARK UNBOUND:                -0.118
REMARK  Name = 1550473
REMARK  2 active torsions:
REMARK  status: ('A' for Active; 'I' for Inactive)
REMARK    1  A    between atoms: N_1  and  C_4
REMARK    2  A    between atoms: C_4  and  C_5
REMARK                            x       y       z     vdW  Elec       q    Type
REMARK                         _______ _______ _______ _____ _____    ______ ____
ROOT
ATOM      1  N   UNL     1       1.136   7.676  -5.764  0.00  0.00    -0.354 N 
ATOM      2  N   UNL     1       0.601   9.804  -5.022  0.00  0.00    -0.372 N 
ATOM      3  N   UNL     1       2.809   9.257  -5.323  0.00  0.00    -0.372 N 
ATOM      4  C   UNL     1       1.522   8.898  -5.375  0.00  0.00    +0.166 C 
ATOM      5  H   UNL     1       0.147   7.457  -5.752  0.00  0.00    +0.163 HD
ATOM      6  H   UNL     1       0.861  10.735  -4.727  0.00  0.00    +0.159 HD
ATOM      7  H   UNL     1      -0.390   9.596  -5.055  0.00  0.00    +0.159 HD
ATOM      8  H   UNL     1       3.553   8.618  -5.571  0.00  0.00    +0.159 HD
ATOM      9  H   UNL     1       3.090  10.181  -5.020  0.00  0.00    +0.159 HD
ENDROOT
BRANCH   1  10
ATOM     10  C   UNL     1       2.056   6.635  -6.219  0.00  0.00    +0.151 C 
BRANCH  10  11
ATOM     11  C   UNL     1       1.796   5.375  -5.440  0.00  0.00    -0.028 A 
ATOM     12  C   UNL     1       2.048   4.120  -6.012  0.00  0.00    +0.005 A 
ATOM     13  C   UNL     1       1.304   5.431  -4.127  0.00  0.00    +0.005 A 
ATOM     14  C   UNL     1       1.836   2.950  -5.278  0.00  0.00    +0.000 A 
ATOM     15  C   UNL     1       1.093   4.261  -3.398  0.00  0.00    +0.000 A 
ATOM     16  C   UNL     1       1.361   3.021  -3.973  0.00  0.00    +0.000 A 
ENDBRANCH  10  11
ENDBRANCH   1  10
TORSDOF 2
ENDMDL
MODEL 5
REMARK VINA RESULT:    -4.985     18.552     19.889
REMARK INTER + INTRA:          -5.686
REMARK INTER:                  -5.571
REMARK INTRA:                  -0.115
REMARK UNBOUND:                -0.118
REMARK  Name = 1550473
REMARK  2 active torsions:
REMARK  status: ('A' for Active; 'I' for Inactive)
REMARK    1  A    between atoms: N_1  and  C_4
REMARK    2  A    between atoms: C_4  and  C_5
REMARK                            x       y       z     vdW  Elec       q    Type
REMARK                         _______ _______ _______ _____ _____    ______ ____
ROOT
ATOM      1  N   UNL     1       1.076   2.873  -9.176  0.00  0.00    -0.354 N 
ATOM      2  N   UNL     1       0.380   3.050 -11.378  0.00  0.00    -0.372 N 
ATOM      3  N   UNL     1       0.165   1.033 -10.305  0.00  0.00    -0.372 N 
ATOM      4  C   UNL     1       0.544   2.315 -10.271  0.00  0.00    +0.166 C 
ATOM      5  H   UNL     1       1.371   3.842  -9.224  0.00  0.00    +0.163 HD
ATOM      6  H   UNL     1      -0.021   2.657 -12.218  0.00  0.00    +0.159 HD
ATOM      7  H   UNL     1       0.634   4.030 -11.409  0.00  0.00    +0.159 HD
ATOM      8  H   UNL     1       0.267   0.423  -9.505  0.00  0.00    +0.159 HD
ATOM      9  H   UNL     1      -0.228   0.618 -11.141  0.00  0.00    +0.159 HD
ENDROOT
BRANCH   1  10
ATOM     10  C   UNL     1       1.248   2.175  -7.903  0.00  0.00    +0.151 C 
BRANCH  10  11
ATOM     11  C   UNL     1       1.560   3.180  -6.829  0.00  0.00    -0.028 A 
ATOM     12  C   UNL     1       1.171   2.948  -5.502  0.00  0.00    +0.005 A 
ATOM     13  C   UNL     1       2.249   4.365  -7.132  0.00  0.00    +0.005 A 
ATOM     14  C   UNL     1       1.488   3.867  -4.498  0.00  0.00    +0.000 A 
ATOM     15  C   UNL     1       2.562   5.281  -6.127  0.00  0.00    +0.000 A 
ATOM     16  C   UNL     1       2.183   5.030  -4.811  0.00  0.00    +0.000 A 
ENDBRANCH  10  11
ENDBRANCH   1  10
TORSDOF 2
ENDMDL
MODEL 6
REMARK VINA RESULT:    -4.943     34.500     35.511
REMARK INTER + INTRA:          -5.639
REMARK INTER:                  -5.466
REMARK INTRA:                  -0.173
REMARK UNBOUND:                -0.118
REMARK  Name = 1550473
REMARK  2 active torsions:
REMARK  status: ('A' for Active; 'I' for Inactive)
REMARK    1  A    between atoms: N_1  and  C_4
REMARK    2  A    between atoms: C_4  and  C_5
REMARK                            x       y       z     vdW  Elec       q    Type
REMARK                         _______ _______ _______ _____ _____    ______ ____
ROOT
ATOM      1  N   UNL     1      -5.290  -4.989 -28.547  0.00  0.00    -0.354 N 
ATOM      2  N   UNL     1      -6.659  -3.124 -28.423  0.00  0.00    -0.372 N 
ATOM      3  N   UNL     1      -6.356  -4.145 -30.455  0.00  0.00    -0.372 N 
ATOM      4  C   UNL     1      -6.093  -4.099 -29.145  0.00  0.00    +0.166 C 
ATOM      5  H   UNL     1      -5.107  -4.881 -27.556  0.00  0.00    +0.163 HD
ATOM      6  H   UNL     1      -7.271  -2.440 -28.846  0.00  0.00    +0.159 HD
ATOM      7  H   UNL     1      -6.510  -3.047 -27.424  0.00  0.00    +0.159 HD
ATOM      8  H   UNL     1      -5.956  -4.851 -31.058  0.00  0.00    +0.159 HD
ATOM      9  H   UNL     1      -6.958  -3.462 -30.900  0.00  0.00    +0.159 HD
ENDROOT
BRANCH   1  10
ATOM     10  C   UNL     1      -4.668  -6.119 -29.233  0.00  0.00    +0.151 C 
BRANCH  10  11
ATOM     11  C   UNL     1      -3.186  -5.882 -29.327  0.00  0.00    -0.028 A 
ATOM     12  C   UNL     1      -2.651  -5.131 -30.384  0.00  0.00    +0.005 A 
ATOM     13  C   UNL     1      -2.312  -6.400 -28.359  0.00  0.00    +0.005 A 
ATOM     14  C   UNL     1      -1.278  -4.884 -30.455  0.00  0.00    +0.000 A 
ATOM     15  C   UNL     1      -0.942  -6.153 -28.434  0.00  0.00    +0.000 A 
ATOM     16  C   UNL     1      -0.425  -5.393 -29.480  0.00  0.00    +0.000 A 
ENDBRANCH  10  11
ENDBRANCH   1  10
TORSDOF 2
ENDMDL
MODEL 7
REMARK VINA RESULT:    -4.917     35.880     37.546
REMARK INTER + INTRA:          -5.610
REMARK INTER:                  -5.497
REMARK INTRA:                  -0.113
REMARK UNBOUND:                -0.118
REMARK  Name = 1550473
REMARK  2 active torsions:
REMARK  status: ('A' for Active; 'I' for Inactive)
REMARK    1  A    between atoms: N_1  and  C_4
REMARK    2  A    between atoms: C_4  and  C_5
REMARK                            x       y       z     vdW  Elec       q    Type
REMARK                         _______ _______ _______ _____ _____    ______ ____
ROOT
ATOM      1  N   UNL     1      -6.778  -0.163 -31.548  0.00  0.00    -0.354 N 
ATOM      2  N   UNL     1      -6.663   0.369 -33.799  0.00  0.00    -0.372 N 
ATOM      3  N   UNL     1      -5.691  -1.577 -33.068  0.00  0.00    -0.372 N 
ATOM      4  C   UNL     1      -6.376  -0.463 -32.790  0.00  0.00    +0.166 C 
ATOM      5  H   UNL     1      -7.268   0.711 -31.398  0.00  0.00    +0.163 HD
ATOM      6  H   UNL     1      -6.376   0.168 -34.747  0.00  0.00    +0.159 HD
ATOM      7  H   UNL     1      -7.193   1.220 -33.654  0.00  0.00    +0.159 HD
ATOM      8  H   UNL     1      -5.438  -2.243 -32.350  0.00  0.00    +0.159 HD
ATOM      9  H   UNL     1      -5.384  -1.790 -34.009  0.00  0.00    +0.159 HD
ENDROOT
BRANCH   1  10
ATOM     10  C   UNL     1      -6.564  -1.028 -30.388  0.00  0.00    +0.151 C 
BRANCH  10  11
ATOM     11  C   UNL     1      -6.862  -0.251 -29.135  0.00  0.00    -0.028 A 
ATOM     12  C   UNL     1      -6.361   1.048 -28.966  0.00  0.00    +0.005 A 
ATOM     13  C   UNL     1      -7.651  -0.807 -28.116  0.00  0.00    +0.005 A 
ATOM     14  C   UNL     1      -6.663   1.780 -27.816  0.00  0.00    +0.000 A 
ATOM     15  C   UNL     1      -7.949  -0.073 -26.968  0.00  0.00    +0.000 A 
ATOM     16  C   UNL     1      -7.457   1.222 -26.820  0.00  0.00    +0.000 A 
ENDBRANCH  10  11
ENDBRANCH   1  10
TORSDOF 2
ENDMDL
MODEL 8
REMARK VINA RESULT:    -4.881     33.672     35.292
REMARK INTER + INTRA:          -5.570
REMARK INTER:                  -5.448
REMARK INTRA:                  -0.122
REMARK UNBOUND:                -0.118
REMARK  Name = 1550473
REMARK  2 active torsions:
REMARK  status: ('A' for Active; 'I' for Inactive)
REMARK    1  A    between atoms: N_1  and  C_4
REMARK    2  A    between atoms: C_4  and  C_5
REMARK                            x       y       z     vdW  Elec       q    Type
REMARK                         _______ _______ _______ _____ _____    ______ ____
ROOT
ATOM      1  N   UNL     1      -7.312   3.203 -27.587  0.00  0.00    -0.354 N 
ATOM      2  N   UNL     1      -7.097   5.504 -27.448  0.00  0.00    -0.372 N 
ATOM      3  N   UNL     1      -5.960   4.382 -29.095  0.00  0.00    -0.372 N 
ATOM      4  C   UNL     1      -6.789   4.348 -28.046  0.00  0.00    +0.166 C 
ATOM      5  H   UNL     1      -7.910   3.240 -26.770  0.00  0.00    +0.163 HD
ATOM      6  H   UNL     1      -6.721   6.385 -27.774  0.00  0.00    +0.159 HD
ATOM      7  H   UNL     1      -7.732   5.544 -26.660  0.00  0.00    +0.159 HD
ATOM      8  H   UNL     1      -5.683   3.543 -29.587  0.00  0.00    +0.159 HD
ATOM      9  H   UNL     1      -5.564   5.252 -29.429  0.00  0.00    +0.159 HD
ENDROOT
BRANCH   1  10
ATOM     10  C   UNL     1      -7.082   1.895 -28.200  0.00  0.00    +0.151 C 
BRANCH  10  11
ATOM     11  C   UNL     1      -7.449   0.820 -27.215  0.00  0.00    -0.028 A 
ATOM     12  C   UNL     1      -7.867  -0.442 -27.662  0.00  0.00    +0.005 A 
ATOM     13  C   UNL     1      -7.375   1.055 -25.834  0.00  0.00    +0.005 A 
ATOM     14  C   UNL     1      -8.179  -1.451 -26.748  0.00  0.00    +0.000 A 
ATOM     15  C   UNL     1      -7.688   0.045 -24.924  0.00  0.00    +0.000 A 
ATOM     16  C   UNL     1      -8.088  -1.208 -25.381  0.00  0.00    +0.000 A 
ENDBRANCH  10  11
ENDBRANCH   1  10
TORSDOF 2
ENDMDL
MODEL 9
REMARK VINA RESULT:    -4.699     34.154     35.933
REMARK INTER + INTRA:          -5.366
REMARK INTER:                  -5.242
REMARK INTRA:                  -0.124
REMARK UNBOUND:                -0.118
REMARK  Name = 1550473
REMARK  2 active torsions:
REMARK  status: ('A' for Active; 'I' for Inactive)
REMARK    1  A    between atoms: N_1  and  C_4
REMARK    2  A    between atoms: C_4  and  C_5
REMARK                            x       y       z     vdW  Elec       q    Type
REMARK                         _______ _______ _______ _____ _____    ______ ____
ROOT
ATOM      1  N   UNL     1      -8.744   0.578 -29.687  0.00  0.00    -0.354 N 
ATOM      2  N   UNL     1     -10.615   1.185 -30.911  0.00  0.00    -0.372 N 
ATOM      3  N   UNL     1      -9.819  -0.960 -31.090  0.00  0.00    -0.372 N 
ATOM      4  C   UNL     1      -9.713   0.261 -30.556  0.00  0.00    +0.166 C 
ATOM      5  H   UNL     1      -8.701   1.530 -29.341  0.00  0.00    +0.163 HD
ATOM      6  H   UNL     1     -11.359   0.974 -31.561  0.00  0.00    +0.159 HD
ATOM      7  H   UNL     1     -10.596   2.122 -30.528  0.00  0.00    +0.159 HD
ATOM      8  H   UNL     1      -9.167  -1.700 -30.868  0.00  0.00    +0.159 HD
ATOM      9  H   UNL     1     -10.551  -1.187 -31.752  0.00  0.00    +0.159 HD
ENDROOT
BRANCH   1  10
ATOM     10  C   UNL     1      -7.746  -0.369 -29.194  0.00  0.00    +0.151 C 
BRANCH  10  11
ATOM     11  C   UNL     1      -7.759  -0.359 -27.690  0.00  0.00    -0.028 A 
ATOM     12  C   UNL     1      -8.111  -1.512 -26.974  0.00  0.00    +0.005 A 
ATOM     13  C   UNL     1      -7.416   0.799 -26.976  0.00  0.00    +0.005 A 
ATOM     14  C   UNL     1      -8.095  -1.512 -25.577  0.00  0.00    +0.000 A 
ATOM     15  C   UNL     1      -7.402   0.795 -25.581  0.00  0.00    +0.000 A 
ATOM     16  C   UNL     1      -7.739  -0.361 -24.882  0.00  0.00    +0.000 A 
ENDBRANCH  10  11
ENDBRANCH   1  10
TORSDOF 2
ENDMDL
