MODEL 1
REMARK VINA RESULT:    -4.770      0.000      0.000
REMARK INTER + INTRA:          -5.424
REMARK INTER:                  -5.328
REMARK INTRA:                  -0.096
REMARK UNBOUND:                -0.096
REMARK  Name = 1550473
REMARK  2 active torsions:
REMARK  status: ('A' for Active; 'I' for Inactive)
REMARK    1  A    between atoms: N_1  and  C_4
REMARK    2  A    between atoms: C_4  and  C_5
REMARK                            x       y       z     vdW  Elec       q    Type
REMARK                         _______ _______ _______ _____ _____    ______ ____
ROOT
ATOM      1  N   UNL     1      12.134 -13.076 -14.192  0.00  0.00    -0.354 N 
ATOM      2  N   UNL     1      12.509 -13.150 -16.476  0.00  0.00    -0.372 N 
ATOM      3  N   UNL     1      10.486 -12.385 -15.709  0.00  0.00    -0.372 N 
ATOM      4  C   UNL     1      11.704 -12.869 -15.444  0.00  0.00    +0.166 C 
ATOM      5  H   UNL     1      13.057 -13.473 -14.059  0.00  0.00    +0.163 HD
ATOM      6  H   UNL     1      12.214 -13.002 -17.432  0.00  0.00    +0.159 HD
ATOM      7  H   UNL     1      13.448 -13.504 -16.339  0.00  0.00    +0.159 HD
ATOM      8  H   UNL     1       9.829 -12.158 -14.975  0.00  0.00    +0.159 HD
ATOM      9  H   UNL     1      10.168 -12.241 -16.659  0.00  0.00    +0.159 HD
ENDROOT
BRANCH   1  10
ATOM     10  C   UNL     1      11.356 -12.752 -12.997  0.00  0.00    +0.151 C 
BRANCH  10  11
ATOM     11  C   UNL     1      12.240 -12.877 -11.787  0.00  0.00    -0.028 A 
ATOM     12  C   UNL     1      12.102 -13.967 -10.915  0.00  0.00    +0.005 A 
ATOM     13  C   UNL     1      13.221 -11.913 -11.510  0.00  0.00    +0.005 A 
ATOM     14  C   UNL     1      12.943 -14.100  -9.807  0.00  0.00    +0.000 A 
ATOM     15  C   UNL     1      14.058 -12.049 -10.403  0.00  0.00    +0.000 A 
ATOM     16  C   UNL     1      13.920 -13.144  -9.553  0.00  0.00    +0.000 A 
ENDBRANCH  10  11
ENDBRANCH   1  10
TORSDOF 2
ENDMDL
MODEL 2
REMARK VINA RESULT:    -4.540     11.579     12.585
REMARK INTER + INTRA:          -5.167
REMARK INTER:                  -5.062
REMARK INTRA:                  -0.106
REMARK UNBOUND:                -0.096
REMARK  Name = 1550473
REMARK  2 active torsions:
REMARK  status: ('A' for Active; 'I' for Inactive)
REMARK    1  A    between atoms: N_1  and  C_4
REMARK    2  A    between atoms: C_4  and  C_5
REMARK                            x       y       z     vdW  Elec       q    Type
REMARK                         _______ _______ _______ _____ _____    ______ ____
ROOT
ATOM      1  N   UNL     1      12.754   0.214  -9.807  0.00  0.00    -0.354 N 
ATOM      2  N   UNL     1      11.847   2.341  -9.926  0.00  0.00    -0.372 N 
ATOM      3  N   UNL     1      13.471   1.914  -8.363  0.00  0.00    -0.372 N 
ATOM      4  C   UNL     1      12.698   1.476  -9.362  0.00  0.00    +0.166 C 
ATOM      5  H   UNL     1      12.121  -0.064 -10.548  0.00  0.00    +0.163 HD
ATOM      6  H   UNL     1      11.785   3.301  -9.613  0.00  0.00    +0.159 HD
ATOM      7  H   UNL     1      11.247   2.073 -10.697  0.00  0.00    +0.159 HD
ATOM      8  H   UNL     1      14.130   1.309  -7.891  0.00  0.00    +0.159 HD
ATOM      9  H   UNL     1      13.415   2.868  -8.028  0.00  0.00    +0.159 HD
ENDROOT
BRANCH   1  10
ATOM     10  C   UNL     1      13.684  -0.793  -9.298  0.00  0.00    +0.151 C 
BRANCH  10  11
ATOM     11  C   UNL     1      13.329  -2.131  -9.884  0.00  0.00    -0.028 A 
ATOM     12  C   UNL     1      13.093  -2.266 -11.260  0.00  0.00    +0.005 A 
ATOM     13  C   UNL     1      13.233  -3.270  -9.070  0.00  0.00    +0.005 A 
ATOM     14  C   UNL     1      12.793  -3.515 -11.810  0.00  0.00    +0.000 A 
ATOM     15  C   UNL     1      12.932  -4.515  -9.622  0.00  0.00    +0.000 A 
ATOM     16  C   UNL     1      12.714  -4.637 -10.992  0.00  0.00    +0.000 A 
ENDBRANCH  10  11
ENDBRANCH   1  10
TORSDOF 2
ENDMDL
MODEL 3
REMARK VINA RESULT:    -4.513     46.112     47.324
REMARK INTER + INTRA:          -5.136
REMARK INTER:                  -4.971
REMARK INTRA:                  -0.165
REMARK UNBOUND:                -0.096
REMARK  Name = 1550473
REMARK  2 active torsions:
REMARK  status: ('A' for Active; 'I' for Inactive)
REMARK    1  A    between atoms: N_1  and  C_4
REMARK    2  A    between atoms: C_4  and  C_5
REMARK                            x       y       z     vdW  Elec       q    Type
REMARK                         _______ _______ _______ _____ _____    ______ ____
ROOT
ATOM      1  N   UNL     1       0.459   4.964  28.530  0.00  0.00    -0.354 N 
ATOM      2  N   UNL     1       1.370   3.744  26.785  0.00  0.00    -0.372 N 
ATOM      3  N   UNL     1       0.124   2.650  28.372  0.00  0.00    -0.372 N 
ATOM      4  C   UNL     1       0.644   3.792  27.909  0.00  0.00    +0.166 C 
ATOM      5  H   UNL     1       0.904   5.789  28.144  0.00  0.00    +0.163 HD
ATOM      6  H   UNL     1       1.524   2.874  26.293  0.00  0.00    +0.159 HD
ATOM      7  H   UNL     1       1.776   4.577  26.377  0.00  0.00    +0.159 HD
ATOM      8  H   UNL     1      -0.429   2.618  29.218  0.00  0.00    +0.159 HD
ATOM      9  H   UNL     1       0.277   1.768  27.899  0.00  0.00    +0.159 HD
ENDROOT
BRANCH   1  10
ATOM     10  C   UNL     1      -0.360   5.134  29.729  0.00  0.00    +0.151 C 
BRANCH  10  11
ATOM     11  C   UNL     1      -1.687   5.724  29.339  0.00  0.00    -0.028 A 
ATOM     12  C   UNL     1      -1.772   6.657  28.296  0.00  0.00    +0.005 A 
ATOM     13  C   UNL     1      -2.864   5.350  30.005  0.00  0.00    +0.005 A 
ATOM     14  C   UNL     1      -3.008   7.183  27.913  0.00  0.00    +0.000 A 
ATOM     15  C   UNL     1      -4.096   5.878  29.621  0.00  0.00    +0.000 A 
ATOM     16  C   UNL     1      -4.168   6.792  28.573  0.00  0.00    +0.000 A 
ENDBRANCH  10  11
ENDBRANCH   1  10
TORSDOF 2
ENDMDL
MODEL 4
REMARK VINA RESULT:    -4.420     46.327     47.524
REMARK INTER + INTRA:          -5.033
REMARK INTER:                  -4.863
REMARK INTRA:                  -0.169
REMARK UNBOUND:                -0.096
REMARK  Name = 1550473
REMARK  2 active torsions:
REMARK  status: ('A' for Active; 'I' for Inactive)
REMARK    1  A    between atoms: N_1  and  C_4
REMARK    2  A    between atoms: C_4  and  C_5
REMARK                            x       y       z     vdW  Elec       q    Type
REMARK                         _______ _______ _______ _____ _____    ______ ____
ROOT
ATOM      1  N   UNL     1      -0.216   5.503  28.780  0.00  0.00    -0.354 N 
ATOM      2  N   UNL     1       0.312   3.718  30.158  0.00  0.00    -0.372 N 
ATOM      3  N   UNL     1      -0.852   5.490  31.036  0.00  0.00    -0.372 N 
ATOM      4  C   UNL     1      -0.256   4.917  29.984  0.00  0.00    +0.166 C 
ATOM      5  H   UNL     1       0.277   5.030  28.031  0.00  0.00    +0.163 HD
ATOM      6  H   UNL     1       0.294   3.249  31.054  0.00  0.00    +0.159 HD
ATOM      7  H   UNL     1       0.764   3.227  29.397  0.00  0.00    +0.159 HD
ATOM      8  H   UNL     1      -1.294   6.397  30.972  0.00  0.00    +0.159 HD
ATOM      9  H   UNL     1      -0.870   5.042  31.944  0.00  0.00    +0.159 HD
ENDROOT
BRANCH   1  10
ATOM     10  C   UNL     1      -0.850   6.783  28.472  0.00  0.00    +0.151 C 
BRANCH  10  11
ATOM     11  C   UNL     1      -2.170   6.527  27.798  0.00  0.00    -0.028 A 
ATOM     12  C   UNL     1      -3.294   7.305  28.113  0.00  0.00    +0.005 A 
ATOM     13  C   UNL     1      -2.302   5.512  26.838  0.00  0.00    +0.005 A 
ATOM     14  C   UNL     1      -4.512   7.087  27.465  0.00  0.00    +0.000 A 
ATOM     15  C   UNL     1      -3.520   5.297  26.194  0.00  0.00    +0.000 A 
ATOM     16  C   UNL     1      -4.624   6.087  26.506  0.00  0.00    +0.000 A 
ENDBRANCH  10  11
ENDBRANCH   1  10
TORSDOF 2
ENDMDL
MODEL 5
REMARK VINA RESULT:    -4.289     11.225     12.440
REMARK INTER + INTRA:          -4.887
REMARK INTER:                  -4.789
REMARK INTRA:                  -0.098
REMARK UNBOUND:                -0.096
REMARK  Name = 1550473
REMARK  2 active torsions:
REMARK  status: ('A' for Active; 'I' for Inactive)
REMARK    1  A    between atoms: N_1  and  C_4
REMARK    2  A    between atoms: C_4  and  C_5
REMARK                            x       y       z     vdW  Elec       q    Type
REMARK                         _______ _______ _______ _____ _____    ______ ____
ROOT
ATOM      1  N   UNL     1      14.718  -1.075  -7.654  0.00  0.00    -0.354 N 
ATOM      2  N   UNL     1      14.623   0.456  -5.919  0.00  0.00    -0.372 N 
ATOM      3  N   UNL     1      16.113   0.808  -7.628  0.00  0.00    -0.372 N 
ATOM      4  C   UNL     1      15.154   0.054  -7.080  0.00  0.00    +0.166 C 
ATOM      5  H   UNL     1      14.010  -1.618  -7.173  0.00  0.00    +0.163 HD
ATOM      6  H   UNL     1      14.929   1.305  -5.464  0.00  0.00    +0.159 HD
ATOM      7  H   UNL     1      13.883  -0.064  -5.464  0.00  0.00    +0.159 HD
ATOM      8  H   UNL     1      16.559   0.556  -8.500  0.00  0.00    +0.159 HD
ATOM      9  H   UNL     1      16.441   1.655  -7.181  0.00  0.00    +0.159 HD
ENDROOT
BRANCH   1  10
ATOM     10  C   UNL     1      15.193  -1.573  -8.944  0.00  0.00    +0.151 C 
BRANCH  10  11
ATOM     11  C   UNL     1      14.362  -2.758  -9.350  0.00  0.00    -0.028 A 
ATOM     12  C   UNL     1      14.359  -3.925  -8.572  0.00  0.00    +0.005 A 
ATOM     13  C   UNL     1      13.570  -2.719 -10.508  0.00  0.00    +0.005 A 
ATOM     14  C   UNL     1      13.564  -5.016  -8.932  0.00  0.00    +0.000 A 
ATOM     15  C   UNL     1      12.779  -3.810 -10.865  0.00  0.00    +0.000 A 
ATOM     16  C   UNL     1      12.774  -4.958 -10.075  0.00  0.00    +0.000 A 
ENDBRANCH  10  11
ENDBRANCH   1  10
TORSDOF 2
ENDMDL
MODEL 6
REMARK VINA RESULT:    -4.289     13.589     14.824
REMARK INTER + INTRA:          -4.886
REMARK INTER:                  -4.745
REMARK INTRA:                  -0.141
REMARK UNBOUND:                -0.096
REMARK  Name = 1550473
REMARK  2 active torsions:
REMARK  status: ('A' for Active; 'I' for Inactive)
REMARK    1  A    between atoms: N_1  and  C_4
REMARK    2  A    between atoms: C_4  and  C_5
REMARK                            x       y       z     vdW  Elec       q    Type
REMARK                         _______ _______ _______ _____ _____    ______ ____
ROOT
ATOM      1  N   UNL     1       0.571 -16.049 -20.273  0.00  0.00    -0.354 N 
ATOM      2  N   UNL     1       2.485 -15.993 -21.576  0.00  0.00    -0.372 N 
ATOM      3  N   UNL     1       0.445 -15.711 -22.588  0.00  0.00    -0.372 N 
ATOM      4  C   UNL     1       1.153 -15.918 -21.472  0.00  0.00    +0.166 C 
ATOM      5  H   UNL     1       1.162 -16.234 -19.470  0.00  0.00    +0.163 HD
ATOM      6  H   UNL     1       2.952 -15.894 -22.468  0.00  0.00    +0.159 HD
ATOM      7  H   UNL     1       3.075 -16.132 -20.765  0.00  0.00    +0.159 HD
ATOM      8  H   UNL     1      -0.565 -15.650 -22.578  0.00  0.00    +0.159 HD
ATOM      9  H   UNL     1       0.893 -15.621 -23.491  0.00  0.00    +0.159 HD
ENDROOT
BRANCH   1  10
ATOM     10  C   UNL     1      -0.867 -15.930 -20.043  0.00  0.00    +0.151 C 
BRANCH  10  11
ATOM     11  C   UNL     1      -1.103 -15.061 -18.839  0.00  0.00    -0.028 A 
ATOM     12  C   UNL     1      -0.032 -14.405 -18.214  0.00  0.00    +0.005 A 
ATOM     13  C   UNL     1      -2.395 -14.884 -18.321  0.00  0.00    +0.005 A 
ATOM     14  C   UNL     1      -0.254 -13.573 -17.114  0.00  0.00    +0.000 A 
ATOM     15  C   UNL     1      -2.613 -14.054 -17.222  0.00  0.00    +0.000 A 
ATOM     16  C   UNL     1      -1.542 -13.397 -16.620  0.00  0.00    +0.000 A 
ENDBRANCH  10  11
ENDBRANCH   1  10
TORSDOF 2
ENDMDL
MODEL 7
REMARK VINA RESULT:    -4.241      3.475      4.919
REMARK INTER + INTRA:          -4.832
REMARK INTER:                  -4.712
REMARK INTRA:                  -0.120
REMARK UNBOUND:                -0.096
REMARK  Name = 1550473
REMARK  2 active torsions:
REMARK  status: ('A' for Active; 'I' for Inactive)
REMARK    1  A    between atoms: N_1  and  C_4
REMARK    2  A    between atoms: C_4  and  C_5
REMARK                            x       y       z     vdW  Elec       q    Type
REMARK                         _______ _______ _______ _____ _____    ______ ____
ROOT
ATOM      1  N   UNL     1      11.707 -16.229 -10.517  0.00  0.00    -0.354 N 
ATOM      2  N   UNL     1      10.128 -17.919 -10.391  0.00  0.00    -0.372 N 
ATOM      3  N   UNL     1      12.206 -18.272  -9.483  0.00  0.00    -0.372 N 
ATOM      4  C   UNL     1      11.360 -17.464 -10.130  0.00  0.00    +0.166 C 
ATOM      5  H   UNL     1      11.029 -15.677 -11.031  0.00  0.00    +0.163 HD
ATOM      6  H   UNL     1       9.837 -18.845 -10.108  0.00  0.00    +0.159 HD
ATOM      7  H   UNL     1       9.438 -17.349 -10.864  0.00  0.00    +0.159 HD
ATOM      8  H   UNL     1      13.151 -17.991  -9.261  0.00  0.00    +0.159 HD
ATOM      9  H   UNL     1      11.936 -19.207  -9.202  0.00  0.00    +0.159 HD
ENDROOT
BRANCH   1  10
ATOM     10  C   UNL     1      13.005 -15.619 -10.235  0.00  0.00    +0.151 C 
BRANCH  10  11
ATOM     11  C   UNL     1      12.959 -14.166 -10.622  0.00  0.00    -0.028 A 
ATOM     12  C   UNL     1      13.924 -13.270 -10.140  0.00  0.00    +0.005 A 
ATOM     13  C   UNL     1      11.956 -13.681 -11.476  0.00  0.00    +0.005 A 
ATOM     14  C   UNL     1      13.900 -11.927 -10.524  0.00  0.00    +0.000 A 
ATOM     15  C   UNL     1      11.934 -12.339 -11.856  0.00  0.00    +0.000 A 
ATOM     16  C   UNL     1      12.908 -11.463 -11.382  0.00  0.00    +0.000 A 
ENDBRANCH  10  11
ENDBRANCH   1  10
TORSDOF 2
ENDMDL
MODEL 8
REMARK VINA RESULT:    -4.182     13.321     15.332
REMARK INTER + INTRA:          -4.767
REMARK INTER:                  -4.595
REMARK INTRA:                  -0.171
REMARK UNBOUND:                -0.096
REMARK  Name = 1550473
REMARK  2 active torsions:
REMARK  status: ('A' for Active; 'I' for Inactive)
REMARK    1  A    between atoms: N_1  and  C_4
REMARK    2  A    between atoms: C_4  and  C_5
REMARK                            x       y       z     vdW  Elec       q    Type
REMARK                         _______ _______ _______ _____ _____    ______ ____
ROOT
ATOM      1  N   UNL     1      10.852 -14.824 -26.850  0.00  0.00    -0.354 N 
ATOM      2  N   UNL     1      11.967 -15.557 -24.957  0.00  0.00    -0.372 N 
ATOM      3  N   UNL     1      11.450 -13.329 -25.147  0.00  0.00    -0.372 N 
ATOM      4  C   UNL     1      11.416 -14.563 -25.663  0.00  0.00    +0.166 C 
ATOM      5  H   UNL     1      10.885 -15.775 -27.200  0.00  0.00    +0.163 HD
ATOM      6  H   UNL     1      12.396 -15.390 -24.057  0.00  0.00    +0.159 HD
ATOM      7  H   UNL     1      11.958 -16.514 -25.288  0.00  0.00    +0.159 HD
ATOM      8  H   UNL     1      11.057 -12.535 -25.633  0.00  0.00    +0.159 HD
ATOM      9  H   UNL     1      11.886 -13.141 -24.253  0.00  0.00    +0.159 HD
ENDROOT
BRANCH   1  10
ATOM     10  C   UNL     1      10.177 -13.822 -27.673  0.00  0.00    +0.151 C 
BRANCH  10  11
ATOM     11  C   UNL     1       8.690 -14.028 -27.577  0.00  0.00    -0.028 A 
ATOM     12  C   UNL     1       8.107 -15.226 -28.016  0.00  0.00    +0.005 A 
ATOM     13  C   UNL     1       7.860 -13.031 -27.043  0.00  0.00    +0.005 A 
ATOM     14  C   UNL     1       6.730 -15.429 -27.899  0.00  0.00    +0.000 A 
ATOM     15  C   UNL     1       6.485 -13.237 -26.929  0.00  0.00    +0.000 A 
ATOM     16  C   UNL     1       5.921 -14.437 -27.355  0.00  0.00    +0.000 A 
ENDBRANCH  10  11
ENDBRANCH   1  10
TORSDOF 2
ENDMDL
MODEL 9
REMARK VINA RESULT:    -3.973     11.195     14.465
REMARK INTER + INTRA:          -4.534
REMARK INTER:                  -4.405
REMARK INTRA:                  -0.129
REMARK UNBOUND:                -0.096
REMARK  Name = 1550473
REMARK  2 active torsions:
REMARK  status: ('A' for Active; 'I' for Inactive)
REMARK    1  A    between atoms: N_1  and  C_4
REMARK    2  A    between atoms: C_4  and  C_5
REMARK                            x       y       z     vdW  Elec       q    Type
REMARK                         _______ _______ _______ _____ _____    ______ ____
ROOT
ATOM      1  N   UNL     1       8.883 -11.456 -24.278  0.00  0.00    -0.354 N 
ATOM      2  N   UNL     1      10.777 -11.583 -22.950  0.00  0.00    -0.372 N 
ATOM      3  N   UNL     1       8.881 -12.692 -22.287  0.00  0.00    -0.372 N 
ATOM      4  C   UNL     1       9.500 -11.911 -23.179  0.00  0.00    +0.166 C 
ATOM      5  H   UNL     1       9.398 -10.842 -24.899  0.00  0.00    +0.163 HD
ATOM      6  H   UNL     1      11.270 -11.914 -22.132  0.00  0.00    +0.159 HD
ATOM      7  H   UNL     1      11.303 -11.007 -23.597  0.00  0.00    +0.159 HD
ATOM      8  H   UNL     1       7.916 -12.971 -22.398  0.00  0.00    +0.159 HD
ATOM      9  H   UNL     1       9.354 -13.025 -21.455  0.00  0.00    +0.159 HD
ENDROOT
BRANCH   1  10
ATOM     10  C   UNL     1       7.511 -11.798 -24.646  0.00  0.00    +0.151 C 
BRANCH  10  11
ATOM     11  C   UNL     1       7.514 -12.443 -26.005  0.00  0.00    -0.028 A 
ATOM     12  C   UNL     1       8.719 -12.835 -26.605  0.00  0.00    +0.005 A 
ATOM     13  C   UNL     1       6.313 -12.670 -26.695  0.00  0.00    +0.005 A 
ATOM     14  C   UNL     1       8.720 -13.461 -27.853  0.00  0.00    +0.000 A 
ATOM     15  C   UNL     1       6.318 -13.295 -27.942  0.00  0.00    +0.000 A 
ATOM     16  C   UNL     1       7.522 -13.692 -28.520  0.00  0.00    +0.000 A 
ENDBRANCH  10  11
ENDBRANCH   1  10
TORSDOF 2
ENDMDL
