MODEL 1
REMARK VINA RESULT:    -5.781      0.000      0.000
REMARK INTER + INTRA:          -6.584
REMARK INTER:                  -6.456
REMARK INTRA:                  -0.127
REMARK UNBOUND:                -0.127
REMARK  Name = 1550473
REMARK  2 active torsions:
REMARK  status: ('A' for Active; 'I' for Inactive)
REMARK    1  A    between atoms: N_1  and  C_4
REMARK    2  A    between atoms: C_4  and  C_5
REMARK                            x       y       z     vdW  Elec       q    Type
REMARK                         _______ _______ _______ _____ _____    ______ ____
ROOT
ATOM      1  N   UNL     1      -6.972 -12.682 -20.129  0.00  0.00    -0.354 N 
ATOM      2  N   UNL     1      -5.498 -12.304 -21.875  0.00  0.00    -0.372 N 
ATOM      3  N   UNL     1      -7.383 -13.554 -22.265  0.00  0.00    -0.372 N 
ATOM      4  C   UNL     1      -6.629 -12.851 -21.413  0.00  0.00    +0.166 C 
ATOM      5  H   UNL     1      -6.343 -12.164 -19.527  0.00  0.00    +0.163 HD
ATOM      6  H   UNL     1      -5.215 -12.411 -22.840  0.00  0.00    +0.159 HD
ATOM      7  H   UNL     1      -4.894 -11.748 -21.282  0.00  0.00    +0.159 HD
ATOM      8  H   UNL     1      -8.245 -13.997 -21.978  0.00  0.00    +0.159 HD
ATOM      9  H   UNL     1      -7.110 -13.682 -23.232  0.00  0.00    +0.159 HD
ENDROOT
BRANCH   1  10
ATOM     10  C   UNL     1      -8.209 -13.191 -19.539  0.00  0.00    +0.151 C 
BRANCH  10  11
ATOM     11  C   UNL     1      -8.569 -12.348 -18.347  0.00  0.00    -0.028 A 
ATOM     12  C   UNL     1      -8.073 -11.041 -18.224  0.00  0.00    +0.005 A 
ATOM     13  C   UNL     1      -9.409 -12.847 -17.340  0.00  0.00    +0.005 A 
ATOM     14  C   UNL     1      -8.430 -10.247 -17.131  0.00  0.00    +0.000 A 
ATOM     15  C   UNL     1      -9.762 -12.052 -16.251  0.00  0.00    +0.000 A 
ATOM     16  C   UNL     1      -9.275 -10.751 -16.148  0.00  0.00    +0.000 A 
ENDBRANCH  10  11
ENDBRANCH   1  10
TORSDOF 2
ENDMDL
MODEL 2
REMARK VINA RESULT:    -5.743      1.548      2.035
REMARK INTER + INTRA:          -6.542
REMARK INTER:                  -6.402
REMARK INTRA:                  -0.139
REMARK UNBOUND:                -0.127
REMARK  Name = 1550473
REMARK  2 active torsions:
REMARK  status: ('A' for Active; 'I' for Inactive)
REMARK    1  A    between atoms: N_1  and  C_4
REMARK    2  A    between atoms: C_4  and  C_5
REMARK                            x       y       z     vdW  Elec       q    Type
REMARK                         _______ _______ _______ _____ _____    ______ ____
ROOT
ATOM      1  N   UNL     1      -8.645 -13.874 -20.163  0.00  0.00    -0.354 N 
ATOM      2  N   UNL     1      -8.956 -16.064 -20.850  0.00  0.00    -0.372 N 
ATOM      3  N   UNL     1      -6.822 -15.227 -20.744  0.00  0.00    -0.372 N 
ATOM      4  C   UNL     1      -8.136 -15.040 -20.582  0.00  0.00    +0.166 C 
ATOM      5  H   UNL     1      -9.652 -13.787 -20.089  0.00  0.00    +0.163 HD
ATOM      6  H   UNL     1      -8.601 -16.957 -21.163  0.00  0.00    +0.159 HD
ATOM      7  H   UNL     1      -9.959 -15.988 -20.731  0.00  0.00    +0.159 HD
ATOM      8  H   UNL     1      -6.151 -14.492 -20.564  0.00  0.00    +0.159 HD
ATOM      9  H   UNL     1      -6.448 -16.110 -21.069  0.00  0.00    +0.159 HD
ENDROOT
BRANCH   1  10
ATOM     10  C   UNL     1      -7.836 -12.714 -19.793  0.00  0.00    +0.151 C 
BRANCH  10  11
ATOM     11  C   UNL     1      -8.377 -12.123 -18.521  0.00  0.00    -0.028 A 
ATOM     12  C   UNL     1      -8.030 -10.819 -18.138  0.00  0.00    +0.005 A 
ATOM     13  C   UNL     1      -9.241 -12.860 -17.697  0.00  0.00    +0.005 A 
ATOM     14  C   UNL     1      -8.557 -10.258 -16.972  0.00  0.00    +0.000 A 
ATOM     15  C   UNL     1      -9.764 -12.297 -16.533  0.00  0.00    +0.000 A 
ATOM     16  C   UNL     1      -9.423 -10.995 -16.172  0.00  0.00    +0.000 A 
ENDBRANCH  10  11
ENDBRANCH   1  10
TORSDOF 2
ENDMDL
MODEL 3
REMARK VINA RESULT:    -5.519     44.630     46.238
REMARK INTER + INTRA:          -6.292
REMARK INTER:                  -6.113
REMARK INTRA:                  -0.179
REMARK UNBOUND:                -0.127
REMARK  Name = 1550473
REMARK  2 active torsions:
REMARK  status: ('A' for Active; 'I' for Inactive)
REMARK    1  A    between atoms: N_1  and  C_4
REMARK    2  A    between atoms: C_4  and  C_5
REMARK                            x       y       z     vdW  Elec       q    Type
REMARK                         _______ _______ _______ _____ _____    ______ ____
ROOT
ATOM      1  N   UNL     1       5.715  21.281  12.273  0.00  0.00    -0.354 N 
ATOM      2  N   UNL     1       4.716  23.371  12.282  0.00  0.00    -0.372 N 
ATOM      3  N   UNL     1       3.806  21.701  13.566  0.00  0.00    -0.372 N 
ATOM      4  C   UNL     1       4.750  22.103  12.709  0.00  0.00    +0.166 C 
ATOM      5  H   UNL     1       6.384  21.638  11.601  0.00  0.00    +0.163 HD
ATOM      6  H   UNL     1       4.003  24.015  12.596  0.00  0.00    +0.159 HD
ATOM      7  H   UNL     1       5.413  23.738  11.646  0.00  0.00    +0.159 HD
ATOM      8  H   UNL     1       3.772  20.755  13.921  0.00  0.00    +0.159 HD
ATOM      9  H   UNL     1       3.076  22.328  13.882  0.00  0.00    +0.159 HD
ENDROOT
BRANCH   1  10
ATOM     10  C   UNL     1       5.873  19.898  12.718  0.00  0.00    +0.151 C 
BRANCH  10  11
ATOM     11  C   UNL     1       5.276  18.980  11.687  0.00  0.00    -0.028 A 
ATOM     12  C   UNL     1       5.796  18.937  10.385  0.00  0.00    +0.005 A 
ATOM     13  C   UNL     1       4.193  18.146  12.008  0.00  0.00    +0.005 A 
ATOM     14  C   UNL     1       5.261  18.063   9.436  0.00  0.00    +0.000 A 
ATOM     15  C   UNL     1       3.662  17.275  11.057  0.00  0.00    +0.000 A 
ATOM     16  C   UNL     1       4.197  17.232   9.772  0.00  0.00    +0.000 A 
ENDBRANCH  10  11
ENDBRANCH   1  10
TORSDOF 2
ENDMDL
MODEL 4
REMARK VINA RESULT:    -5.362      3.966      5.794
REMARK INTER + INTRA:          -6.116
REMARK INTER:                  -6.019
REMARK INTRA:                  -0.098
REMARK UNBOUND:                -0.127
REMARK  Name = 1550473
REMARK  2 active torsions:
REMARK  status: ('A' for Active; 'I' for Inactive)
REMARK    1  A    between atoms: N_1  and  C_4
REMARK    2  A    between atoms: C_4  and  C_5
REMARK                            x       y       z     vdW  Elec       q    Type
REMARK                         _______ _______ _______ _____ _____    ______ ____
ROOT
ATOM      1  N   UNL     1     -10.353  -9.424 -16.643  0.00  0.00    -0.354 N 
ATOM      2  N   UNL     1     -12.150  -7.998 -16.325  0.00  0.00    -0.372 N 
ATOM      3  N   UNL     1     -10.915  -8.648 -14.504  0.00  0.00    -0.372 N 
ATOM      4  C   UNL     1     -11.127  -8.700 -15.823  0.00  0.00    +0.166 C 
ATOM      5  H   UNL     1     -10.584  -9.445 -17.629  0.00  0.00    +0.163 HD
ATOM      6  H   UNL     1     -12.749  -7.440 -15.732  0.00  0.00    +0.159 HD
ATOM      7  H   UNL     1     -12.351  -7.985 -17.318  0.00  0.00    +0.159 HD
ATOM      8  H   UNL     1     -10.164  -9.160 -14.062  0.00  0.00    +0.159 HD
ATOM      9  H   UNL     1     -11.511  -8.105 -13.892  0.00  0.00    +0.159 HD
ENDROOT
BRANCH   1  10
ATOM     10  C   UNL     1      -9.182 -10.181 -16.204  0.00  0.00    +0.151 C 
BRANCH  10  11
ATOM     11  C   UNL     1      -8.914 -11.286 -17.188  0.00  0.00    -0.028 A 
ATOM     12  C   UNL     1      -9.527 -12.538 -17.036  0.00  0.00    +0.005 A 
ATOM     13  C   UNL     1      -8.053 -11.086 -18.278  0.00  0.00    +0.005 A 
ATOM     14  C   UNL     1      -9.303 -13.556 -17.966  0.00  0.00    +0.000 A 
ATOM     15  C   UNL     1      -7.831 -12.105 -19.204  0.00  0.00    +0.000 A 
ATOM     16  C   UNL     1      -8.458 -13.339 -19.049  0.00  0.00    +0.000 A 
ENDBRANCH  10  11
ENDBRANCH   1  10
TORSDOF 2
ENDMDL
MODEL 5
REMARK VINA RESULT:    -5.324      1.345      2.180
REMARK INTER + INTRA:          -6.074
REMARK INTER:                  -5.946
REMARK INTRA:                  -0.128
REMARK UNBOUND:                -0.127
REMARK  Name = 1550473
REMARK  2 active torsions:
REMARK  status: ('A' for Active; 'I' for Inactive)
REMARK    1  A    between atoms: N_1  and  C_4
REMARK    2  A    between atoms: C_4  and  C_5
REMARK                            x       y       z     vdW  Elec       q    Type
REMARK                         _______ _______ _______ _____ _____    ______ ____
ROOT
ATOM      1  N   UNL     1      -8.527 -13.308 -20.490  0.00  0.00    -0.354 N 
ATOM      2  N   UNL     1      -8.146 -14.393 -22.501  0.00  0.00    -0.372 N 
ATOM      3  N   UNL     1      -6.463 -13.131 -21.585  0.00  0.00    -0.372 N 
ATOM      4  C   UNL     1      -7.712 -13.602 -21.512  0.00  0.00    +0.166 C 
ATOM      5  H   UNL     1      -9.473 -13.673 -20.508  0.00  0.00    +0.163 HD
ATOM      6  H   UNL     1      -7.553 -14.634 -23.283  0.00  0.00    +0.159 HD
ATOM      7  H   UNL     1      -9.077 -14.793 -22.494  0.00  0.00    +0.159 HD
ATOM      8  H   UNL     1      -6.077 -12.524 -20.874  0.00  0.00    +0.159 HD
ATOM      9  H   UNL     1      -5.858 -13.352 -22.366  0.00  0.00    +0.159 HD
ENDROOT
BRANCH   1  10
ATOM     10  C   UNL     1      -8.134 -12.501 -19.336  0.00  0.00    +0.151 C 
BRANCH  10  11
ATOM     11  C   UNL     1      -8.898 -12.966 -18.128  0.00  0.00    -0.028 A 
ATOM     12  C   UNL     1      -9.262 -12.058 -17.122  0.00  0.00    +0.005 A 
ATOM     13  C   UNL     1      -9.267 -14.312 -17.984  0.00  0.00    +0.005 A 
ATOM     14  C   UNL     1      -9.997 -12.484 -16.014  0.00  0.00    +0.000 A 
ATOM     15  C   UNL     1     -10.001 -14.734 -16.876  0.00  0.00    +0.000 A 
ATOM     16  C   UNL     1     -10.368 -13.819 -15.892  0.00  0.00    +0.000 A 
ENDBRANCH  10  11
ENDBRANCH   1  10
TORSDOF 2
ENDMDL
MODEL 6
REMARK VINA RESULT:    -5.183     44.480     46.160
REMARK INTER + INTRA:          -5.916
REMARK INTER:                  -5.822
REMARK INTRA:                  -0.094
REMARK UNBOUND:                -0.127
REMARK  Name = 1550473
REMARK  2 active torsions:
REMARK  status: ('A' for Active; 'I' for Inactive)
REMARK    1  A    between atoms: N_1  and  C_4
REMARK    2  A    between atoms: C_4  and  C_5
REMARK                            x       y       z     vdW  Elec       q    Type
REMARK                         _______ _______ _______ _____ _____    ______ ____
ROOT
ATOM      1  N   UNL     1       4.596  19.100  14.288  0.00  0.00    -0.354 N 
ATOM      2  N   UNL     1       2.942  19.027  15.908  0.00  0.00    -0.372 N 
ATOM      3  N   UNL     1       3.116  20.893  14.584  0.00  0.00    -0.372 N 
ATOM      4  C   UNL     1       3.562  19.677  14.915  0.00  0.00    +0.166 C 
ATOM      5  H   UNL     1       4.905  18.189  14.606  0.00  0.00    +0.163 HD
ATOM      6  H   UNL     1       2.157  19.435  16.397  0.00  0.00    +0.159 HD
ATOM      7  H   UNL     1       3.224  18.097  16.194  0.00  0.00    +0.159 HD
ATOM      8  H   UNL     1       3.543  21.438  13.847  0.00  0.00    +0.159 HD
ATOM      9  H   UNL     1       2.338  21.323  15.069  0.00  0.00    +0.159 HD
ENDROOT
BRANCH   1  10
ATOM     10  C   UNL     1       5.305  19.700  13.159  0.00  0.00    +0.151 C 
BRANCH  10  11
ATOM     11  C   UNL     1       5.036  18.887  11.922  0.00  0.00    -0.028 A 
ATOM     12  C   UNL     1       4.033  17.907  11.919  0.00  0.00    +0.005 A 
ATOM     13  C   UNL     1       5.777  19.096  10.749  0.00  0.00    +0.005 A 
ATOM     14  C   UNL     1       3.762  17.173  10.761  0.00  0.00    +0.000 A 
ATOM     15  C   UNL     1       5.505  18.360   9.596  0.00  0.00    +0.000 A 
ATOM     16  C   UNL     1       4.496  17.401   9.602  0.00  0.00    +0.000 A 
ENDBRANCH  10  11
ENDBRANCH   1  10
TORSDOF 2
ENDMDL
MODEL 7
REMARK VINA RESULT:    -5.009     42.789     44.323
REMARK INTER + INTRA:          -5.722
REMARK INTER:                  -5.565
REMARK INTRA:                  -0.158
REMARK UNBOUND:                -0.127
REMARK  Name = 1550473
REMARK  2 active torsions:
REMARK  status: ('A' for Active; 'I' for Inactive)
REMARK    1  A    between atoms: N_1  and  C_4
REMARK    2  A    between atoms: C_4  and  C_5
REMARK                            x       y       z     vdW  Elec       q    Type
REMARK                         _______ _______ _______ _____ _____    ______ ____
ROOT
ATOM      1  N   UNL     1       3.883  18.336   8.362  0.00  0.00    -0.354 N 
ATOM      2  N   UNL     1       2.694  19.562   6.797  0.00  0.00    -0.372 N 
ATOM      3  N   UNL     1       4.980  19.756   6.854  0.00  0.00    -0.372 N 
ATOM      4  C   UNL     1       3.863  19.211   7.347  0.00  0.00    +0.166 C 
ATOM      5  H   UNL     1       2.999  17.982   8.710  0.00  0.00    +0.163 HD
ATOM      6  H   UNL     1       2.648  20.218   6.028  0.00  0.00    +0.159 HD
ATOM      7  H   UNL     1       1.816  19.172   7.116  0.00  0.00    +0.159 HD
ATOM      8  H   UNL     1       5.893  19.537   7.229  0.00  0.00    +0.159 HD
ATOM      9  H   UNL     1       4.953  20.423   6.093  0.00  0.00    +0.159 HD
ENDROOT
BRANCH   1  10
ATOM     10  C   UNL     1       5.106  17.847   8.996  0.00  0.00    +0.151 C 
BRANCH  10  11
ATOM     11  C   UNL     1       5.168  18.363  10.407  0.00  0.00    -0.028 A 
ATOM     12  C   UNL     1       6.154  19.285  10.785  0.00  0.00    +0.005 A 
ATOM     13  C   UNL     1       4.239  17.937  11.369  0.00  0.00    +0.005 A 
ATOM     14  C   UNL     1       6.193  19.787  12.088  0.00  0.00    +0.000 A 
ATOM     15  C   UNL     1       4.283  18.440  12.669  0.00  0.00    +0.000 A 
ATOM     16  C   UNL     1       5.258  19.367  13.028  0.00  0.00    +0.000 A 
ENDBRANCH  10  11
ENDBRANCH   1  10
TORSDOF 2
ENDMDL
MODEL 8
REMARK VINA RESULT:    -4.779      2.821      3.557
REMARK INTER + INTRA:          -5.465
REMARK INTER:                  -5.319
REMARK INTRA:                  -0.146
REMARK UNBOUND:                -0.127
REMARK  Name = 1550473
REMARK  2 active torsions:
REMARK  status: ('A' for Active; 'I' for Inactive)
REMARK    1  A    between atoms: N_1  and  C_4
REMARK    2  A    between atoms: C_4  and  C_5
REMARK                            x       y       z     vdW  Elec       q    Type
REMARK                         _______ _______ _______ _____ _____    ______ ____
ROOT
ATOM      1  N   UNL     1     -10.250 -14.008 -19.260  0.00  0.00    -0.354 N 
ATOM      2  N   UNL     1     -12.194 -15.266 -19.250  0.00  0.00    -0.372 N 
ATOM      3  N   UNL     1     -10.307 -16.133 -18.274  0.00  0.00    -0.372 N 
ATOM      4  C   UNL     1     -10.902 -15.129 -18.927  0.00  0.00    +0.166 C 
ATOM      5  H   UNL     1     -10.750 -13.297 -19.782  0.00  0.00    +0.163 HD
ATOM      6  H   UNL     1     -12.714 -16.100 -19.008  0.00  0.00    +0.159 HD
ATOM      7  H   UNL     1     -12.704 -14.535 -19.730  0.00  0.00    +0.159 HD
ATOM      8  H   UNL     1      -9.332 -16.094 -18.007  0.00  0.00    +0.159 HD
ATOM      9  H   UNL     1     -10.807 -16.980 -18.034  0.00  0.00    +0.159 HD
ENDROOT
BRANCH   1  10
ATOM     10  C   UNL     1      -8.857 -13.737 -18.909  0.00  0.00    +0.151 C 
BRANCH  10  11
ATOM     11  C   UNL     1      -8.790 -12.461 -18.115  0.00  0.00    -0.028 A 
ATOM     12  C   UNL     1      -7.990 -11.394 -18.549  0.00  0.00    +0.005 A 
ATOM     13  C   UNL     1      -9.530 -12.310 -16.932  0.00  0.00    +0.005 A 
ATOM     14  C   UNL     1      -7.951 -10.198 -17.829  0.00  0.00    +0.000 A 
ATOM     15  C   UNL     1      -9.487 -11.115 -16.215  0.00  0.00    +0.000 A 
ATOM     16  C   UNL     1      -8.700 -10.058 -16.665  0.00  0.00    +0.000 A 
ENDBRANCH  10  11
ENDBRANCH   1  10
TORSDOF 2
ENDMDL
MODEL 9
REMARK VINA RESULT:    -4.748      3.402      3.940
REMARK INTER + INTRA:          -5.431
REMARK INTER:                  -5.290
REMARK INTRA:                  -0.140
REMARK UNBOUND:                -0.127
REMARK  Name = 1550473
REMARK  2 active torsions:
REMARK  status: ('A' for Active; 'I' for Inactive)
REMARK    1  A    between atoms: N_1  and  C_4
REMARK    2  A    between atoms: C_4  and  C_5
REMARK                            x       y       z     vdW  Elec       q    Type
REMARK                         _______ _______ _______ _____ _____    ______ ____
ROOT
ATOM      1  N   UNL     1      -8.980 -15.972 -19.739  0.00  0.00    -0.354 N 
ATOM      2  N   UNL     1      -7.126 -15.258 -20.929  0.00  0.00    -0.372 N 
ATOM      3  N   UNL     1      -9.193 -15.141 -21.919  0.00  0.00    -0.372 N 
ATOM      4  C   UNL     1      -8.447 -15.461 -20.857  0.00  0.00    +0.166 C 
ATOM      5  H   UNL     1      -8.357 -16.223 -18.979  0.00  0.00    +0.163 HD
ATOM      6  H   UNL     1      -6.696 -14.870 -21.758  0.00  0.00    +0.159 HD
ATOM      7  H   UNL     1      -6.511 -15.466 -20.152  0.00  0.00    +0.159 HD
ATOM      8  H   UNL     1     -10.195 -15.275 -21.931  0.00  0.00    +0.159 HD
ATOM      9  H   UNL     1      -8.779 -14.763 -22.762  0.00  0.00    +0.159 HD
ENDROOT
BRANCH   1  10
ATOM     10  C   UNL     1     -10.413 -16.183 -19.538  0.00  0.00    +0.151 C 
BRANCH  10  11
ATOM     11  C   UNL     1     -10.802 -15.650 -18.187  0.00  0.00    -0.028 A 
ATOM     12  C   UNL     1      -9.822 -15.215 -17.283  0.00  0.00    +0.005 A 
ATOM     13  C   UNL     1     -12.151 -15.573 -17.806  0.00  0.00    +0.005 A 
ATOM     14  C   UNL     1     -10.185 -14.692 -16.039  0.00  0.00    +0.000 A 
ATOM     15  C   UNL     1     -12.510 -15.052 -16.563  0.00  0.00    +0.000 A 
ATOM     16  C   UNL     1     -11.527 -14.609 -15.681  0.00  0.00    +0.000 A 
ENDBRANCH  10  11
ENDBRANCH   1  10
TORSDOF 2
ENDMDL
