MODEL 1
REMARK VINA RESULT:    -5.439      0.000      0.000
REMARK INTER + INTRA:          -6.221
REMARK INTER:                  -6.075
REMARK INTRA:                  -0.146
REMARK UNBOUND:                -0.146
REMARK  Name = 1550473
REMARK  2 active torsions:
REMARK  status: ('A' for Active; 'I' for Inactive)
REMARK    1  A    between atoms: N_1  and  C_4
REMARK    2  A    between atoms: C_4  and  C_5
REMARK                            x       y       z     vdW  Elec       q    Type
REMARK                         _______ _______ _______ _____ _____    ______ ____
ROOT
ATOM      1  N   UNL     1      -2.817  -2.902  22.426  0.00  0.00    -0.354 N 
ATOM      2  N   UNL     1      -3.536  -0.748  21.971  0.00  0.00    -0.372 N 
ATOM      3  N   UNL     1      -5.044  -2.472  21.837  0.00  0.00    -0.372 N 
ATOM      4  C   UNL     1      -3.797  -2.056  22.080  0.00  0.00    +0.166 C 
ATOM      5  H   UNL     1      -1.886  -2.527  22.567  0.00  0.00    +0.163 HD
ATOM      6  H   UNL     1      -4.256  -0.085  21.715  0.00  0.00    +0.159 HD
ATOM      7  H   UNL     1      -2.615  -0.370  22.157  0.00  0.00    +0.159 HD
ATOM      8  H   UNL     1      -5.305  -3.447  21.896  0.00  0.00    +0.159 HD
ATOM      9  H   UNL     1      -5.776  -1.826  21.568  0.00  0.00    +0.159 HD
ENDROOT
BRANCH   1  10
ATOM     10  C   UNL     1      -3.008  -4.337  22.624  0.00  0.00    +0.151 C 
BRANCH  10  11
ATOM     11  C   UNL     1      -2.049  -5.087  21.741  0.00  0.00    -0.028 A 
ATOM     12  C   UNL     1      -1.096  -4.398  20.978  0.00  0.00    +0.005 A 
ATOM     13  C   UNL     1      -2.085  -6.488  21.668  0.00  0.00    +0.005 A 
ATOM     14  C   UNL     1      -0.186  -5.096  20.180  0.00  0.00    +0.000 A 
ATOM     15  C   UNL     1      -1.175  -7.181  20.870  0.00  0.00    +0.000 A 
ATOM     16  C   UNL     1      -0.224  -6.485  20.129  0.00  0.00    +0.000 A 
ENDBRANCH  10  11
ENDBRANCH   1  10
TORSDOF 2
ENDMDL
MODEL 2
REMARK VINA RESULT:    -5.306     51.232     52.166
REMARK INTER + INTRA:          -6.072
REMARK INTER:                  -5.939
REMARK INTRA:                  -0.132
REMARK UNBOUND:                -0.146
REMARK  Name = 1550473
REMARK  2 active torsions:
REMARK  status: ('A' for Active; 'I' for Inactive)
REMARK    1  A    between atoms: N_1  and  C_4
REMARK    2  A    between atoms: C_4  and  C_5
REMARK                            x       y       z     vdW  Elec       q    Type
REMARK                         _______ _______ _______ _____ _____    ______ ____
ROOT
ATOM      1  N   UNL     1      -2.999  -9.092 -30.496  0.00  0.00    -0.354 N 
ATOM      2  N   UNL     1      -4.221 -10.181 -32.134  0.00  0.00    -0.372 N 
ATOM      3  N   UNL     1      -5.343  -9.068 -30.471  0.00  0.00    -0.372 N 
ATOM      4  C   UNL     1      -4.182  -9.439 -31.021  0.00  0.00    +0.166 C 
ATOM      5  H   UNL     1      -2.156  -9.430 -30.944  0.00  0.00    +0.163 HD
ATOM      6  H   UNL     1      -5.098 -10.455 -32.556  0.00  0.00    +0.159 HD
ATOM      7  H   UNL     1      -3.376 -10.479 -32.606  0.00  0.00    +0.159 HD
ATOM      8  H   UNL     1      -5.382  -8.512 -29.627  0.00  0.00    +0.159 HD
ATOM      9  H   UNL     1      -6.231  -9.342 -30.871  0.00  0.00    +0.159 HD
ENDROOT
BRANCH   1  10
ATOM     10  C   UNL     1      -2.847  -8.241 -29.317  0.00  0.00    +0.151 C 
BRANCH  10  11
ATOM     11  C   UNL     1      -2.599  -6.826 -29.761  0.00  0.00    -0.028 A 
ATOM     12  C   UNL     1      -2.000  -6.563 -31.002  0.00  0.00    +0.005 A 
ATOM     13  C   UNL     1      -2.967  -5.742 -28.948  0.00  0.00    +0.005 A 
ATOM     14  C   UNL     1      -1.797  -5.248 -31.428  0.00  0.00    +0.000 A 
ATOM     15  C   UNL     1      -2.762  -4.431 -29.377  0.00  0.00    +0.000 A 
ATOM     16  C   UNL     1      -2.180  -4.184 -30.618  0.00  0.00    +0.000 A 
ENDBRANCH  10  11
ENDBRANCH   1  10
TORSDOF 2
ENDMDL
MODEL 3
REMARK VINA RESULT:    -5.262      3.593      5.009
REMARK INTER + INTRA:          -6.023
REMARK INTER:                  -5.868
REMARK INTRA:                  -0.155
REMARK UNBOUND:                -0.146
REMARK  Name = 1550473
REMARK  2 active torsions:
REMARK  status: ('A' for Active; 'I' for Inactive)
REMARK    1  A    between atoms: N_1  and  C_4
REMARK    2  A    between atoms: C_4  and  C_5
REMARK                            x       y       z     vdW  Elec       q    Type
REMARK                         _______ _______ _______ _____ _____    ______ ____
ROOT
ATOM      1  N   UNL     1      -1.563  -7.889  21.008  0.00  0.00    -0.354 N 
ATOM      2  N   UNL     1      -1.553  -8.618  18.810  0.00  0.00    -0.372 N 
ATOM      3  N   UNL     1      -0.067  -6.989  19.445  0.00  0.00    -0.372 N 
ATOM      4  C   UNL     1      -1.059  -7.825  19.769  0.00  0.00    +0.166 C 
ATOM      5  H   UNL     1      -2.335  -8.522  21.183  0.00  0.00    +0.163 HD
ATOM      6  H   UNL     1      -1.192  -8.595  17.866  0.00  0.00    +0.159 HD
ATOM      7  H   UNL     1      -2.294  -9.283  18.998  0.00  0.00    +0.159 HD
ATOM      8  H   UNL     1       0.345  -6.360  20.121  0.00  0.00    +0.159 HD
ATOM      9  H   UNL     1       0.300  -6.942  18.502  0.00  0.00    +0.159 HD
ENDROOT
BRANCH   1  10
ATOM     10  C   UNL     1      -1.059  -7.107  22.137  0.00  0.00    +0.151 C 
BRANCH  10  11
ATOM     11  C   UNL     1      -1.979  -5.942  22.375  0.00  0.00    -0.028 A 
ATOM     12  C   UNL     1      -1.810  -4.744  21.664  0.00  0.00    +0.005 A 
ATOM     13  C   UNL     1      -3.024  -6.030  23.308  0.00  0.00    +0.005 A 
ATOM     14  C   UNL     1      -2.683  -3.672  21.864  0.00  0.00    +0.000 A 
ATOM     15  C   UNL     1      -3.893  -4.956  23.505  0.00  0.00    +0.000 A 
ATOM     16  C   UNL     1      -3.723  -3.778  22.781  0.00  0.00    +0.000 A 
ENDBRANCH  10  11
ENDBRANCH   1  10
TORSDOF 2
ENDMDL
MODEL 4
REMARK VINA RESULT:    -4.945     43.196     44.125
REMARK INTER + INTRA:          -5.669
REMARK INTER:                  -5.548
REMARK INTRA:                  -0.120
REMARK UNBOUND:                -0.146
REMARK  Name = 1550473
REMARK  2 active torsions:
REMARK  status: ('A' for Active; 'I' for Inactive)
REMARK    1  A    between atoms: N_1  and  C_4
REMARK    2  A    between atoms: C_4  and  C_5
REMARK                            x       y       z     vdW  Elec       q    Type
REMARK                         _______ _______ _______ _____ _____    ______ ____
ROOT
ATOM      1  N   UNL     1      -0.357   7.018 -22.576  0.00  0.00    -0.354 N 
ATOM      2  N   UNL     1       0.107   9.215 -23.142  0.00  0.00    -0.372 N 
ATOM      3  N   UNL     1       1.845   7.819 -22.602  0.00  0.00    -0.372 N 
ATOM      4  C   UNL     1       0.531   8.002 -22.769  0.00  0.00    +0.166 C 
ATOM      5  H   UNL     1      -1.342   7.229 -22.689  0.00  0.00    +0.163 HD
ATOM      6  H   UNL     1       0.754   9.977 -23.298  0.00  0.00    +0.159 HD
ATOM      7  H   UNL     1      -0.874   9.411 -23.299  0.00  0.00    +0.159 HD
ATOM      8  H   UNL     1       2.230   6.928 -22.316  0.00  0.00    +0.159 HD
ATOM      9  H   UNL     1       2.508   8.571 -22.742  0.00  0.00    +0.159 HD
ENDROOT
BRANCH   1  10
ATOM     10  C   UNL     1       0.006   5.647 -22.221  0.00  0.00    +0.151 C 
BRANCH  10  11
ATOM     11  C   UNL     1      -0.868   5.185 -21.088  0.00  0.00    -0.028 A 
ATOM     12  C   UNL     1      -0.301   4.637 -19.929  0.00  0.00    +0.005 A 
ATOM     13  C   UNL     1      -2.265   5.298 -21.165  0.00  0.00    +0.005 A 
ATOM     14  C   UNL     1      -1.111   4.235 -18.864  0.00  0.00    +0.000 A 
ATOM     15  C   UNL     1      -3.070   4.895 -20.100  0.00  0.00    +0.000 A 
ATOM     16  C   UNL     1      -2.493   4.366 -18.949  0.00  0.00    +0.000 A 
ENDBRANCH  10  11
ENDBRANCH   1  10
TORSDOF 2
ENDMDL
MODEL 5
REMARK VINA RESULT:    -4.846     43.345     44.285
REMARK INTER + INTRA:          -5.558
REMARK INTER:                  -5.381
REMARK INTRA:                  -0.177
REMARK UNBOUND:                -0.146
REMARK  Name = 1550473
REMARK  2 active torsions:
REMARK  status: ('A' for Active; 'I' for Inactive)
REMARK    1  A    between atoms: N_1  and  C_4
REMARK    2  A    between atoms: C_4  and  C_5
REMARK                            x       y       z     vdW  Elec       q    Type
REMARK                         _______ _______ _______ _____ _____    ______ ____
ROOT
ATOM      1  N   UNL     1      -0.484   4.279 -20.708  0.00  0.00    -0.354 N 
ATOM      2  N   UNL     1      -0.516   3.806 -18.441  0.00  0.00    -0.372 N 
ATOM      3  N   UNL     1      -2.350   4.805 -19.391  0.00  0.00    -0.372 N 
ATOM      4  C   UNL     1      -1.119   4.301 -19.528  0.00  0.00    +0.166 C 
ATOM      5  H   UNL     1       0.460   3.911 -20.740  0.00  0.00    +0.163 HD
ATOM      6  H   UNL     1      -0.971   3.805 -17.538  0.00  0.00    +0.159 HD
ATOM      7  H   UNL     1       0.410   3.397 -18.485  0.00  0.00    +0.159 HD
ATOM      8  H   UNL     1      -2.857   5.199 -20.172  0.00  0.00    +0.159 HD
ATOM      9  H   UNL     1      -2.818   4.824 -18.493  0.00  0.00    +0.159 HD
ENDROOT
BRANCH   1  10
ATOM     10  C   UNL     1      -1.073   4.744 -21.962  0.00  0.00    +0.151 C 
BRANCH  10  11
ATOM     11  C   UNL     1      -0.620   6.154 -22.225  0.00  0.00    -0.028 A 
ATOM     12  C   UNL     1      -1.555   7.193 -22.340  0.00  0.00    +0.005 A 
ATOM     13  C   UNL     1       0.744   6.458 -22.354  0.00  0.00    +0.005 A 
ATOM     14  C   UNL     1      -1.133   8.507 -22.554  0.00  0.00    +0.000 A 
ATOM     15  C   UNL     1       1.162   7.771 -22.569  0.00  0.00    +0.000 A 
ATOM     16  C   UNL     1       0.223   8.796 -22.667  0.00  0.00    +0.000 A 
ENDBRANCH  10  11
ENDBRANCH   1  10
TORSDOF 2
ENDMDL
MODEL 6
REMARK VINA RESULT:    -4.787     22.703     23.138
REMARK INTER + INTRA:          -5.492
REMARK INTER:                  -5.360
REMARK INTRA:                  -0.132
REMARK UNBOUND:                -0.146
REMARK  Name = 1550473
REMARK  2 active torsions:
REMARK  status: ('A' for Active; 'I' for Inactive)
REMARK    1  A    between atoms: N_1  and  C_4
REMARK    2  A    between atoms: C_4  and  C_5
REMARK                            x       y       z     vdW  Elec       q    Type
REMARK                         _______ _______ _______ _____ _____    ______ ____
ROOT
ATOM      1  N   UNL     1     -11.714  -1.233   1.200  0.00  0.00    -0.354 N 
ATOM      2  N   UNL     1     -13.745  -0.748   2.201  0.00  0.00    -0.372 N 
ATOM      3  N   UNL     1     -13.720  -2.072   0.327  0.00  0.00    -0.372 N 
ATOM      4  C   UNL     1     -13.047  -1.355   1.234  0.00  0.00    +0.166 C 
ATOM      5  H   UNL     1     -11.266  -0.651   1.898  0.00  0.00    +0.163 HD
ATOM      6  H   UNL     1     -14.752  -0.825   2.254  0.00  0.00    +0.159 HD
ATOM      7  H   UNL     1     -13.291  -0.204   2.925  0.00  0.00    +0.159 HD
ATOM      8  H   UNL     1     -13.253  -2.550  -0.432  0.00  0.00    +0.159 HD
ATOM      9  H   UNL     1     -14.729  -2.151   0.357  0.00  0.00    +0.159 HD
ENDROOT
BRANCH   1  10
ATOM     10  C   UNL     1     -10.856  -1.898   0.220  0.00  0.00    +0.151 C 
BRANCH  10  11
ATOM     11  C   UNL     1      -9.660  -1.029  -0.055  0.00  0.00    -0.028 A 
ATOM     12  C   UNL     1      -9.516   0.209   0.587  0.00  0.00    +0.005 A 
ATOM     13  C   UNL     1      -8.664  -1.442  -0.954  0.00  0.00    +0.005 A 
ATOM     14  C   UNL     1      -8.390   1.003   0.355  0.00  0.00    +0.000 A 
ATOM     15  C   UNL     1      -7.541  -0.646  -1.184  0.00  0.00    +0.000 A 
ATOM     16  C   UNL     1      -7.404   0.575  -0.528  0.00  0.00    +0.000 A 
ENDBRANCH  10  11
ENDBRANCH   1  10
TORSDOF 2
ENDMDL
MODEL 7
REMARK VINA RESULT:    -4.752      4.571      6.346
REMARK INTER + INTRA:          -5.453
REMARK INTER:                  -5.339
REMARK INTRA:                  -0.114
REMARK UNBOUND:                -0.146
REMARK  Name = 1550473
REMARK  2 active torsions:
REMARK  status: ('A' for Active; 'I' for Inactive)
REMARK    1  A    between atoms: N_1  and  C_4
REMARK    2  A    between atoms: C_4  and  C_5
REMARK                            x       y       z     vdW  Elec       q    Type
REMARK                         _______ _______ _______ _____ _____    ______ ____
ROOT
ATOM      1  N   UNL     1      -0.072  -9.362  21.500  0.00  0.00    -0.354 N 
ATOM      2  N   UNL     1       1.639 -10.661  22.364  0.00  0.00    -0.372 N 
ATOM      3  N   UNL     1       1.298 -10.643  20.095  0.00  0.00    -0.372 N 
ATOM      4  C   UNL     1       0.944 -10.214  21.311  0.00  0.00    +0.166 C 
ATOM      5  H   UNL     1      -0.310  -9.098  22.449  0.00  0.00    +0.163 HD
ATOM      6  H   UNL     1       2.413 -11.302  22.252  0.00  0.00    +0.159 HD
ATOM      7  H   UNL     1       1.429 -10.360  23.308  0.00  0.00    +0.159 HD
ATOM      8  H   UNL     1       0.810 -10.347  19.260  0.00  0.00    +0.159 HD
ATOM      9  H   UNL     1       2.062 -11.293  19.964  0.00  0.00    +0.159 HD
ENDROOT
BRANCH   1  10
ATOM     10  C   UNL     1      -0.858  -8.774  20.416  0.00  0.00    +0.151 C 
BRANCH  10  11
ATOM     11  C   UNL     1      -1.022  -7.301  20.672  0.00  0.00    -0.028 A 
ATOM     12  C   UNL     1      -1.954  -6.841  21.614  0.00  0.00    +0.005 A 
ATOM     13  C   UNL     1      -0.244  -6.360  19.979  0.00  0.00    +0.005 A 
ATOM     14  C   UNL     1      -2.086  -5.475  21.873  0.00  0.00    +0.000 A 
ATOM     15  C   UNL     1      -0.379  -4.997  20.241  0.00  0.00    +0.000 A 
ATOM     16  C   UNL     1      -1.299  -4.555  21.189  0.00  0.00    +0.000 A 
ENDBRANCH  10  11
ENDBRANCH   1  10
TORSDOF 2
ENDMDL
MODEL 8
REMARK VINA RESULT:    -4.700     35.895     36.843
REMARK INTER + INTRA:          -5.395
REMARK INTER:                  -5.291
REMARK INTRA:                  -0.104
REMARK UNBOUND:                -0.146
REMARK  Name = 1550473
REMARK  2 active torsions:
REMARK  status: ('A' for Active; 'I' for Inactive)
REMARK    1  A    between atoms: N_1  and  C_4
REMARK    2  A    between atoms: C_4  and  C_5
REMARK                            x       y       z     vdW  Elec       q    Type
REMARK                         _______ _______ _______ _____ _____    ______ ____
ROOT
ATOM      1  N   UNL     1      11.513   3.563 -12.908  0.00  0.00    -0.354 N 
ATOM      2  N   UNL     1      11.128   4.372 -15.043  0.00  0.00    -0.372 N 
ATOM      3  N   UNL     1       9.639   2.879 -14.138  0.00  0.00    -0.372 N 
ATOM      4  C   UNL     1      10.760   3.597 -14.015  0.00  0.00    +0.166 C 
ATOM      5  H   UNL     1      12.367   4.108 -12.889  0.00  0.00    +0.163 HD
ATOM      6  H   UNL     1      10.578   4.421 -15.891  0.00  0.00    +0.159 HD
ATOM      7  H   UNL     1      11.958   4.951 -15.004  0.00  0.00    +0.159 HD
ATOM      8  H   UNL     1       9.310   2.270 -13.400  0.00  0.00    +0.159 HD
ATOM      9  H   UNL     1       9.082   2.906 -14.983  0.00  0.00    +0.159 HD
ENDROOT
BRANCH   1  10
ATOM     10  C   UNL     1      11.172   2.794 -11.712  0.00  0.00    +0.151 C 
BRANCH  10  11
ATOM     11  C   UNL     1      12.038   3.252 -10.570  0.00  0.00    -0.028 A 
ATOM     12  C   UNL     1      12.913   2.357  -9.937  0.00  0.00    +0.005 A 
ATOM     13  C   UNL     1      11.993   4.581 -10.122  0.00  0.00    +0.005 A 
ATOM     14  C   UNL     1      13.739   2.790  -8.897  0.00  0.00    +0.000 A 
ATOM     15  C   UNL     1      12.819   5.009  -9.082  0.00  0.00    +0.000 A 
ATOM     16  C   UNL     1      13.693   4.113  -8.472  0.00  0.00    +0.000 A 
ENDBRANCH  10  11
ENDBRANCH   1  10
TORSDOF 2
ENDMDL
MODEL 9
REMARK VINA RESULT:    -4.642     44.264     45.185
REMARK INTER + INTRA:          -5.330
REMARK INTER:                  -5.228
REMARK INTRA:                  -0.102
REMARK UNBOUND:                -0.146
REMARK  Name = 1550473
REMARK  2 active torsions:
REMARK  status: ('A' for Active; 'I' for Inactive)
REMARK    1  A    between atoms: N_1  and  C_4
REMARK    2  A    between atoms: C_4  and  C_5
REMARK                            x       y       z     vdW  Elec       q    Type
REMARK                         _______ _______ _______ _____ _____    ______ ____
ROOT
ATOM      1  N   UNL     1      -0.684   9.021 -22.264  0.00  0.00    -0.354 N 
ATOM      2  N   UNL     1      -2.013  10.867 -22.700  0.00  0.00    -0.372 N 
ATOM      3  N   UNL     1      -0.138  10.524 -23.977  0.00  0.00    -0.372 N 
ATOM      4  C   UNL     1      -0.934  10.125 -22.979  0.00  0.00    +0.166 C 
ATOM      5  H   UNL     1      -1.309   8.789 -21.501  0.00  0.00    +0.163 HD
ATOM      6  H   UNL     1      -2.229  11.703 -23.224  0.00  0.00    +0.159 HD
ATOM      7  H   UNL     1      -2.661  10.608 -21.966  0.00  0.00    +0.159 HD
ATOM      8  H   UNL     1       0.696  10.012 -24.234  0.00  0.00    +0.159 HD
ATOM      9  H   UNL     1      -0.331  11.365 -24.506  0.00  0.00    +0.159 HD
ENDROOT
BRANCH   1  10
ATOM     10  C   UNL     1       0.435   8.115 -22.522  0.00  0.00    +0.151 C 
BRANCH  10  11
ATOM     11  C   UNL     1       0.142   6.781 -21.893  0.00  0.00    -0.028 A 
ATOM     12  C   UNL     1      -0.157   6.689 -20.526  0.00  0.00    +0.005 A 
ATOM     13  C   UNL     1       0.156   5.606 -22.661  0.00  0.00    +0.005 A 
ATOM     14  C   UNL     1      -0.459   5.453 -19.948  0.00  0.00    +0.000 A 
ATOM     15  C   UNL     1      -0.145   4.374 -22.079  0.00  0.00    +0.000 A 
ATOM     16  C   UNL     1      -0.455   4.299 -20.723  0.00  0.00    +0.000 A 
ENDBRANCH  10  11
ENDBRANCH   1  10
TORSDOF 2
ENDMDL
