MODEL 1
REMARK VINA RESULT:    -4.956      0.000      0.000
REMARK INTER + INTRA:          -5.669
REMARK INTER:                  -5.535
REMARK INTRA:                  -0.134
REMARK UNBOUND:                -0.134
REMARK  Name = 1550473
REMARK  2 active torsions:
REMARK  status: ('A' for Active; 'I' for Inactive)
REMARK    1  A    between atoms: N_1  and  C_4
REMARK    2  A    between atoms: C_4  and  C_5
REMARK                            x       y       z     vdW  Elec       q    Type
REMARK                         _______ _______ _______ _____ _____    ______ ____
ROOT
ATOM      1  N   UNL     1      10.208  -6.434   1.798  0.00  0.00    -0.354 N 
ATOM      2  N   UNL     1      11.702  -6.727   0.053  0.00  0.00    -0.372 N 
ATOM      3  N   UNL     1      11.344  -4.610   0.862  0.00  0.00    -0.372 N 
ATOM      4  C   UNL     1      11.075  -5.919   0.916  0.00  0.00    +0.166 C 
ATOM      5  H   UNL     1      10.025  -7.430   1.768  0.00  0.00    +0.163 HD
ATOM      6  H   UNL     1      12.363  -6.368  -0.622  0.00  0.00    +0.159 HD
ATOM      7  H   UNL     1      11.551  -7.729   0.055  0.00  0.00    +0.159 HD
ATOM      8  H   UNL     1      10.900  -3.946   1.483  0.00  0.00    +0.159 HD
ATOM      9  H   UNL     1      11.994  -4.230   0.186  0.00  0.00    +0.159 HD
ENDROOT
BRANCH   1  10
ATOM     10  C   UNL     1       9.514  -5.648   2.817  0.00  0.00    +0.151 C 
BRANCH  10  11
ATOM     11  C   UNL     1       9.373  -6.475   4.064  0.00  0.00    -0.028 A 
ATOM     12  C   UNL     1       8.596  -6.017   5.139  0.00  0.00    +0.005 A 
ATOM     13  C   UNL     1      10.008  -7.722   4.176  0.00  0.00    +0.005 A 
ATOM     14  C   UNL     1       8.440  -6.799   6.286  0.00  0.00    +0.000 A 
ATOM     15  C   UNL     1       9.851  -8.499   5.324  0.00  0.00    +0.000 A 
ATOM     16  C   UNL     1       9.065  -8.038   6.377  0.00  0.00    +0.000 A 
ENDBRANCH  10  11
ENDBRANCH   1  10
TORSDOF 2
ENDMDL
MODEL 2
REMARK VINA RESULT:    -4.815      1.718      2.506
REMARK INTER + INTRA:          -5.512
REMARK INTER:                  -5.411
REMARK INTRA:                  -0.101
REMARK UNBOUND:                -0.134
REMARK  Name = 1550473
REMARK  2 active torsions:
REMARK  status: ('A' for Active; 'I' for Inactive)
REMARK    1  A    between atoms: N_1  and  C_4
REMARK    2  A    between atoms: C_4  and  C_5
REMARK                            x       y       z     vdW  Elec       q    Type
REMARK                         _______ _______ _______ _____ _____    ______ ____
ROOT
ATOM      1  N   UNL     1      11.235  -6.675   0.604  0.00  0.00    -0.354 N 
ATOM      2  N   UNL     1      12.016  -8.287  -0.865  0.00  0.00    -0.372 N 
ATOM      3  N   UNL     1      12.860  -6.157  -1.003  0.00  0.00    -0.372 N 
ATOM      4  C   UNL     1      12.033  -7.027  -0.413  0.00  0.00    +0.166 C 
ATOM      5  H   UNL     1      10.610  -7.374   0.989  0.00  0.00    +0.163 HD
ATOM      6  H   UNL     1      12.610  -8.582  -1.628  0.00  0.00    +0.159 HD
ATOM      7  H   UNL     1      11.423  -8.994  -0.448  0.00  0.00    +0.159 HD
ATOM      8  H   UNL     1      12.916  -5.190  -0.713  0.00  0.00    +0.159 HD
ATOM      9  H   UNL     1      13.453  -6.431  -1.777  0.00  0.00    +0.159 HD
ENDROOT
BRANCH   1  10
ATOM     10  C   UNL     1      11.217  -5.343   1.206  0.00  0.00    +0.151 C 
BRANCH  10  11
ATOM     11  C   UNL     1      10.680  -5.445   2.607  0.00  0.00    -0.028 A 
ATOM     12  C   UNL     1       9.399  -5.966   2.843  0.00  0.00    +0.005 A 
ATOM     13  C   UNL     1      11.449  -5.026   3.704  0.00  0.00    +0.005 A 
ATOM     14  C   UNL     1       8.912  -6.088   4.146  0.00  0.00    +0.000 A 
ATOM     15  C   UNL     1      10.958  -5.149   5.004  0.00  0.00    +0.000 A 
ATOM     16  C   UNL     1       9.691  -5.683   5.225  0.00  0.00    +0.000 A 
ENDBRANCH  10  11
ENDBRANCH   1  10
TORSDOF 2
ENDMDL
MODEL 3
REMARK VINA RESULT:    -4.791     23.506     24.805
REMARK INTER + INTRA:          -5.485
REMARK INTER:                  -5.341
REMARK INTRA:                  -0.144
REMARK UNBOUND:                -0.134
REMARK  Name = 1550473
REMARK  2 active torsions:
REMARK  status: ('A' for Active; 'I' for Inactive)
REMARK    1  A    between atoms: N_1  and  C_4
REMARK    2  A    between atoms: C_4  and  C_5
REMARK                            x       y       z     vdW  Elec       q    Type
REMARK                         _______ _______ _______ _____ _____    ______ ____
ROOT
ATOM      1  N   UNL     1       7.248  11.598  22.066  0.00  0.00    -0.354 N 
ATOM      2  N   UNL     1       6.462  13.772  21.920  0.00  0.00    -0.372 N 
ATOM      3  N   UNL     1       4.967  12.039  21.757  0.00  0.00    -0.372 N 
ATOM      4  C   UNL     1       6.228  12.454  21.915  0.00  0.00    +0.166 C 
ATOM      5  H   UNL     1       8.184  11.976  22.152  0.00  0.00    +0.163 HD
ATOM      6  H   UNL     1       5.712  14.442  21.811  0.00  0.00    +0.159 HD
ATOM      7  H   UNL     1       7.393  14.147  22.051  0.00  0.00    +0.159 HD
ATOM      8  H   UNL     1       4.725  11.057  21.738  0.00  0.00    +0.159 HD
ATOM      9  H   UNL     1       4.204  12.694  21.634  0.00  0.00    +0.159 HD
ENDROOT
BRANCH   1  10
ATOM     10  C   UNL     1       7.094  10.146  22.129  0.00  0.00    +0.151 C 
BRANCH  10  11
ATOM     11  C   UNL     1       7.918   9.517  21.039  0.00  0.00    -0.028 A 
ATOM     12  C   UNL     1       8.732  10.308  20.216  0.00  0.00    +0.005 A 
ATOM     13  C   UNL     1       7.893   8.130  20.829  0.00  0.00    +0.005 A 
ATOM     14  C   UNL     1       9.520   9.722  19.223  0.00  0.00    +0.000 A 
ATOM     15  C   UNL     1       8.682   7.548  19.837  0.00  0.00    +0.000 A 
ATOM     16  C   UNL     1       9.497   8.344  19.036  0.00  0.00    +0.000 A 
ENDBRANCH  10  11
ENDBRANCH   1  10
TORSDOF 2
ENDMDL
MODEL 4
REMARK VINA RESULT:    -4.787     20.624     21.664
REMARK INTER + INTRA:          -5.481
REMARK INTER:                  -5.309
REMARK INTRA:                  -0.172
REMARK UNBOUND:                -0.134
REMARK  Name = 1550473
REMARK  2 active torsions:
REMARK  status: ('A' for Active; 'I' for Inactive)
REMARK    1  A    between atoms: N_1  and  C_4
REMARK    2  A    between atoms: C_4  and  C_5
REMARK                            x       y       z     vdW  Elec       q    Type
REMARK                         _______ _______ _______ _____ _____    ______ ____
ROOT
ATOM      1  N   UNL     1      -0.882  12.204   0.723  0.00  0.00    -0.354 N 
ATOM      2  N   UNL     1       0.130  11.754   2.757  0.00  0.00    -0.372 N 
ATOM      3  N   UNL     1      -1.929  10.842   2.316  0.00  0.00    -0.372 N 
ATOM      4  C   UNL     1      -0.903  11.602   1.919  0.00  0.00    +0.166 C 
ATOM      5  H   UNL     1      -0.089  12.792   0.494  0.00  0.00    +0.163 HD
ATOM      6  H   UNL     1       0.144  11.309   3.665  0.00  0.00    +0.159 HD
ATOM      7  H   UNL     1       0.942  12.305   2.507  0.00  0.00    +0.159 HD
ATOM      8  H   UNL     1      -2.741  10.691   1.733  0.00  0.00    +0.159 HD
ATOM      9  H   UNL     1      -1.939  10.397   3.226  0.00  0.00    +0.159 HD
ENDROOT
BRANCH   1  10
ATOM     10  C   UNL     1      -1.932  12.059  -0.284  0.00  0.00    +0.151 C 
BRANCH  10  11
ATOM     11  C   UNL     1      -1.410  11.222  -1.420  0.00  0.00    -0.028 A 
ATOM     12  C   UNL     1      -1.639   9.839  -1.448  0.00  0.00    +0.005 A 
ATOM     13  C   UNL     1      -0.692  11.808  -2.473  0.00  0.00    +0.005 A 
ATOM     14  C   UNL     1      -1.181   9.066  -2.518  0.00  0.00    +0.000 A 
ATOM     15  C   UNL     1      -0.235  11.032  -3.539  0.00  0.00    +0.000 A 
ATOM     16  C   UNL     1      -0.482   9.662  -3.562  0.00  0.00    +0.000 A 
ENDBRANCH  10  11
ENDBRANCH   1  10
TORSDOF 2
ENDMDL
MODEL 5
REMARK VINA RESULT:    -4.710     20.171     21.344
REMARK INTER + INTRA:          -5.395
REMARK INTER:                  -5.291
REMARK INTRA:                  -0.104
REMARK UNBOUND:                -0.134
REMARK  Name = 1550473
REMARK  2 active torsions:
REMARK  status: ('A' for Active; 'I' for Inactive)
REMARK    1  A    between atoms: N_1  and  C_4
REMARK    2  A    between atoms: C_4  and  C_5
REMARK                            x       y       z     vdW  Elec       q    Type
REMARK                         _______ _______ _______ _____ _____    ______ ____
ROOT
ATOM      1  N   UNL     1      10.161   8.282  16.672  0.00  0.00    -0.354 N 
ATOM      2  N   UNL     1      10.532   6.378  15.406  0.00  0.00    -0.372 N 
ATOM      3  N   UNL     1      12.199   7.130  16.793  0.00  0.00    -0.372 N 
ATOM      4  C   UNL     1      10.964   7.276  16.300  0.00  0.00    +0.166 C 
ATOM      5  H   UNL     1       9.248   8.354  16.239  0.00  0.00    +0.163 HD
ATOM      6  H   UNL     1      11.114   5.606  15.109  0.00  0.00    +0.159 HD
ATOM      7  H   UNL     1       9.602   6.426  15.009  0.00  0.00    +0.159 HD
ATOM      8  H   UNL     1      12.586   7.777  17.466  0.00  0.00    +0.159 HD
ATOM      9  H   UNL     1      12.801   6.371  16.499  0.00  0.00    +0.159 HD
ENDROOT
BRANCH   1  10
ATOM     10  C   UNL     1      10.516   9.282  17.678  0.00  0.00    +0.151 C 
BRANCH  10  11
ATOM     11  C   UNL     1       9.589   9.144  18.854  0.00  0.00    -0.028 A 
ATOM     12  C   UNL     1       9.148   7.879  19.270  0.00  0.00    +0.005 A 
ATOM     13  C   UNL     1       9.153  10.275  19.562  0.00  0.00    +0.005 A 
ATOM     14  C   UNL     1       8.312   7.749  20.381  0.00  0.00    +0.000 A 
ATOM     15  C   UNL     1       8.317  10.141  20.670  0.00  0.00    +0.000 A 
ATOM     16  C   UNL     1       7.899   8.878  21.081  0.00  0.00    +0.000 A 
ENDBRANCH  10  11
ENDBRANCH   1  10
TORSDOF 2
ENDMDL
MODEL 6
REMARK VINA RESULT:    -4.681     11.967     12.656
REMARK INTER + INTRA:          -5.362
REMARK INTER:                  -5.255
REMARK INTRA:                  -0.107
REMARK UNBOUND:                -0.134
REMARK  Name = 1550473
REMARK  2 active torsions:
REMARK  status: ('A' for Active; 'I' for Inactive)
REMARK    1  A    between atoms: N_1  and  C_4
REMARK    2  A    between atoms: C_4  and  C_5
REMARK                            x       y       z     vdW  Elec       q    Type
REMARK                         _______ _______ _______ _____ _____    ______ ____
ROOT
ATOM      1  N   UNL     1      -1.800  -6.523   8.928  0.00  0.00    -0.354 N 
ATOM      2  N   UNL     1      -3.917  -7.410   8.620  0.00  0.00    -0.372 N 
ATOM      3  N   UNL     1      -3.347  -5.485   7.507  0.00  0.00    -0.372 N 
ATOM      4  C   UNL     1      -3.008  -6.464   8.352  0.00  0.00    +0.166 C 
ATOM      5  H   UNL     1      -1.614  -7.273   9.583  0.00  0.00    +0.163 HD
ATOM      6  H   UNL     1      -4.835  -7.394   8.197  0.00  0.00    +0.159 HD
ATOM      7  H   UNL     1      -3.713  -8.184   9.239  0.00  0.00    +0.159 HD
ATOM      8  H   UNL     1      -2.709  -4.739   7.268  0.00  0.00    +0.159 HD
ATOM      9  H   UNL     1      -4.266  -5.446   7.083  0.00  0.00    +0.159 HD
ENDROOT
BRANCH   1  10
ATOM     10  C   UNL     1      -0.720  -5.573   8.662  0.00  0.00    +0.151 C 
BRANCH  10  11
ATOM     11  C   UNL     1       0.320  -5.698   9.741  0.00  0.00    -0.028 A 
ATOM     12  C   UNL     1       0.774  -6.960  10.150  0.00  0.00    +0.005 A 
ATOM     13  C   UNL     1       0.861  -4.557  10.353  0.00  0.00    +0.005 A 
ATOM     14  C   UNL     1       1.762  -7.076  11.131  0.00  0.00    +0.000 A 
ATOM     15  C   UNL     1       1.847  -4.676  11.333  0.00  0.00    +0.000 A 
ATOM     16  C   UNL     1       2.299  -5.935  11.719  0.00  0.00    +0.000 A 
ENDBRANCH  10  11
ENDBRANCH   1  10
TORSDOF 2
ENDMDL
MODEL 7
REMARK VINA RESULT:    -4.649     19.527     20.747
REMARK INTER + INTRA:          -5.327
REMARK INTER:                  -5.199
REMARK INTRA:                  -0.127
REMARK UNBOUND:                -0.134
REMARK  Name = 1550473
REMARK  2 active torsions:
REMARK  status: ('A' for Active; 'I' for Inactive)
REMARK    1  A    between atoms: N_1  and  C_4
REMARK    2  A    between atoms: C_4  and  C_5
REMARK                            x       y       z     vdW  Elec       q    Type
REMARK                         _______ _______ _______ _____ _____    ______ ____
ROOT
ATOM      1  N   UNL     1      -5.862  -1.118  15.069  0.00  0.00    -0.354 N 
ATOM      2  N   UNL     1      -5.506   0.478  13.430  0.00  0.00    -0.372 N 
ATOM      3  N   UNL     1      -7.278   0.738  14.864  0.00  0.00    -0.372 N 
ATOM      4  C   UNL     1      -6.220   0.023  14.466  0.00  0.00    +0.166 C 
ATOM      5  H   UNL     1      -5.068  -1.629  14.701  0.00  0.00    +0.163 HD
ATOM      6  H   UNL     1      -5.750   1.338  12.957  0.00  0.00    +0.159 HD
ATOM      7  H   UNL     1      -4.685  -0.010  13.093  0.00  0.00    +0.159 HD
ATOM      8  H   UNL     1      -7.862   0.446  15.636  0.00  0.00    +0.159 HD
ATOM      9  H   UNL     1      -7.545   1.595  14.396  0.00  0.00    +0.159 HD
ENDROOT
BRANCH   1  10
ATOM     10  C   UNL     1      -6.541  -1.672  16.240  0.00  0.00    +0.151 C 
BRANCH  10  11
ATOM     11  C   UNL     1      -6.311  -3.158  16.283  0.00  0.00    -0.028 A 
ATOM     12  C   UNL     1      -6.970  -3.952  17.232  0.00  0.00    +0.005 A 
ATOM     13  C   UNL     1      -5.440  -3.777  15.374  0.00  0.00    +0.005 A 
ATOM     14  C   UNL     1      -6.780  -5.336  17.254  0.00  0.00    +0.000 A 
ATOM     15  C   UNL     1      -5.252  -5.159  15.399  0.00  0.00    +0.000 A 
ATOM     16  C   UNL     1      -5.924  -5.939  16.338  0.00  0.00    +0.000 A 
ENDBRANCH  10  11
ENDBRANCH   1  10
TORSDOF 2
ENDMDL
MODEL 8
REMARK VINA RESULT:    -4.529     18.916     20.129
REMARK INTER + INTRA:          -5.193
REMARK INTER:                  -5.087
REMARK INTRA:                  -0.107
REMARK UNBOUND:                -0.134
REMARK  Name = 1550473
REMARK  2 active torsions:
REMARK  status: ('A' for Active; 'I' for Inactive)
REMARK    1  A    between atoms: N_1  and  C_4
REMARK    2  A    between atoms: C_4  and  C_5
REMARK                            x       y       z     vdW  Elec       q    Type
REMARK                         _______ _______ _______ _____ _____    ______ ____
ROOT
ATOM      1  N   UNL     1      -6.363  -0.906  12.783  0.00  0.00    -0.354 N 
ATOM      2  N   UNL     1      -6.090  -0.832  10.485  0.00  0.00    -0.372 N 
ATOM      3  N   UNL     1      -5.098   0.787  11.773  0.00  0.00    -0.372 N 
ATOM      4  C   UNL     1      -5.851  -0.315  11.696  0.00  0.00    +0.166 C 
ATOM      5  H   UNL     1      -6.951  -1.722  12.656  0.00  0.00    +0.163 HD
ATOM      6  H   UNL     1      -5.713  -0.410   9.646  0.00  0.00    +0.159 HD
ATOM      7  H   UNL     1      -6.639  -1.674  10.364  0.00  0.00    +0.159 HD
ATOM      8  H   UNL     1      -4.885   1.230  12.657  0.00  0.00    +0.159 HD
ATOM      9  H   UNL     1      -4.722   1.231  10.944  0.00  0.00    +0.159 HD
ENDROOT
BRANCH   1  10
ATOM     10  C   UNL     1      -6.119  -0.455  14.152  0.00  0.00    +0.151 C 
BRANCH  10  11
ATOM     11  C   UNL     1      -6.353  -1.601  15.097  0.00  0.00    -0.028 A 
ATOM     12  C   UNL     1      -7.406  -1.557  16.022  0.00  0.00    +0.005 A 
ATOM     13  C   UNL     1      -5.529  -2.736  15.068  0.00  0.00    +0.005 A 
ATOM     14  C   UNL     1      -7.642  -2.634  16.880  0.00  0.00    +0.000 A 
ATOM     15  C   UNL     1      -5.768  -3.809  15.926  0.00  0.00    +0.000 A 
ATOM     16  C   UNL     1      -6.826  -3.759  16.830  0.00  0.00    +0.000 A 
ENDBRANCH  10  11
ENDBRANCH   1  10
TORSDOF 2
ENDMDL
MODEL 9
REMARK VINA RESULT:    -4.517     15.822     16.669
REMARK INTER + INTRA:          -5.179
REMARK INTER:                  -4.998
REMARK INTRA:                  -0.182
REMARK UNBOUND:                -0.134
REMARK  Name = 1550473
REMARK  2 active torsions:
REMARK  status: ('A' for Active; 'I' for Inactive)
REMARK    1  A    between atoms: N_1  and  C_4
REMARK    2  A    between atoms: C_4  and  C_5
REMARK                            x       y       z     vdW  Elec       q    Type
REMARK                         _______ _______ _______ _____ _____    ______ ____
ROOT
ATOM      1  N   UNL     1      -5.290  -2.200   1.801  0.00  0.00    -0.354 N 
ATOM      2  N   UNL     1      -6.275  -0.204   1.161  0.00  0.00    -0.372 N 
ATOM      3  N   UNL     1      -6.910  -2.141   0.108  0.00  0.00    -0.372 N 
ATOM      4  C   UNL     1      -6.153  -1.530   1.025  0.00  0.00    +0.166 C 
ATOM      5  H   UNL     1      -4.724  -1.675   2.456  0.00  0.00    +0.163 HD
ATOM      6  H   UNL     1      -6.920   0.329   0.593  0.00  0.00    +0.159 HD
ATOM      7  H   UNL     1      -5.740   0.313   1.849  0.00  0.00    +0.159 HD
ATOM      8  H   UNL     1      -6.861  -3.139  -0.048  0.00  0.00    +0.159 HD
ATOM      9  H   UNL     1      -7.553  -1.624  -0.478  0.00  0.00    +0.159 HD
ENDROOT
BRANCH   1  10
ATOM     10  C   UNL     1      -5.121  -3.652   1.769  0.00  0.00    +0.151 C 
BRANCH  10  11
ATOM     11  C   UNL     1      -5.877  -4.260   2.919  0.00  0.00    -0.028 A 
ATOM     12  C   UNL     1      -5.533  -3.947   4.242  0.00  0.00    +0.005 A 
ATOM     13  C   UNL     1      -6.942  -5.144   2.691  0.00  0.00    +0.005 A 
ATOM     14  C   UNL     1      -6.254  -4.488   5.309  0.00  0.00    +0.000 A 
ATOM     15  C   UNL     1      -7.659  -5.683   3.759  0.00  0.00    +0.000 A 
ATOM     16  C   UNL     1      -7.316  -5.352   5.068  0.00  0.00    +0.000 A 
ENDBRANCH  10  11
ENDBRANCH   1  10
TORSDOF 2
ENDMDL
