MODEL 1
REMARK VINA RESULT:    -4.721      0.000      0.000
REMARK INTER + INTRA:          -5.386
REMARK INTER:                  -5.273
REMARK INTRA:                  -0.113
REMARK UNBOUND:                -0.113
REMARK  Name = 1550473
REMARK  2 active torsions:
REMARK  status: ('A' for Active; 'I' for Inactive)
REMARK    1  A    between atoms: N_1  and  C_4
REMARK    2  A    between atoms: C_4  and  C_5
REMARK                            x       y       z     vdW  Elec       q    Type
REMARK                         _______ _______ _______ _____ _____    ______ ____
ROOT
ATOM      1  N   UNL     1       2.501  -5.726   2.713  0.00  0.00    -0.354 N 
ATOM      2  N   UNL     1       0.233  -5.604   2.256  0.00  0.00    -0.372 N 
ATOM      3  N   UNL     1       1.706  -5.819   0.510  0.00  0.00    -0.372 N 
ATOM      4  C   UNL     1       1.496  -5.717   1.827  0.00  0.00    +0.166 C 
ATOM      5  H   UNL     1       2.277  -5.615   3.695  0.00  0.00    +0.163 HD
ATOM      6  H   UNL     1      -0.546  -5.597   1.612  0.00  0.00    +0.159 HD
ATOM      7  H   UNL     1       0.010  -5.539   3.242  0.00  0.00    +0.159 HD
ATOM      8  H   UNL     1       2.636  -5.901   0.121  0.00  0.00    +0.159 HD
ATOM      9  H   UNL     1       0.940  -5.802  -0.152  0.00  0.00    +0.159 HD
ENDROOT
BRANCH   1  10
ATOM     10  C   UNL     1       3.907  -5.899   2.352  0.00  0.00    +0.151 C 
BRANCH  10  11
ATOM     11  C   UNL     1       4.761  -5.145   3.333  0.00  0.00    -0.028 A 
ATOM     12  C   UNL     1       4.740  -3.743   3.364  0.00  0.00    +0.005 A 
ATOM     13  C   UNL     1       5.591  -5.826   4.237  0.00  0.00    +0.005 A 
ATOM     14  C   UNL     1       5.511  -3.042   4.295  0.00  0.00    +0.000 A 
ATOM     15  C   UNL     1       6.359  -5.123   5.165  0.00  0.00    +0.000 A 
ATOM     16  C   UNL     1       6.317  -3.731   5.195  0.00  0.00    +0.000 A 
ENDBRANCH  10  11
ENDBRANCH   1  10
TORSDOF 2
ENDMDL
MODEL 2
REMARK VINA RESULT:    -4.540     19.046     19.859
REMARK INTER + INTRA:          -5.184
REMARK INTER:                  -5.058
REMARK INTRA:                  -0.126
REMARK UNBOUND:                -0.113
REMARK  Name = 1550473
REMARK  2 active torsions:
REMARK  status: ('A' for Active; 'I' for Inactive)
REMARK    1  A    between atoms: N_1  and  C_4
REMARK    2  A    between atoms: C_4  and  C_5
REMARK                            x       y       z     vdW  Elec       q    Type
REMARK                         _______ _______ _______ _____ _____    ______ ____
ROOT
ATOM      1  N   UNL     1       1.067  -1.965 -15.323  0.00  0.00    -0.354 N 
ATOM      2  N   UNL     1       2.581  -0.258 -14.925  0.00  0.00    -0.372 N 
ATOM      3  N   UNL     1       2.812  -1.524 -16.825  0.00  0.00    -0.372 N 
ATOM      4  C   UNL     1       2.145  -1.261 -15.696  0.00  0.00    +0.166 C 
ATOM      5  H   UNL     1       0.624  -1.736 -14.441  0.00  0.00    +0.163 HD
ATOM      6  H   UNL     1       3.389   0.293 -15.182  0.00  0.00    +0.159 HD
ATOM      7  H   UNL     1       2.108  -0.001 -14.067  0.00  0.00    +0.159 HD
ATOM      8  H   UNL     1       2.537  -2.272 -17.447  0.00  0.00    +0.159 HD
ATOM      9  H   UNL     1       3.630  -0.991 -17.093  0.00  0.00    +0.159 HD
ENDROOT
BRANCH   1  10
ATOM     10  C   UNL     1       0.480  -3.043 -16.117  0.00  0.00    +0.151 C 
BRANCH  10  11
ATOM     11  C   UNL     1      -0.916  -3.311 -15.624  0.00  0.00    -0.028 A 
ATOM     12  C   UNL     1      -1.452  -2.567 -14.564  0.00  0.00    +0.005 A 
ATOM     13  C   UNL     1      -1.709  -4.306 -16.218  0.00  0.00    +0.005 A 
ATOM     14  C   UNL     1      -2.758  -2.795 -14.125  0.00  0.00    +0.000 A 
ATOM     15  C   UNL     1      -3.012  -4.532 -15.776  0.00  0.00    +0.000 A 
ATOM     16  C   UNL     1      -3.538  -3.775 -14.732  0.00  0.00    +0.000 A 
ENDBRANCH  10  11
ENDBRANCH   1  10
TORSDOF 2
ENDMDL
MODEL 3
REMARK VINA RESULT:    -4.461     14.050     14.985
REMARK INTER + INTRA:          -5.096
REMARK INTER:                  -4.921
REMARK INTRA:                  -0.175
REMARK UNBOUND:                -0.113
REMARK  Name = 1550473
REMARK  2 active torsions:
REMARK  status: ('A' for Active; 'I' for Inactive)
REMARK    1  A    between atoms: N_1  and  C_4
REMARK    2  A    between atoms: C_4  and  C_5
REMARK                            x       y       z     vdW  Elec       q    Type
REMARK                         _______ _______ _______ _____ _____    ______ ____
ROOT
ATOM      1  N   UNL     1      -4.496   8.029   0.746  0.00  0.00    -0.354 N 
ATOM      2  N   UNL     1      -5.959   6.499   1.685  0.00  0.00    -0.372 N 
ATOM      3  N   UNL     1      -4.065   5.728   0.644  0.00  0.00    -0.372 N 
ATOM      4  C   UNL     1      -4.829   6.760   1.018  0.00  0.00    +0.166 C 
ATOM      5  H   UNL     1      -5.133   8.765   1.029  0.00  0.00    +0.163 HD
ATOM      6  H   UNL     1      -6.235   5.552   1.907  0.00  0.00    +0.159 HD
ATOM      7  H   UNL     1      -6.571   7.239   2.007  0.00  0.00    +0.159 HD
ATOM      8  H   UNL     1      -3.202   5.857   0.133  0.00  0.00    +0.159 HD
ATOM      9  H   UNL     1      -4.330   4.772   0.848  0.00  0.00    +0.159 HD
ENDROOT
BRANCH   1  10
ATOM     10  C   UNL     1      -3.261   8.424   0.072  0.00  0.00    +0.151 C 
BRANCH  10  11
ATOM     11  C   UNL     1      -2.235   8.797   1.106  0.00  0.00    -0.028 A 
ATOM     12  C   UNL     1      -2.560   9.681   2.146  0.00  0.00    +0.005 A 
ATOM     13  C   UNL     1      -0.937   8.266   1.056  0.00  0.00    +0.005 A 
ATOM     14  C   UNL     1      -1.617  10.004   3.124  0.00  0.00    +0.000 A 
ATOM     15  C   UNL     1       0.002   8.592   2.034  0.00  0.00    +0.000 A 
ATOM     16  C   UNL     1      -0.339   9.459   3.069  0.00  0.00    +0.000 A 
ENDBRANCH  10  11
ENDBRANCH   1  10
TORSDOF 2
ENDMDL
MODEL 4
REMARK VINA RESULT:    -4.387     14.728     15.897
REMARK INTER + INTRA:          -5.013
REMARK INTER:                  -4.873
REMARK INTRA:                  -0.140
REMARK UNBOUND:                -0.113
REMARK  Name = 1550473
REMARK  2 active torsions:
REMARK  status: ('A' for Active; 'I' for Inactive)
REMARK    1  A    between atoms: N_1  and  C_4
REMARK    2  A    between atoms: C_4  and  C_5
REMARK                            x       y       z     vdW  Elec       q    Type
REMARK                         _______ _______ _______ _____ _____    ______ ____
ROOT
ATOM      1  N   UNL     1      -1.087   8.843   0.944  0.00  0.00    -0.354 N 
ATOM      2  N   UNL     1       0.985   8.222   1.772  0.00  0.00    -0.372 N 
ATOM      3  N   UNL     1      -0.124   9.972   2.758  0.00  0.00    -0.372 N 
ATOM      4  C   UNL     1      -0.090   9.019   1.821  0.00  0.00    +0.166 C 
ATOM      5  H   UNL     1      -0.986   8.122   0.239  0.00  0.00    +0.163 HD
ATOM      6  H   UNL     1       1.751   8.328   2.423  0.00  0.00    +0.159 HD
ATOM      7  H   UNL     1       1.062   7.472   1.096  0.00  0.00    +0.159 HD
ATOM      8  H   UNL     1      -0.904  10.610   2.844  0.00  0.00    +0.159 HD
ATOM      9  H   UNL     1       0.639  10.102   3.411  0.00  0.00    +0.159 HD
ENDROOT
BRANCH   1  10
ATOM     10  C   UNL     1      -2.324   9.622   0.945  0.00  0.00    +0.151 C 
BRANCH  10  11
ATOM     11  C   UNL     1      -3.489   8.694   1.151  0.00  0.00    -0.028 A 
ATOM     12  C   UNL     1      -3.589   7.503   0.417  0.00  0.00    +0.005 A 
ATOM     13  C   UNL     1      -4.493   8.996   2.083  0.00  0.00    +0.005 A 
ATOM     14  C   UNL     1      -4.655   6.625   0.629  0.00  0.00    +0.000 A 
ATOM     15  C   UNL     1      -5.557   8.118   2.292  0.00  0.00    +0.000 A 
ATOM     16  C   UNL     1      -5.636   6.932   1.566  0.00  0.00    +0.000 A 
ENDBRANCH  10  11
ENDBRANCH   1  10
TORSDOF 2
ENDMDL
MODEL 5
REMARK VINA RESULT:    -4.383      9.898     12.052
REMARK INTER + INTRA:          -5.009
REMARK INTER:                  -4.842
REMARK INTRA:                  -0.167
REMARK UNBOUND:                -0.113
REMARK  Name = 1550473
REMARK  2 active torsions:
REMARK  status: ('A' for Active; 'I' for Inactive)
REMARK    1  A    between atoms: N_1  and  C_4
REMARK    2  A    between atoms: C_4  and  C_5
REMARK                            x       y       z     vdW  Elec       q    Type
REMARK                         _______ _______ _______ _____ _____    ______ ____
ROOT
ATOM      1  N   UNL     1       4.743  -7.774  -5.794  0.00  0.00    -0.354 N 
ATOM      2  N   UNL     1       6.898  -7.027  -5.390  0.00  0.00    -0.372 N 
ATOM      3  N   UNL     1       6.596  -9.140  -6.232  0.00  0.00    -0.372 N 
ATOM      4  C   UNL     1       6.065  -7.988  -5.809  0.00  0.00    +0.166 C 
ATOM      5  H   UNL     1       4.402  -6.890  -5.433  0.00  0.00    +0.163 HD
ATOM      6  H   UNL     1       7.900  -7.159  -5.392  0.00  0.00    +0.159 HD
ATOM      7  H   UNL     1       6.557  -6.128  -5.073  0.00  0.00    +0.159 HD
ATOM      8  H   UNL     1       6.022  -9.907  -6.555  0.00  0.00    +0.159 HD
ATOM      9  H   UNL     1       7.596  -9.295  -6.231  0.00  0.00    +0.159 HD
ENDROOT
BRANCH   1  10
ATOM     10  C   UNL     1       3.754  -8.735  -6.279  0.00  0.00    +0.151 C 
BRANCH  10  11
ATOM     11  C   UNL     1       3.187  -8.240  -7.581  0.00  0.00    -0.028 A 
ATOM     12  C   UNL     1       2.440  -7.054  -7.628  0.00  0.00    +0.005 A 
ATOM     13  C   UNL     1       3.397  -8.951  -8.773  0.00  0.00    +0.005 A 
ATOM     14  C   UNL     1       1.938  -6.579  -8.842  0.00  0.00    +0.000 A 
ATOM     15  C   UNL     1       2.894  -8.473  -9.983  0.00  0.00    +0.000 A 
ATOM     16  C   UNL     1       2.167  -7.286 -10.018  0.00  0.00    +0.000 A 
ENDBRANCH  10  11
ENDBRANCH   1  10
TORSDOF 2
ENDMDL
MODEL 6
REMARK VINA RESULT:    -4.327      9.726     10.937
REMARK INTER + INTRA:          -4.946
REMARK INTER:                  -4.800
REMARK INTRA:                  -0.145
REMARK UNBOUND:                -0.113
REMARK  Name = 1550473
REMARK  2 active torsions:
REMARK  status: ('A' for Active; 'I' for Inactive)
REMARK    1  A    between atoms: N_1  and  C_4
REMARK    2  A    between atoms: C_4  and  C_5
REMARK                            x       y       z     vdW  Elec       q    Type
REMARK                         _______ _______ _______ _____ _____    ______ ____
ROOT
ATOM      1  N   UNL     1       3.018  -7.631  -7.381  0.00  0.00    -0.354 N 
ATOM      2  N   UNL     1       2.066  -6.196  -8.929  0.00  0.00    -0.372 N 
ATOM      3  N   UNL     1       2.727  -8.285  -9.612  0.00  0.00    -0.372 N 
ATOM      4  C   UNL     1       2.611  -7.382  -8.632  0.00  0.00    +0.166 C 
ATOM      5  H   UNL     1       2.930  -6.895  -6.690  0.00  0.00    +0.163 HD
ATOM      6  H   UNL     1       1.747  -5.981  -9.864  0.00  0.00    +0.159 HD
ATOM      7  H   UNL     1       1.937  -5.478  -8.227  0.00  0.00    +0.159 HD
ATOM      8  H   UNL     1       3.135  -9.196  -9.455  0.00  0.00    +0.159 HD
ATOM      9  H   UNL     1       2.424  -8.083 -10.557  0.00  0.00    +0.159 HD
ENDROOT
BRANCH   1  10
ATOM     10  C   UNL     1       3.575  -8.910  -6.941  0.00  0.00    +0.151 C 
BRANCH  10  11
ATOM     11  C   UNL     1       4.988  -8.695  -6.473  0.00  0.00    -0.028 A 
ATOM     12  C   UNL     1       5.993  -9.619  -6.796  0.00  0.00    +0.005 A 
ATOM     13  C   UNL     1       5.329  -7.567  -5.711  0.00  0.00    +0.005 A 
ATOM     14  C   UNL     1       7.311  -9.405  -6.387  0.00  0.00    +0.000 A 
ATOM     15  C   UNL     1       6.647  -7.357  -5.304  0.00  0.00    +0.000 A 
ATOM     16  C   UNL     1       7.638  -8.275  -5.644  0.00  0.00    +0.000 A 
ENDBRANCH  10  11
ENDBRANCH   1  10
TORSDOF 2
ENDMDL
MODEL 7
REMARK VINA RESULT:    -4.301      8.846     10.254
REMARK INTER + INTRA:          -4.917
REMARK INTER:                  -4.763
REMARK INTRA:                  -0.154
REMARK UNBOUND:                -0.113
REMARK  Name = 1550473
REMARK  2 active torsions:
REMARK  status: ('A' for Active; 'I' for Inactive)
REMARK    1  A    between atoms: N_1  and  C_4
REMARK    2  A    between atoms: C_4  and  C_5
REMARK                            x       y       z     vdW  Elec       q    Type
REMARK                         _______ _______ _______ _____ _____    ______ ____
ROOT
ATOM      1  N   UNL     1       7.989  -8.987  -4.883  0.00  0.00    -0.354 N 
ATOM      2  N   UNL     1       9.187 -10.954  -5.123  0.00  0.00    -0.372 N 
ATOM      3  N   UNL     1       8.362  -9.922  -6.999  0.00  0.00    -0.372 N 
ATOM      4  C   UNL     1       8.504  -9.941  -5.670  0.00  0.00    +0.166 C 
ATOM      5  H   UNL     1       8.106  -9.075  -3.880  0.00  0.00    +0.163 HD
ATOM      6  H   UNL     1       9.590 -11.687  -5.692  0.00  0.00    +0.159 HD
ATOM      7  H   UNL     1       9.342 -11.015  -4.124  0.00  0.00    +0.159 HD
ATOM      8  H   UNL     1       7.852  -9.189  -7.473  0.00  0.00    +0.159 HD
ATOM      9  H   UNL     1       8.748 -10.653  -7.584  0.00  0.00    +0.159 HD
ENDROOT
BRANCH   1  10
ATOM     10  C   UNL     1       7.274  -7.814  -5.382  0.00  0.00    +0.151 C 
BRANCH  10  11
ATOM     11  C   UNL     1       5.826  -7.917  -4.991  0.00  0.00    -0.028 A 
ATOM     12  C   UNL     1       4.819  -7.491  -5.869  0.00  0.00    +0.005 A 
ATOM     13  C   UNL     1       5.454  -8.445  -3.745  0.00  0.00    +0.005 A 
ATOM     14  C   UNL     1       3.472  -7.615  -5.518  0.00  0.00    +0.000 A 
ATOM     15  C   UNL     1       4.109  -8.565  -3.398  0.00  0.00    +0.000 A 
ATOM     16  C   UNL     1       3.118  -8.153  -4.285  0.00  0.00    +0.000 A 
ENDBRANCH  10  11
ENDBRANCH   1  10
TORSDOF 2
ENDMDL
MODEL 8
REMARK VINA RESULT:    -4.283      6.435      8.039
REMARK INTER + INTRA:          -4.897
REMARK INTER:                  -4.737
REMARK INTRA:                  -0.160
REMARK UNBOUND:                -0.113
REMARK  Name = 1550473
REMARK  2 active torsions:
REMARK  status: ('A' for Active; 'I' for Inactive)
REMARK    1  A    between atoms: N_1  and  C_4
REMARK    2  A    between atoms: C_4  and  C_5
REMARK                            x       y       z     vdW  Elec       q    Type
REMARK                         _______ _______ _______ _____ _____    ______ ____
ROOT
ATOM      1  N   UNL     1       5.750  -8.312  -0.898  0.00  0.00    -0.354 N 
ATOM      2  N   UNL     1       4.916  -6.933   0.765  0.00  0.00    -0.372 N 
ATOM      3  N   UNL     1       7.086  -6.651   0.075  0.00  0.00    -0.372 N 
ATOM      4  C   UNL     1       5.926  -7.307  -0.030  0.00  0.00    +0.166 C 
ATOM      5  H   UNL     1       4.855  -8.789  -0.908  0.00  0.00    +0.163 HD
ATOM      6  H   UNL     1       5.018  -6.176   1.427  0.00  0.00    +0.159 HD
ATOM      7  H   UNL     1       4.009  -7.381   0.721  0.00  0.00    +0.159 HD
ATOM      8  H   UNL     1       7.889  -6.889  -0.493  0.00  0.00    +0.159 HD
ATOM      9  H   UNL     1       7.211  -5.898   0.740  0.00  0.00    +0.159 HD
ENDROOT
BRANCH   1  10
ATOM     10  C   UNL     1       6.768  -8.762  -1.846  0.00  0.00    +0.151 C 
BRANCH  10  11
ATOM     11  C   UNL     1       6.381  -8.317  -3.230  0.00  0.00    -0.028 A 
ATOM     12  C   UNL     1       5.045  -8.379  -3.650  0.00  0.00    +0.005 A 
ATOM     13  C   UNL     1       7.346  -7.827  -4.123  0.00  0.00    +0.005 A 
ATOM     14  C   UNL     1       4.681  -7.937  -4.925  0.00  0.00    +0.000 A 
ATOM     15  C   UNL     1       6.979  -7.388  -5.395  0.00  0.00    +0.000 A 
ATOM     16  C   UNL     1       5.646  -7.441  -5.794  0.00  0.00    +0.000 A 
ENDBRANCH  10  11
ENDBRANCH   1  10
TORSDOF 2
ENDMDL
MODEL 9
REMARK VINA RESULT:    -4.196     10.801     12.220
REMARK INTER + INTRA:          -4.800
REMARK INTER:                  -4.674
REMARK INTRA:                  -0.125
REMARK UNBOUND:                -0.113
REMARK  Name = 1550473
REMARK  2 active torsions:
REMARK  status: ('A' for Active; 'I' for Inactive)
REMARK    1  A    between atoms: N_1  and  C_4
REMARK    2  A    between atoms: C_4  and  C_5
REMARK                            x       y       z     vdW  Elec       q    Type
REMARK                         _______ _______ _______ _____ _____    ______ ____
ROOT
ATOM      1  N   UNL     1       9.061 -10.991  -6.797  0.00  0.00    -0.354 N 
ATOM      2  N   UNL     1      10.935 -12.270  -6.331  0.00  0.00    -0.372 N 
ATOM      3  N   UNL     1       9.140 -13.266  -7.355  0.00  0.00    -0.372 N 
ATOM      4  C   UNL     1       9.698 -12.169  -6.832  0.00  0.00    +0.166 C 
ATOM      5  H   UNL     1       9.527 -10.205  -6.360  0.00  0.00    +0.163 HD
ATOM      6  H   UNL     1      11.442 -13.145  -6.346  0.00  0.00    +0.159 HD
ATOM      7  H   UNL     1      11.416 -11.471  -5.935  0.00  0.00    +0.159 HD
ATOM      8  H   UNL     1       8.206 -13.258  -7.744  0.00  0.00    +0.159 HD
ATOM      9  H   UNL     1       9.627 -14.154  -7.369  0.00  0.00    +0.159 HD
ENDROOT
BRANCH   1  10
ATOM     10  C   UNL     1       7.733 -10.763  -7.364  0.00  0.00    +0.151 C 
BRANCH  10  11
ATOM     11  C   UNL     1       7.094  -9.596  -6.663  0.00  0.00    -0.028 A 
ATOM     12  C   UNL     1       7.865  -8.730  -5.874  0.00  0.00    +0.005 A 
ATOM     13  C   UNL     1       5.718  -9.349  -6.788  0.00  0.00    +0.005 A 
ATOM     14  C   UNL     1       7.276  -7.629  -5.247  0.00  0.00    +0.000 A 
ATOM     15  C   UNL     1       5.134  -8.249  -6.159  0.00  0.00    +0.000 A 
ATOM     16  C   UNL     1       5.914  -7.388  -5.391  0.00  0.00    +0.000 A 
ENDBRANCH  10  11
ENDBRANCH   1  10
TORSDOF 2
ENDMDL
