MODEL 1
REMARK VINA RESULT:    -5.652      0.000      0.000
REMARK INTER + INTRA:          -6.314
REMARK INTER:                  -6.313
REMARK INTRA:                  -0.001
REMARK UNBOUND:                -0.001
REMARK  Name = 1550473
REMARK  2 active torsions:
REMARK  status: ('A' for Active; 'I' for Inactive)
REMARK    1  A    between atoms: N_1  and  C_4
REMARK    2  A    between atoms: C_4  and  C_5
REMARK                            x       y       z     vdW  Elec       q    Type
REMARK                         _______ _______ _______ _____ _____    ______ ____
ROOT
ATOM      1  N   UNL     1       5.543   0.240 -10.106  0.00  0.00    -0.354 N 
ATOM      2  N   UNL     1       5.747   2.350  -9.173  0.00  0.00    -0.372 N 
ATOM      3  N   UNL     1       4.016   1.002  -8.500  0.00  0.00    -0.372 N 
ATOM      4  C   UNL     1       5.098   1.183  -9.265  0.00  0.00    +0.166 C 
ATOM      5  H   UNL     1       6.351   0.450 -10.680  0.00  0.00    +0.163 HD
ATOM      6  H   UNL     1       5.437   3.079  -8.544  0.00  0.00    +0.159 HD
ATOM      7  H   UNL     1       6.582   2.539  -9.714  0.00  0.00    +0.159 HD
ATOM      8  H   UNL     1       3.478   0.147  -8.527  0.00  0.00    +0.159 HD
ATOM      9  H   UNL     1       3.683   1.725  -7.873  0.00  0.00    +0.159 HD
ENDROOT
BRANCH   1  10
ATOM     10  C   UNL     1       4.940  -1.085 -10.242  0.00  0.00    +0.151 C 
BRANCH  10  11
ATOM     11  C   UNL     1       4.109  -1.120 -11.495  0.00  0.00    -0.028 A 
ATOM     12  C   UNL     1       4.118  -2.251 -12.324  0.00  0.00    +0.005 A 
ATOM     13  C   UNL     1       3.306  -0.027 -11.856  0.00  0.00    +0.005 A 
ATOM     14  C   UNL     1       3.323  -2.296 -13.472  0.00  0.00    +0.000 A 
ATOM     15  C   UNL     1       2.514  -0.076 -13.003  0.00  0.00    +0.000 A 
ATOM     16  C   UNL     1       2.521  -1.211 -13.810  0.00  0.00    +0.000 A 
ENDBRANCH  10  11
ENDBRANCH   1  10
TORSDOF 2
ENDMDL
MODEL 2
REMARK VINA RESULT:    -5.388     30.503     31.573
REMARK INTER + INTRA:          -6.019
REMARK INTER:                  -5.911
REMARK INTRA:                  -0.108
REMARK UNBOUND:                -0.001
REMARK  Name = 1550473
REMARK  2 active torsions:
REMARK  status: ('A' for Active; 'I' for Inactive)
REMARK    1  A    between atoms: N_1  and  C_4
REMARK    2  A    between atoms: C_4  and  C_5
REMARK                            x       y       z     vdW  Elec       q    Type
REMARK                         _______ _______ _______ _____ _____    ______ ____
ROOT
ATOM      1  N   UNL     1      -5.050 -14.529  13.629  0.00  0.00    -0.354 N 
ATOM      2  N   UNL     1      -2.787 -14.905  13.312  0.00  0.00    -0.372 N 
ATOM      3  N   UNL     1      -3.483 -12.822  13.976  0.00  0.00    -0.372 N 
ATOM      4  C   UNL     1      -3.788 -14.080  13.642  0.00  0.00    +0.166 C 
ATOM      5  H   UNL     1      -5.218 -15.485  13.336  0.00  0.00    +0.163 HD
ATOM      6  H   UNL     1      -1.824 -14.596  13.316  0.00  0.00    +0.159 HD
ATOM      7  H   UNL     1      -2.954 -15.873  13.065  0.00  0.00    +0.159 HD
ATOM      8  H   UNL     1      -4.193 -12.148  14.229  0.00  0.00    +0.159 HD
ATOM      9  H   UNL     1      -2.526 -12.490  13.975  0.00  0.00    +0.159 HD
ENDROOT
BRANCH   1  10
ATOM     10  C   UNL     1      -6.207 -13.727  14.022  0.00  0.00    +0.151 C 
BRANCH  10  11
ATOM     11  C   UNL     1      -7.214 -14.617  14.699  0.00  0.00    -0.028 A 
ATOM     12  C   UNL     1      -7.688 -15.771  14.059  0.00  0.00    +0.005 A 
ATOM     13  C   UNL     1      -7.693 -14.313  15.983  0.00  0.00    +0.005 A 
ATOM     14  C   UNL     1      -8.600 -16.613  14.699  0.00  0.00    +0.000 A 
ATOM     15  C   UNL     1      -8.604 -15.156  16.618  0.00  0.00    +0.000 A 
ATOM     16  C   UNL     1      -9.056 -16.307  15.977  0.00  0.00    +0.000 A 
ENDBRANCH  10  11
ENDBRANCH   1  10
TORSDOF 2
ENDMDL
MODEL 3
REMARK VINA RESULT:    -5.377     10.264     10.785
REMARK INTER + INTRA:          -6.007
REMARK INTER:                  -5.871
REMARK INTRA:                  -0.136
REMARK UNBOUND:                -0.001
REMARK  Name = 1550473
REMARK  2 active torsions:
REMARK  status: ('A' for Active; 'I' for Inactive)
REMARK    1  A    between atoms: N_1  and  C_4
REMARK    2  A    between atoms: C_4  and  C_5
REMARK                            x       y       z     vdW  Elec       q    Type
REMARK                         _______ _______ _______ _____ _____    ______ ____
ROOT
ATOM      1  N   UNL     1       2.261  10.584 -11.526  0.00  0.00    -0.354 N 
ATOM      2  N   UNL     1       3.391  11.128  -9.579  0.00  0.00    -0.372 N 
ATOM      3  N   UNL     1       2.208   9.163  -9.663  0.00  0.00    -0.372 N 
ATOM      4  C   UNL     1       2.611  10.286 -10.268  0.00  0.00    +0.166 C 
ATOM      5  H   UNL     1       2.574  11.465 -11.917  0.00  0.00    +0.163 HD
ATOM      6  H   UNL     1       3.674  10.928  -8.629  0.00  0.00    +0.159 HD
ATOM      7  H   UNL     1       3.740  11.986  -9.988  0.00  0.00    +0.159 HD
ATOM      8  H   UNL     1       1.613   8.489 -10.127  0.00  0.00    +0.159 HD
ATOM      9  H   UNL     1       2.471   8.951  -8.709  0.00  0.00    +0.159 HD
ENDROOT
BRANCH   1  10
ATOM     10  C   UNL     1       1.460   9.710 -12.381  0.00  0.00    +0.151 C 
BRANCH  10  11
ATOM     11  C   UNL     1       1.992   9.774 -13.786  0.00  0.00    -0.028 A 
ATOM     12  C   UNL     1       3.242  10.354 -14.048  0.00  0.00    +0.005 A 
ATOM     13  C   UNL     1       1.254   9.252 -14.859  0.00  0.00    +0.005 A 
ATOM     14  C   UNL     1       3.750  10.388 -15.349  0.00  0.00    +0.000 A 
ATOM     15  C   UNL     1       1.765   9.288 -16.157  0.00  0.00    +0.000 A 
ATOM     16  C   UNL     1       3.014   9.854 -16.401  0.00  0.00    +0.000 A 
ENDBRANCH  10  11
ENDBRANCH   1  10
TORSDOF 2
ENDMDL
MODEL 4
REMARK VINA RESULT:    -5.324     24.573     25.398
REMARK INTER + INTRA:          -5.947
REMARK INTER:                  -5.821
REMARK INTRA:                  -0.126
REMARK UNBOUND:                -0.001
REMARK  Name = 1550473
REMARK  2 active torsions:
REMARK  status: ('A' for Active; 'I' for Inactive)
REMARK    1  A    between atoms: N_1  and  C_4
REMARK    2  A    between atoms: C_4  and  C_5
REMARK                            x       y       z     vdW  Elec       q    Type
REMARK                         _______ _______ _______ _____ _____    ______ ____
ROOT
ATOM      1  N   UNL     1      -4.431 -15.296   7.723  0.00  0.00    -0.354 N 
ATOM      2  N   UNL     1      -3.232 -15.774   9.646  0.00  0.00    -0.372 N 
ATOM      3  N   UNL     1      -2.092 -15.442   7.683  0.00  0.00    -0.372 N 
ATOM      4  C   UNL     1      -3.258 -15.501   8.336  0.00  0.00    +0.166 C 
ATOM      5  H   UNL     1      -5.281 -15.385   8.268  0.00  0.00    +0.163 HD
ATOM      6  H   UNL     1      -2.362 -15.930  10.137  0.00  0.00    +0.159 HD
ATOM      7  H   UNL     1      -4.081 -15.816  10.198  0.00  0.00    +0.159 HD
ATOM      8  H   UNL     1      -2.043 -15.247   6.692  0.00  0.00    +0.159 HD
ATOM      9  H   UNL     1      -1.211 -15.607   8.154  0.00  0.00    +0.159 HD
ENDROOT
BRANCH   1  10
ATOM     10  C   UNL     1      -4.564 -14.940   6.311  0.00  0.00    +0.151 C 
BRANCH  10  11
ATOM     11  C   UNL     1      -5.969 -15.232   5.862  0.00  0.00    -0.028 A 
ATOM     12  C   UNL     1      -6.374 -14.933   4.553  0.00  0.00    +0.005 A 
ATOM     13  C   UNL     1      -6.898 -15.814   6.738  0.00  0.00    +0.005 A 
ATOM     14  C   UNL     1      -7.670 -15.232   4.125  0.00  0.00    +0.000 A 
ATOM     15  C   UNL     1      -8.191 -16.110   6.308  0.00  0.00    +0.000 A 
ATOM     16  C   UNL     1      -8.576 -15.822   5.001  0.00  0.00    +0.000 A 
ENDBRANCH  10  11
ENDBRANCH   1  10
TORSDOF 2
ENDMDL
MODEL 5
REMARK VINA RESULT:    -5.306     24.398     25.201
REMARK INTER + INTRA:          -5.928
REMARK INTER:                  -5.771
REMARK INTRA:                  -0.157
REMARK UNBOUND:                -0.001
REMARK  Name = 1550473
REMARK  2 active torsions:
REMARK  status: ('A' for Active; 'I' for Inactive)
REMARK    1  A    between atoms: N_1  and  C_4
REMARK    2  A    between atoms: C_4  and  C_5
REMARK                            x       y       z     vdW  Elec       q    Type
REMARK                         _______ _______ _______ _____ _____    ______ ____
ROOT
ATOM      1  N   UNL     1      -4.219 -16.482   6.931  0.00  0.00    -0.354 N 
ATOM      2  N   UNL     1      -2.045 -16.955   6.289  0.00  0.00    -0.372 N 
ATOM      3  N   UNL     1      -2.667 -14.764   6.568  0.00  0.00    -0.372 N 
ATOM      4  C   UNL     1      -2.991 -16.061   6.600  0.00  0.00    +0.166 C 
ATOM      5  H   UNL     1      -4.410 -17.477   6.908  0.00  0.00    +0.163 HD
ATOM      6  H   UNL     1      -1.108 -16.668   6.038  0.00  0.00    +0.159 HD
ATOM      7  H   UNL     1      -2.225 -17.951   6.311  0.00  0.00    +0.159 HD
ATOM      8  H   UNL     1      -3.337 -14.039   6.786  0.00  0.00    +0.159 HD
ATOM      9  H   UNL     1      -1.738 -14.456   6.308  0.00  0.00    +0.159 HD
ENDROOT
BRANCH   1  10
ATOM     10  C   UNL     1      -5.306 -15.593   7.339  0.00  0.00    +0.151 C 
BRANCH  10  11
ATOM     11  C   UNL     1      -6.379 -15.615   6.286  0.00  0.00    -0.028 A 
ATOM     12  C   UNL     1      -7.629 -16.190   6.555  0.00  0.00    +0.005 A 
ATOM     13  C   UNL     1      -6.154 -15.056   5.018  0.00  0.00    +0.005 A 
ATOM     14  C   UNL     1      -8.637 -16.184   5.587  0.00  0.00    +0.000 A 
ATOM     15  C   UNL     1      -7.162 -15.053   4.054  0.00  0.00    +0.000 A 
ATOM     16  C   UNL     1      -8.404 -15.614   4.340  0.00  0.00    +0.000 A 
ENDBRANCH  10  11
ENDBRANCH   1  10
TORSDOF 2
ENDMDL
MODEL 6
REMARK VINA RESULT:    -5.206      8.474      9.399
REMARK INTER + INTRA:          -5.817
REMARK INTER:                  -5.714
REMARK INTRA:                  -0.103
REMARK UNBOUND:                -0.001
REMARK  Name = 1550473
REMARK  2 active torsions:
REMARK  status: ('A' for Active; 'I' for Inactive)
REMARK    1  A    between atoms: N_1  and  C_4
REMARK    2  A    between atoms: C_4  and  C_5
REMARK                            x       y       z     vdW  Elec       q    Type
REMARK                         _______ _______ _______ _____ _____    ______ ____
ROOT
ATOM      1  N   UNL     1       1.972   8.570  -9.770  0.00  0.00    -0.354 N 
ATOM      2  N   UNL     1       3.000   9.221  -7.799  0.00  0.00    -0.372 N 
ATOM      3  N   UNL     1       0.729   8.897  -7.810  0.00  0.00    -0.372 N 
ATOM      4  C   UNL     1       1.891   8.892  -8.472  0.00  0.00    +0.166 C 
ATOM      5  H   UNL     1       2.878   8.615 -10.221  0.00  0.00    +0.163 HD
ATOM      6  H   UNL     1       2.971   9.465  -6.818  0.00  0.00    +0.159 HD
ATOM      7  H   UNL     1       3.911   9.220  -8.241  0.00  0.00    +0.159 HD
ATOM      8  H   UNL     1      -0.146   8.665  -8.262  0.00  0.00    +0.159 HD
ATOM      9  H   UNL     1       0.677   9.150  -6.831  0.00  0.00    +0.159 HD
ENDROOT
BRANCH   1  10
ATOM     10  C   UNL     1       0.831   8.146 -10.580  0.00  0.00    +0.151 C 
BRANCH  10  11
ATOM     11  C   UNL     1       1.202   8.231 -12.034  0.00  0.00    -0.028 A 
ATOM     12  C   UNL     1       1.464   9.474 -12.631  0.00  0.00    +0.005 A 
ATOM     13  C   UNL     1       1.301   7.073 -12.820  0.00  0.00    +0.005 A 
ATOM     14  C   UNL     1       1.838   9.551 -13.974  0.00  0.00    +0.000 A 
ATOM     15  C   UNL     1       1.674   7.155 -14.162  0.00  0.00    +0.000 A 
ATOM     16  C   UNL     1       1.945   8.393 -14.738  0.00  0.00    +0.000 A 
ENDBRANCH  10  11
ENDBRANCH   1  10
TORSDOF 2
ENDMDL
MODEL 7
REMARK VINA RESULT:    -5.199     25.382     27.131
REMARK INTER + INTRA:          -5.808
REMARK INTER:                  -5.634
REMARK INTRA:                  -0.174
REMARK UNBOUND:                -0.001
REMARK  Name = 1550473
REMARK  2 active torsions:
REMARK  status: ('A' for Active; 'I' for Inactive)
REMARK    1  A    between atoms: N_1  and  C_4
REMARK    2  A    between atoms: C_4  and  C_5
REMARK                            x       y       z     vdW  Elec       q    Type
REMARK                         _______ _______ _______ _____ _____    ______ ____
ROOT
ATOM      1  N   UNL     1       6.395  -7.494  16.423  0.00  0.00    -0.354 N 
ATOM      2  N   UNL     1       4.789  -6.732  17.908  0.00  0.00    -0.372 N 
ATOM      3  N   UNL     1       6.809  -5.649  17.808  0.00  0.00    -0.372 N 
ATOM      4  C   UNL     1       6.011  -6.628  17.371  0.00  0.00    +0.166 C 
ATOM      5  H   UNL     1       5.754  -8.232  16.157  0.00  0.00    +0.163 HD
ATOM      6  H   UNL     1       4.470  -6.092  18.622  0.00  0.00    +0.159 HD
ATOM      7  H   UNL     1       4.133  -7.443  17.607  0.00  0.00    +0.159 HD
ATOM      8  H   UNL     1       7.745  -5.520  17.447  0.00  0.00    +0.159 HD
ATOM      9  H   UNL     1       6.512  -5.005  18.531  0.00  0.00    +0.159 HD
ENDROOT
BRANCH   1  10
ATOM     10  C   UNL     1       7.684  -7.434  15.736  0.00  0.00    +0.151 C 
BRANCH  10  11
ATOM     11  C   UNL     1       7.512  -6.704  14.433  0.00  0.00    -0.028 A 
ATOM     12  C   UNL     1       7.863  -5.351  14.323  0.00  0.00    +0.005 A 
ATOM     13  C   UNL     1       7.005  -7.362  13.302  0.00  0.00    +0.005 A 
ATOM     14  C   UNL     1       7.732  -4.680  13.105  0.00  0.00    +0.000 A 
ATOM     15  C   UNL     1       6.875  -6.689  12.087  0.00  0.00    +0.000 A 
ATOM     16  C   UNL     1       7.241  -5.349  11.988  0.00  0.00    +0.000 A 
ENDBRANCH  10  11
ENDBRANCH   1  10
TORSDOF 2
ENDMDL
MODEL 8
REMARK VINA RESULT:    -5.102      8.652      9.703
REMARK INTER + INTRA:          -5.700
REMARK INTER:                  -5.568
REMARK INTRA:                  -0.132
REMARK UNBOUND:                -0.001
REMARK  Name = 1550473
REMARK  2 active torsions:
REMARK  status: ('A' for Active; 'I' for Inactive)
REMARK    1  A    between atoms: N_1  and  C_4
REMARK    2  A    between atoms: C_4  and  C_5
REMARK                            x       y       z     vdW  Elec       q    Type
REMARK                         _______ _______ _______ _____ _____    ______ ____
ROOT
ATOM      1  N   UNL     1       1.848   8.933 -10.450  0.00  0.00    -0.354 N 
ATOM      2  N   UNL     1       3.212   9.357  -8.628  0.00  0.00    -0.372 N 
ATOM      3  N   UNL     1       2.192  11.120  -9.684  0.00  0.00    -0.372 N 
ATOM      4  C   UNL     1       2.408   9.803  -9.600  0.00  0.00    +0.166 C 
ATOM      5  H   UNL     1       2.075   7.950 -10.352  0.00  0.00    +0.163 HD
ATOM      6  H   UNL     1       3.646   9.990  -7.969  0.00  0.00    +0.159 HD
ATOM      7  H   UNL     1       3.401   8.370  -8.504  0.00  0.00    +0.159 HD
ATOM      8  H   UNL     1       1.600  11.522 -10.399  0.00  0.00    +0.159 HD
ATOM      9  H   UNL     1       2.627  11.771  -9.041  0.00  0.00    +0.159 HD
ENDROOT
BRANCH   1  10
ATOM     10  C   UNL     1       0.914   9.310 -11.510  0.00  0.00    +0.151 C 
BRANCH  10  11
ATOM     11  C   UNL     1       1.444   8.818 -12.829  0.00  0.00    -0.028 A 
ATOM     12  C   UNL     1       1.412   7.452 -13.144  0.00  0.00    +0.005 A 
ATOM     13  C   UNL     1       1.973   9.714 -13.771  0.00  0.00    +0.005 A 
ATOM     14  C   UNL     1       1.876   6.998 -14.381  0.00  0.00    +0.000 A 
ATOM     15  C   UNL     1       2.436   9.257 -15.004  0.00  0.00    +0.000 A 
ATOM     16  C   UNL     1       2.385   7.899 -15.310  0.00  0.00    +0.000 A 
ENDBRANCH  10  11
ENDBRANCH   1  10
TORSDOF 2
ENDMDL
MODEL 9
REMARK VINA RESULT:    -4.994     30.199     31.342
REMARK INTER + INTRA:          -5.580
REMARK INTER:                  -5.426
REMARK INTRA:                  -0.153
REMARK UNBOUND:                -0.001
REMARK  Name = 1550473
REMARK  2 active torsions:
REMARK  status: ('A' for Active; 'I' for Inactive)
REMARK    1  A    between atoms: N_1  and  C_4
REMARK    2  A    between atoms: C_4  and  C_5
REMARK                            x       y       z     vdW  Elec       q    Type
REMARK                         _______ _______ _______ _____ _____    ______ ____
ROOT
ATOM      1  N   UNL     1      -4.573 -15.206  13.984  0.00  0.00    -0.354 N 
ATOM      2  N   UNL     1      -2.631 -14.697  12.829  0.00  0.00    -0.372 N 
ATOM      3  N   UNL     1      -2.598 -14.663  15.123  0.00  0.00    -0.372 N 
ATOM      4  C   UNL     1      -3.279 -14.858  13.989  0.00  0.00    +0.166 C 
ATOM      5  H   UNL     1      -5.040 -15.309  13.090  0.00  0.00    +0.163 HD
ATOM      6  H   UNL     1      -1.654 -14.438  12.801  0.00  0.00    +0.159 HD
ATOM      7  H   UNL     1      -3.088 -14.845  11.938  0.00  0.00    +0.159 HD
ATOM      8  H   UNL     1      -3.031 -14.763  16.032  0.00  0.00    +0.159 HD
ATOM      9  H   UNL     1      -1.623 -14.392  15.116  0.00  0.00    +0.159 HD
ENDROOT
BRANCH   1  10
ATOM     10  C   UNL     1      -5.356 -15.459  15.192  0.00  0.00    +0.151 C 
BRANCH  10  11
ATOM     11  C   UNL     1      -6.211 -14.257  15.484  0.00  0.00    -0.028 A 
ATOM     12  C   UNL     1      -6.586 -13.953  16.801  0.00  0.00    +0.005 A 
ATOM     13  C   UNL     1      -6.644 -13.414  14.449  0.00  0.00    +0.005 A 
ATOM     14  C   UNL     1      -7.355 -12.819  17.076  0.00  0.00    +0.000 A 
ATOM     15  C   UNL     1      -7.413 -12.284  14.727  0.00  0.00    +0.000 A 
ATOM     16  C   UNL     1      -7.765 -11.985  16.041  0.00  0.00    +0.000 A 
ENDBRANCH  10  11
ENDBRANCH   1  10
TORSDOF 2
ENDMDL
