MODEL 1
REMARK VINA RESULT:    -6.492      0.000      0.000
REMARK INTER + INTRA:          -7.375
REMARK INTER:                  -7.251
REMARK INTRA:                  -0.123
REMARK UNBOUND:                -0.123
REMARK  Name = 1550473
REMARK  2 active torsions:
REMARK  status: ('A' for Active; 'I' for Inactive)
REMARK    1  A    between atoms: N_1  and  C_4
REMARK    2  A    between atoms: C_4  and  C_5
REMARK                            x       y       z     vdW  Elec       q    Type
REMARK                         _______ _______ _______ _____ _____    ______ ____
ROOT
ATOM      1  N   UNL     1       7.173  -5.186   1.754  0.00  0.00    -0.354 N 
ATOM      2  N   UNL     1       9.347  -4.436   2.028  0.00  0.00    -0.372 N 
ATOM      3  N   UNL     1       7.691  -2.906   1.605  0.00  0.00    -0.372 N 
ATOM      4  C   UNL     1       8.055  -4.179   1.793  0.00  0.00    +0.166 C 
ATOM      5  H   UNL     1       7.517  -6.132   1.874  0.00  0.00    +0.163 HD
ATOM      6  H   UNL     1      10.035  -3.696   2.067  0.00  0.00    +0.159 HD
ATOM      7  H   UNL     1       9.681  -5.378   2.194  0.00  0.00    +0.159 HD
ATOM      8  H   UNL     1       6.732  -2.645   1.417  0.00  0.00    +0.159 HD
ATOM      9  H   UNL     1       8.366  -2.152   1.629  0.00  0.00    +0.159 HD
ENDROOT
BRANCH   1  10
ATOM     10  C   UNL     1       5.735  -5.008   1.558  0.00  0.00    +0.151 C 
BRANCH  10  11
ATOM     11  C   UNL     1       5.035  -6.306   1.849  0.00  0.00    -0.028 A 
ATOM     12  C   UNL     1       3.706  -6.505   1.446  0.00  0.00    +0.005 A 
ATOM     13  C   UNL     1       5.696  -7.344   2.523  0.00  0.00    +0.005 A 
ATOM     14  C   UNL     1       3.065  -7.722   1.690  0.00  0.00    +0.000 A 
ATOM     15  C   UNL     1       5.052  -8.558   2.766  0.00  0.00    +0.000 A 
ATOM     16  C   UNL     1       3.738  -8.747   2.347  0.00  0.00    +0.000 A 
ENDBRANCH  10  11
ENDBRANCH   1  10
TORSDOF 2
ENDMDL
MODEL 2
REMARK VINA RESULT:    -5.306      1.876      2.681
REMARK INTER + INTRA:          -6.050
REMARK INTER:                  -5.927
REMARK INTRA:                  -0.123
REMARK UNBOUND:                -0.123
REMARK  Name = 1550473
REMARK  2 active torsions:
REMARK  status: ('A' for Active; 'I' for Inactive)
REMARK    1  A    between atoms: N_1  and  C_4
REMARK    2  A    between atoms: C_4  and  C_5
REMARK                            x       y       z     vdW  Elec       q    Type
REMARK                         _______ _______ _______ _____ _____    ______ ____
ROOT
ATOM      1  N   UNL     1       7.611  -5.795   2.637  0.00  0.00    -0.354 N 
ATOM      2  N   UNL     1       9.001  -4.059   1.994  0.00  0.00    -0.372 N 
ATOM      3  N   UNL     1       6.746  -3.870   1.619  0.00  0.00    -0.372 N 
ATOM      4  C   UNL     1       7.774  -4.585   2.087  0.00  0.00    +0.166 C 
ATOM      5  H   UNL     1       8.434  -6.299   2.945  0.00  0.00    +0.163 HD
ATOM      6  H   UNL     1       9.156  -3.146   1.587  0.00  0.00    +0.159 HD
ATOM      7  H   UNL     1       9.818  -4.545   2.345  0.00  0.00    +0.159 HD
ATOM      8  H   UNL     1       5.795  -4.213   1.653  0.00  0.00    +0.159 HD
ATOM      9  H   UNL     1       6.881  -2.959   1.197  0.00  0.00    +0.159 HD
ENDROOT
BRANCH   1  10
ATOM     10  C   UNL     1       6.311  -6.435   2.834  0.00  0.00    +0.151 C 
BRANCH  10  11
ATOM     11  C   UNL     1       6.524  -7.837   3.335  0.00  0.00    -0.028 A 
ATOM     12  C   UNL     1       5.437  -8.614   3.761  0.00  0.00    +0.005 A 
ATOM     13  C   UNL     1       7.811  -8.395   3.382  0.00  0.00    +0.005 A 
ATOM     14  C   UNL     1       5.631  -9.926   4.199  0.00  0.00    +0.000 A 
ATOM     15  C   UNL     1       8.000  -9.706   3.821  0.00  0.00    +0.000 A 
ATOM     16  C   UNL     1       6.910 -10.471   4.227  0.00  0.00    +0.000 A 
ENDBRANCH  10  11
ENDBRANCH   1  10
TORSDOF 2
ENDMDL
MODEL 3
REMARK VINA RESULT:    -5.302     15.626     16.294
REMARK INTER + INTRA:          -6.046
REMARK INTER:                  -5.866
REMARK INTRA:                  -0.179
REMARK UNBOUND:                -0.123
REMARK  Name = 1550473
REMARK  2 active torsions:
REMARK  status: ('A' for Active; 'I' for Inactive)
REMARK    1  A    between atoms: N_1  and  C_4
REMARK    2  A    between atoms: C_4  and  C_5
REMARK                            x       y       z     vdW  Elec       q    Type
REMARK                         _______ _______ _______ _____ _____    ______ ____
ROOT
ATOM      1  N   UNL     1      -7.810   1.634   6.125  0.00  0.00    -0.354 N 
ATOM      2  N   UNL     1      -6.031   1.079   7.499  0.00  0.00    -0.372 N 
ATOM      3  N   UNL     1      -8.099   0.194   7.951  0.00  0.00    -0.372 N 
ATOM      4  C   UNL     1      -7.327   0.972   7.184  0.00  0.00    +0.166 C 
ATOM      5  H   UNL     1      -7.180   2.231   5.602  0.00  0.00    +0.163 HD
ATOM      6  H   UNL     1      -5.637   0.589   8.291  0.00  0.00    +0.159 HD
ATOM      7  H   UNL     1      -5.393   1.641   6.948  0.00  0.00    +0.159 HD
ATOM      8  H   UNL     1      -9.087   0.075   7.769  0.00  0.00    +0.159 HD
ATOM      9  H   UNL     1      -7.726  -0.296   8.754  0.00  0.00    +0.159 HD
ENDROOT
BRANCH   1  10
ATOM     10  C   UNL     1      -9.195   1.542   5.664  0.00  0.00    +0.151 C 
BRANCH  10  11
ATOM     11  C   UNL     1      -9.278   0.525   4.560  0.00  0.00    -0.028 A 
ATOM     12  C   UNL     1      -8.827   0.838   3.269  0.00  0.00    +0.005 A 
ATOM     13  C   UNL     1      -9.803  -0.754   4.798  0.00  0.00    +0.005 A 
ATOM     14  C   UNL     1      -8.877  -0.117   2.250  0.00  0.00    +0.000 A 
ATOM     15  C   UNL     1      -9.851  -1.704   3.778  0.00  0.00    +0.000 A 
ATOM     16  C   UNL     1      -9.386  -1.385   2.504  0.00  0.00    +0.000 A 
ENDBRANCH  10  11
ENDBRANCH   1  10
TORSDOF 2
ENDMDL
MODEL 4
REMARK VINA RESULT:    -5.022     13.031     14.137
REMARK INTER + INTRA:          -5.732
REMARK INTER:                  -5.563
REMARK INTRA:                  -0.170
REMARK UNBOUND:                -0.123
REMARK  Name = 1550473
REMARK  2 active torsions:
REMARK  status: ('A' for Active; 'I' for Inactive)
REMARK    1  A    between atoms: N_1  and  C_4
REMARK    2  A    between atoms: C_4  and  C_5
REMARK                            x       y       z     vdW  Elec       q    Type
REMARK                         _______ _______ _______ _____ _____    ______ ____
ROOT
ATOM      1  N   UNL     1       1.317   6.825   5.304  0.00  0.00    -0.354 N 
ATOM      2  N   UNL     1       0.776   8.594   6.698  0.00  0.00    -0.372 N 
ATOM      3  N   UNL     1      -0.775   6.937   6.355  0.00  0.00    -0.372 N 
ATOM      4  C   UNL     1       0.440   7.439   6.110  0.00  0.00    +0.166 C 
ATOM      5  H   UNL     1       2.210   7.272   5.135  0.00  0.00    +0.163 HD
ATOM      6  H   UNL     1       0.137   9.078   7.313  0.00  0.00    +0.159 HD
ATOM      7  H   UNL     1       1.687   9.015   6.563  0.00  0.00    +0.159 HD
ATOM      8  H   UNL     1      -1.091   6.072   5.938  0.00  0.00    +0.159 HD
ATOM      9  H   UNL     1      -1.433   7.414   6.959  0.00  0.00    +0.159 HD
ENDROOT
BRANCH   1  10
ATOM     10  C   UNL     1       1.070   5.537   4.658  0.00  0.00    +0.151 C 
BRANCH  10  11
ATOM     11  C   UNL     1       0.959   5.746   3.173  0.00  0.00    -0.028 A 
ATOM     12  C   UNL     1       2.070   5.544   2.340  0.00  0.00    +0.005 A 
ATOM     13  C   UNL     1      -0.256   6.140   2.591  0.00  0.00    +0.005 A 
ATOM     14  C   UNL     1       1.960   5.709   0.958  0.00  0.00    +0.000 A 
ATOM     15  C   UNL     1      -0.361   6.304   1.210  0.00  0.00    +0.000 A 
ATOM     16  C   UNL     1       0.746   6.086   0.393  0.00  0.00    +0.000 A 
ENDBRANCH  10  11
ENDBRANCH   1  10
TORSDOF 2
ENDMDL
MODEL 5
REMARK VINA RESULT:    -4.893      6.457      7.906
REMARK INTER + INTRA:          -5.588
REMARK INTER:                  -5.450
REMARK INTRA:                  -0.138
REMARK UNBOUND:                -0.123
REMARK  Name = 1550473
REMARK  2 active torsions:
REMARK  status: ('A' for Active; 'I' for Inactive)
REMARK    1  A    between atoms: N_1  and  C_4
REMARK    2  A    between atoms: C_4  and  C_5
REMARK                            x       y       z     vdW  Elec       q    Type
REMARK                         _______ _______ _______ _____ _____    ______ ____
ROOT
ATOM      1  N   UNL     1      -0.168 -10.321   5.511  0.00  0.00    -0.354 N 
ATOM      2  N   UNL     1      -2.151  -9.266   6.076  0.00  0.00    -0.372 N 
ATOM      3  N   UNL     1      -0.287  -8.885   7.360  0.00  0.00    -0.372 N 
ATOM      4  C   UNL     1      -0.854  -9.497   6.314  0.00  0.00    +0.166 C 
ATOM      5  H   UNL     1      -0.663 -10.777   4.754  0.00  0.00    +0.163 HD
ATOM      6  H   UNL     1      -2.694  -8.646   6.663  0.00  0.00    +0.159 HD
ATOM      7  H   UNL     1      -2.632  -9.687   5.291  0.00  0.00    +0.159 HD
ATOM      8  H   UNL     1       0.686  -9.022   7.597  0.00  0.00    +0.159 HD
ATOM      9  H   UNL     1      -0.817  -8.271   7.965  0.00  0.00    +0.159 HD
ENDROOT
BRANCH   1  10
ATOM     10  C   UNL     1       1.260 -10.598   5.652  0.00  0.00    +0.151 C 
BRANCH  10  11
ATOM     11  C   UNL     1       1.993 -10.005   4.480  0.00  0.00    -0.028 A 
ATOM     12  C   UNL     1       3.394  -9.937   4.476  0.00  0.00    +0.005 A 
ATOM     13  C   UNL     1       1.292  -9.514   3.368  0.00  0.00    +0.005 A 
ATOM     14  C   UNL     1       4.076  -9.414   3.375  0.00  0.00    +0.000 A 
ATOM     15  C   UNL     1       1.977  -8.992   2.271  0.00  0.00    +0.000 A 
ATOM     16  C   UNL     1       3.369  -8.944   2.274  0.00  0.00    +0.000 A 
ENDBRANCH  10  11
ENDBRANCH   1  10
TORSDOF 2
ENDMDL
MODEL 6
REMARK VINA RESULT:    -4.881     15.582     16.880
REMARK INTER + INTRA:          -5.575
REMARK INTER:                  -5.483
REMARK INTRA:                  -0.092
REMARK UNBOUND:                -0.123
REMARK  Name = 1550473
REMARK  2 active torsions:
REMARK  status: ('A' for Active; 'I' for Inactive)
REMARK    1  A    between atoms: N_1  and  C_4
REMARK    2  A    between atoms: C_4  and  C_5
REMARK                            x       y       z     vdW  Elec       q    Type
REMARK                         _______ _______ _______ _____ _____    ______ ____
ROOT
ATOM      1  N   UNL     1      -4.201   8.094   3.779  0.00  0.00    -0.354 N 
ATOM      2  N   UNL     1      -6.482   7.838   3.469  0.00  0.00    -0.372 N 
ATOM      3  N   UNL     1      -5.512   9.853   2.956  0.00  0.00    -0.372 N 
ATOM      4  C   UNL     1      -5.383   8.599   3.403  0.00  0.00    +0.166 C 
ATOM      5  H   UNL     1      -4.175   7.146   4.137  0.00  0.00    +0.163 HD
ATOM      6  H   UNL     1      -7.387   8.191   3.188  0.00  0.00    +0.159 HD
ATOM      7  H   UNL     1      -6.446   6.876   3.783  0.00  0.00    +0.159 HD
ATOM      8  H   UNL     1      -4.722  10.481   2.888  0.00  0.00    +0.159 HD
ATOM      9  H   UNL     1      -6.411  10.229   2.682  0.00  0.00    +0.159 HD
ENDROOT
BRANCH   1  10
ATOM     10  C   UNL     1      -2.936   8.821   3.695  0.00  0.00    +0.151 C 
BRANCH  10  11
ATOM     11  C   UNL     1      -1.801   7.862   3.926  0.00  0.00    -0.028 A 
ATOM     12  C   UNL     1      -1.405   7.528   5.230  0.00  0.00    +0.005 A 
ATOM     13  C   UNL     1      -1.122   7.279   2.846  0.00  0.00    +0.005 A 
ATOM     14  C   UNL     1      -0.371   6.614   5.445  0.00  0.00    +0.000 A 
ATOM     15  C   UNL     1      -0.089   6.368   3.065  0.00  0.00    +0.000 A 
ATOM     16  C   UNL     1       0.285   6.034   4.364  0.00  0.00    +0.000 A 
ENDBRANCH  10  11
ENDBRANCH   1  10
TORSDOF 2
ENDMDL
MODEL 7
REMARK VINA RESULT:    -4.839      8.879     10.334
REMARK INTER + INTRA:          -5.529
REMARK INTER:                  -5.402
REMARK INTRA:                  -0.127
REMARK UNBOUND:                -0.123
REMARK  Name = 1550473
REMARK  2 active torsions:
REMARK  status: ('A' for Active; 'I' for Inactive)
REMARK    1  A    between atoms: N_1  and  C_4
REMARK    2  A    between atoms: C_4  and  C_5
REMARK                            x       y       z     vdW  Elec       q    Type
REMARK                         _______ _______ _______ _____ _____    ______ ____
ROOT
ATOM      1  N   UNL     1       5.831 -15.172   5.952  0.00  0.00    -0.354 N 
ATOM      2  N   UNL     1       4.000 -15.832   7.208  0.00  0.00    -0.372 N 
ATOM      3  N   UNL     1       3.753 -14.116   5.705  0.00  0.00    -0.372 N 
ATOM      4  C   UNL     1       4.539 -15.033   6.279  0.00  0.00    +0.166 C 
ATOM      5  H   UNL     1       6.380 -15.866   6.445  0.00  0.00    +0.163 HD
ATOM      6  H   UNL     1       3.027 -15.753   7.473  0.00  0.00    +0.159 HD
ATOM      7  H   UNL     1       4.540 -16.556   7.667  0.00  0.00    +0.159 HD
ATOM      8  H   UNL     1       4.100 -13.479   5.000  0.00  0.00    +0.159 HD
ATOM      9  H   UNL     1       2.780 -14.014   5.965  0.00  0.00    +0.159 HD
ENDROOT
BRANCH   1  10
ATOM     10  C   UNL     1       6.500 -14.389   4.915  0.00  0.00    +0.151 C 
BRANCH  10  11
ATOM     11  C   UNL     1       7.800 -13.864   5.458  0.00  0.00    -0.028 A 
ATOM     12  C   UNL     1       8.621 -14.678   6.252  0.00  0.00    +0.005 A 
ATOM     13  C   UNL     1       8.219 -12.554   5.178  0.00  0.00    +0.005 A 
ATOM     14  C   UNL     1       9.843 -14.200   6.732  0.00  0.00    +0.000 A 
ATOM     15  C   UNL     1       9.440 -12.080   5.660  0.00  0.00    +0.000 A 
ATOM     16  C   UNL     1      10.252 -12.904   6.435  0.00  0.00    +0.000 A 
ENDBRANCH  10  11
ENDBRANCH   1  10
TORSDOF 2
ENDMDL
MODEL 8
REMARK VINA RESULT:    -4.815     13.217     14.002
REMARK INTER + INTRA:          -5.502
REMARK INTER:                  -5.375
REMARK INTRA:                  -0.127
REMARK UNBOUND:                -0.123
REMARK  Name = 1550473
REMARK  2 active torsions:
REMARK  status: ('A' for Active; 'I' for Inactive)
REMARK    1  A    between atoms: N_1  and  C_4
REMARK    2  A    between atoms: C_4  and  C_5
REMARK                            x       y       z     vdW  Elec       q    Type
REMARK                         _______ _______ _______ _____ _____    ______ ____
ROOT
ATOM      1  N   UNL     1       0.154   6.117   3.955  0.00  0.00    -0.354 N 
ATOM      2  N   UNL     1      -1.048   6.894   5.776  0.00  0.00    -0.372 N 
ATOM      3  N   UNL     1       1.224   6.639   5.974  0.00  0.00    -0.372 N 
ATOM      4  C   UNL     1       0.120   6.545   5.225  0.00  0.00    +0.166 C 
ATOM      5  H   UNL     1      -0.721   6.040   3.450  0.00  0.00    +0.163 HD
ATOM      6  H   UNL     1      -1.104   7.224   6.731  0.00  0.00    +0.159 HD
ATOM      7  H   UNL     1      -1.915   6.860   5.254  0.00  0.00    +0.159 HD
ATOM      8  H   UNL     1       2.136   6.385   5.619  0.00  0.00    +0.159 HD
ATOM      9  H   UNL     1       1.186   6.956   6.935  0.00  0.00    +0.159 HD
ENDROOT
BRANCH   1  10
ATOM     10  C   UNL     1       1.381   5.764   3.244  0.00  0.00    +0.151 C 
BRANCH  10  11
ATOM     11  C   UNL     1       1.171   5.971   1.769  0.00  0.00    -0.028 A 
ATOM     12  C   UNL     1       2.255   5.917   0.881  0.00  0.00    +0.005 A 
ATOM     13  C   UNL     1      -0.111   6.217   1.253  0.00  0.00    +0.005 A 
ATOM     14  C   UNL     1       2.056   6.079  -0.492  0.00  0.00    +0.000 A 
ATOM     15  C   UNL     1      -0.305   6.380  -0.118  0.00  0.00    +0.000 A 
ATOM     16  C   UNL     1       0.778   6.308  -0.991  0.00  0.00    +0.000 A 
ENDBRANCH  10  11
ENDBRANCH   1  10
TORSDOF 2
ENDMDL
MODEL 9
REMARK VINA RESULT:    -4.690     15.970     17.095
REMARK INTER + INTRA:          -5.362
REMARK INTER:                  -5.230
REMARK INTRA:                  -0.132
REMARK UNBOUND:                -0.123
REMARK  Name = 1550473
REMARK  2 active torsions:
REMARK  status: ('A' for Active; 'I' for Inactive)
REMARK    1  A    between atoms: N_1  and  C_4
REMARK    2  A    between atoms: C_4  and  C_5
REMARK                            x       y       z     vdW  Elec       q    Type
REMARK                         _______ _______ _______ _____ _____    ______ ____
ROOT
ATOM      1  N   UNL     1      -9.112   1.088   4.281  0.00  0.00    -0.354 N 
ATOM      2  N   UNL     1      -7.768   1.526   6.116  0.00  0.00    -0.372 N 
ATOM      3  N   UNL     1      -9.969   2.175   6.172  0.00  0.00    -0.372 N 
ATOM      4  C   UNL     1      -8.961   1.595   5.512  0.00  0.00    +0.166 C 
ATOM      5  H   UNL     1      -8.301   0.688   3.822  0.00  0.00    +0.163 HD
ATOM      6  H   UNL     1      -7.625   1.896   7.046  0.00  0.00    +0.159 HD
ATOM      7  H   UNL     1      -6.971   1.084   5.673  0.00  0.00    +0.159 HD
ATOM      8  H   UNL     1     -10.892   2.264   5.769  0.00  0.00    +0.159 HD
ATOM      9  H   UNL     1      -9.842   2.562   7.099  0.00  0.00    +0.159 HD
ENDROOT
BRANCH   1  10
ATOM     10  C   UNL     1     -10.381   1.064   3.557  0.00  0.00    +0.151 C 
BRANCH  10  11
ATOM     11  C   UNL     1     -10.439  -0.176   2.707  0.00  0.00    -0.028 A 
ATOM     12  C   UNL     1     -11.596  -0.485   1.976  0.00  0.00    +0.005 A 
ATOM     13  C   UNL     1      -9.339  -1.043   2.625  0.00  0.00    +0.005 A 
ATOM     14  C   UNL     1     -11.639  -1.621   1.164  0.00  0.00    +0.000 A 
ATOM     15  C   UNL     1      -9.386  -2.176   1.813  0.00  0.00    +0.000 A 
ATOM     16  C   UNL     1     -10.536  -2.463   1.081  0.00  0.00    +0.000 A 
ENDBRANCH  10  11
ENDBRANCH   1  10
TORSDOF 2
ENDMDL
