MODEL 1
REMARK VINA RESULT:    -5.635      0.000      0.000
REMARK INTER + INTRA:          -6.435
REMARK INTER:                  -6.293
REMARK INTRA:                  -0.141
REMARK UNBOUND:                -0.141
REMARK  Name = 1550473
REMARK  2 active torsions:
REMARK  status: ('A' for Active; 'I' for Inactive)
REMARK    1  A    between atoms: N_1  and  C_4
REMARK    2  A    between atoms: C_4  and  C_5
REMARK                            x       y       z     vdW  Elec       q    Type
REMARK                         _______ _______ _______ _____ _____    ______ ____
ROOT
ATOM      1  N   UNL     1      -5.040 -16.478   7.924  0.00  0.00    -0.354 N 
ATOM      2  N   UNL     1      -3.180 -16.329   9.296  0.00  0.00    -0.372 N 
ATOM      3  N   UNL     1      -3.062 -17.623   7.405  0.00  0.00    -0.372 N 
ATOM      4  C   UNL     1      -3.772 -16.813   8.197  0.00  0.00    +0.166 C 
ATOM      5  H   UNL     1      -5.533 -15.884   8.580  0.00  0.00    +0.163 HD
ATOM      6  H   UNL     1      -2.223 -16.561   9.526  0.00  0.00    +0.159 HD
ATOM      7  H   UNL     1      -3.661 -15.698   9.926  0.00  0.00    +0.159 HD
ATOM      8  H   UNL     1      -3.453 -18.027   6.564  0.00  0.00    +0.159 HD
ATOM      9  H   UNL     1      -2.107 -17.877   7.625  0.00  0.00    +0.159 HD
ENDROOT
BRANCH   1  10
ATOM     10  C   UNL     1      -5.759 -16.908   6.726  0.00  0.00    +0.151 C 
BRANCH  10  11
ATOM     11  C   UNL     1      -6.406 -15.711   6.085  0.00  0.00    -0.028 A 
ATOM     12  C   UNL     1      -6.477 -14.489   6.769  0.00  0.00    +0.005 A 
ATOM     13  C   UNL     1      -6.944 -15.791   4.792  0.00  0.00    +0.005 A 
ATOM     14  C   UNL     1      -7.051 -13.368   6.163  0.00  0.00    +0.000 A 
ATOM     15  C   UNL     1      -7.517 -14.670   4.190  0.00  0.00    +0.000 A 
ATOM     16  C   UNL     1      -7.568 -13.459   4.875  0.00  0.00    +0.000 A 
ENDBRANCH  10  11
ENDBRANCH   1  10
TORSDOF 2
ENDMDL
MODEL 2
REMARK VINA RESULT:    -5.241     10.199     10.847
REMARK INTER + INTRA:          -5.995
REMARK INTER:                  -5.858
REMARK INTRA:                  -0.136
REMARK UNBOUND:                -0.141
REMARK  Name = 1550473
REMARK  2 active torsions:
REMARK  status: ('A' for Active; 'I' for Inactive)
REMARK    1  A    between atoms: N_1  and  C_4
REMARK    2  A    between atoms: C_4  and  C_5
REMARK                            x       y       z     vdW  Elec       q    Type
REMARK                         _______ _______ _______ _____ _____    ______ ____
ROOT
ATOM      1  N   UNL     1      -2.206  -9.002  -0.041  0.00  0.00    -0.354 N 
ATOM      2  N   UNL     1      -0.785  -7.518   1.029  0.00  0.00    -0.372 N 
ATOM      3  N   UNL     1      -2.559  -6.689  -0.168  0.00  0.00    -0.372 N 
ATOM      4  C   UNL     1      -1.861  -7.744   0.265  0.00  0.00    +0.166 C 
ATOM      5  H   UNL     1      -1.618  -9.757   0.293  0.00  0.00    +0.163 HD
ATOM      6  H   UNL     1      -0.503  -6.580   1.279  0.00  0.00    +0.159 HD
ATOM      7  H   UNL     1      -0.226  -8.276   1.399  0.00  0.00    +0.159 HD
ATOM      8  H   UNL     1      -3.378  -6.792  -0.752  0.00  0.00    +0.159 HD
ATOM      9  H   UNL     1      -2.285  -5.742   0.062  0.00  0.00    +0.159 HD
ENDROOT
BRANCH   1  10
ATOM     10  C   UNL     1      -3.390  -9.359  -0.821  0.00  0.00    +0.151 C 
BRANCH  10  11
ATOM     11  C   UNL     1      -3.057 -10.522  -1.714  0.00  0.00    -0.028 A 
ATOM     12  C   UNL     1      -1.751 -11.031  -1.764  0.00  0.00    +0.005 A 
ATOM     13  C   UNL     1      -4.045 -11.124  -2.508  0.00  0.00    +0.005 A 
ATOM     14  C   UNL     1      -1.448 -12.130  -2.571  0.00  0.00    +0.000 A 
ATOM     15  C   UNL     1      -3.739 -12.221  -3.312  0.00  0.00    +0.000 A 
ATOM     16  C   UNL     1      -2.441 -12.726  -3.342  0.00  0.00    +0.000 A 
ENDBRANCH  10  11
ENDBRANCH   1  10
TORSDOF 2
ENDMDL
MODEL 3
REMARK VINA RESULT:    -5.149      1.547      2.541
REMARK INTER + INTRA:          -5.892
REMARK INTER:                  -5.748
REMARK INTRA:                  -0.144
REMARK UNBOUND:                -0.141
REMARK  Name = 1550473
REMARK  2 active torsions:
REMARK  status: ('A' for Active; 'I' for Inactive)
REMARK    1  A    between atoms: N_1  and  C_4
REMARK    2  A    between atoms: C_4  and  C_5
REMARK                            x       y       z     vdW  Elec       q    Type
REMARK                         _______ _______ _______ _____ _____    ______ ____
ROOT
ATOM      1  N   UNL     1      -5.771 -17.735   5.647  0.00  0.00    -0.354 N 
ATOM      2  N   UNL     1      -4.159 -19.134   4.748  0.00  0.00    -0.372 N 
ATOM      3  N   UNL     1      -3.662 -17.945   6.647  0.00  0.00    -0.372 N 
ATOM      4  C   UNL     1      -4.540 -18.261   5.689  0.00  0.00    +0.166 C 
ATOM      5  H   UNL     1      -6.379 -17.992   4.878  0.00  0.00    +0.163 HD
ATOM      6  H   UNL     1      -3.238 -19.550   4.755  0.00  0.00    +0.159 HD
ATOM      7  H   UNL     1      -4.785 -19.424   4.006  0.00  0.00    +0.159 HD
ATOM      8  H   UNL     1      -3.885 -17.288   7.382  0.00  0.00    +0.159 HD
ATOM      9  H   UNL     1      -2.731 -18.341   6.664  0.00  0.00    +0.159 HD
ENDROOT
BRANCH   1  10
ATOM     10  C   UNL     1      -6.303 -16.817   6.653  0.00  0.00    +0.151 C 
BRANCH  10  11
ATOM     11  C   UNL     1      -6.708 -15.534   5.982  0.00  0.00    -0.028 A 
ATOM     12  C   UNL     1      -7.151 -15.535   4.651  0.00  0.00    +0.005 A 
ATOM     13  C   UNL     1      -6.656 -14.313   6.673  0.00  0.00    +0.005 A 
ATOM     14  C   UNL     1      -7.556 -14.348   4.037  0.00  0.00    +0.000 A 
ATOM     15  C   UNL     1      -7.060 -13.130   6.056  0.00  0.00    +0.000 A 
ATOM     16  C   UNL     1      -7.512 -13.148   4.739  0.00  0.00    +0.000 A 
ENDBRANCH  10  11
ENDBRANCH   1  10
TORSDOF 2
ENDMDL
MODEL 4
REMARK VINA RESULT:    -5.126      9.233      9.968
REMARK INTER + INTRA:          -5.866
REMARK INTER:                  -5.729
REMARK INTRA:                  -0.137
REMARK UNBOUND:                -0.141
REMARK  Name = 1550473
REMARK  2 active torsions:
REMARK  status: ('A' for Active; 'I' for Inactive)
REMARK    1  A    between atoms: N_1  and  C_4
REMARK    2  A    between atoms: C_4  and  C_5
REMARK                            x       y       z     vdW  Elec       q    Type
REMARK                         _______ _______ _______ _____ _____    ______ ____
ROOT
ATOM      1  N   UNL     1      -1.515  -9.441  -0.616  0.00  0.00    -0.354 N 
ATOM      2  N   UNL     1      -1.598  -7.129  -0.711  0.00  0.00    -0.372 N 
ATOM      3  N   UNL     1      -3.566  -8.308  -0.663  0.00  0.00    -0.372 N 
ATOM      4  C   UNL     1      -2.228  -8.308  -0.663  0.00  0.00    +0.166 C 
ATOM      5  H   UNL     1      -0.504  -9.376  -0.649  0.00  0.00    +0.163 HD
ATOM      6  H   UNL     1      -2.109  -6.257  -0.744  0.00  0.00    +0.159 HD
ATOM      7  H   UNL     1      -0.587  -7.064  -0.698  0.00  0.00    +0.159 HD
ATOM      8  H   UNL     1      -4.102  -9.165  -0.634  0.00  0.00    +0.159 HD
ATOM      9  H   UNL     1      -4.095  -7.446  -0.707  0.00  0.00    +0.159 HD
ENDROOT
BRANCH   1  10
ATOM     10  C   UNL     1      -2.105 -10.775  -0.508  0.00  0.00    +0.151 C 
BRANCH  10  11
ATOM     11  C   UNL     1      -1.487 -11.491   0.661  0.00  0.00    -0.028 A 
ATOM     12  C   UNL     1      -1.245 -10.813   1.865  0.00  0.00    +0.005 A 
ATOM     13  C   UNL     1      -1.147 -12.850   0.574  0.00  0.00    +0.005 A 
ATOM     14  C   UNL     1      -0.700 -11.486   2.961  0.00  0.00    +0.000 A 
ATOM     15  C   UNL     1      -0.602 -13.518   1.670  0.00  0.00    +0.000 A 
ATOM     16  C   UNL     1      -0.380 -12.836   2.864  0.00  0.00    +0.000 A 
ENDBRANCH  10  11
ENDBRANCH   1  10
TORSDOF 2
ENDMDL
MODEL 5
REMARK VINA RESULT:    -4.828     19.305     20.620
REMARK INTER + INTRA:          -5.534
REMARK INTER:                  -5.411
REMARK INTRA:                  -0.123
REMARK UNBOUND:                -0.141
REMARK  Name = 1550473
REMARK  2 active torsions:
REMARK  status: ('A' for Active; 'I' for Inactive)
REMARK    1  A    between atoms: N_1  and  C_4
REMARK    2  A    between atoms: C_4  and  C_5
REMARK                            x       y       z     vdW  Elec       q    Type
REMARK                         _______ _______ _______ _____ _____    ______ ____
ROOT
ATOM      1  N   UNL     1       7.639  -1.610   9.319  0.00  0.00    -0.354 N 
ATOM      2  N   UNL     1       7.223  -0.937   7.142  0.00  0.00    -0.372 N 
ATOM      3  N   UNL     1       6.370  -2.940   7.866  0.00  0.00    -0.372 N 
ATOM      4  C   UNL     1       7.079  -1.836   8.123  0.00  0.00    +0.166 C 
ATOM      5  H   UNL     1       8.190  -0.768   9.441  0.00  0.00    +0.163 HD
ATOM      6  H   UNL     1       6.809  -1.078   6.231  0.00  0.00    +0.159 HD
ATOM      7  H   UNL     1       7.735  -0.074   7.281  0.00  0.00    +0.159 HD
ATOM      8  H   UNL     1       6.229  -3.660   8.561  0.00  0.00    +0.159 HD
ATOM      9  H   UNL     1       5.957  -3.105   6.956  0.00  0.00    +0.159 HD
ENDROOT
BRANCH   1  10
ATOM     10  C   UNL     1       7.497  -2.500  10.470  0.00  0.00    +0.151 C 
BRANCH  10  11
ATOM     11  C   UNL     1       8.767  -2.468  11.275  0.00  0.00    -0.028 A 
ATOM     12  C   UNL     1       9.178  -3.595  12.002  0.00  0.00    +0.005 A 
ATOM     13  C   UNL     1       9.566  -1.315  11.311  0.00  0.00    +0.005 A 
ATOM     14  C   UNL     1      10.372  -3.576  12.726  0.00  0.00    +0.000 A 
ATOM     15  C   UNL     1      10.757  -1.300  12.036  0.00  0.00    +0.000 A 
ATOM     16  C   UNL     1      11.161  -2.431  12.741  0.00  0.00    +0.000 A 
ENDBRANCH  10  11
ENDBRANCH   1  10
TORSDOF 2
ENDMDL
MODEL 6
REMARK VINA RESULT:    -4.740     19.872     20.966
REMARK INTER + INTRA:          -5.435
REMARK INTER:                  -5.303
REMARK INTRA:                  -0.132
REMARK UNBOUND:                -0.141
REMARK  Name = 1550473
REMARK  2 active torsions:
REMARK  status: ('A' for Active; 'I' for Inactive)
REMARK    1  A    between atoms: N_1  and  C_4
REMARK    2  A    between atoms: C_4  and  C_5
REMARK                            x       y       z     vdW  Elec       q    Type
REMARK                         _______ _______ _______ _____ _____    ______ ____
ROOT
ATOM      1  N   UNL     1      10.282  -3.817  12.900  0.00  0.00    -0.354 N 
ATOM      2  N   UNL     1      10.059  -5.448  14.529  0.00  0.00    -0.372 N 
ATOM      3  N   UNL     1      11.553  -3.739  14.867  0.00  0.00    -0.372 N 
ATOM      4  C   UNL     1      10.635  -4.322  14.089  0.00  0.00    +0.166 C 
ATOM      5  H   UNL     1       9.602  -4.324  12.344  0.00  0.00    +0.163 HD
ATOM      6  H   UNL     1      10.302  -5.850  15.424  0.00  0.00    +0.159 HD
ATOM      7  H   UNL     1       9.346  -5.927  13.993  0.00  0.00    +0.159 HD
ATOM      8  H   UNL     1      12.029  -2.891  14.590  0.00  0.00    +0.159 HD
ATOM      9  H   UNL     1      11.818  -4.133  15.761  0.00  0.00    +0.159 HD
ENDROOT
BRANCH   1  10
ATOM     10  C   UNL     1      10.810  -2.569  12.352  0.00  0.00    +0.151 C 
BRANCH  10  11
ATOM     11  C   UNL     1       9.745  -1.908  11.521  0.00  0.00    -0.028 A 
ATOM     12  C   UNL     1      10.049  -0.785  10.738  0.00  0.00    +0.005 A 
ATOM     13  C   UNL     1       8.432  -2.403  11.508  0.00  0.00    +0.005 A 
ATOM     14  C   UNL     1       9.067  -0.188   9.942  0.00  0.00    +0.000 A 
ATOM     15  C   UNL     1       7.455  -1.805  10.713  0.00  0.00    +0.000 A 
ATOM     16  C   UNL     1       7.773  -0.699   9.929  0.00  0.00    +0.000 A 
ENDBRANCH  10  11
ENDBRANCH   1  10
TORSDOF 2
ENDMDL
MODEL 7
REMARK VINA RESULT:    -4.737      4.365      5.783
REMARK INTER + INTRA:          -5.432
REMARK INTER:                  -5.339
REMARK INTRA:                  -0.093
REMARK UNBOUND:                -0.141
REMARK  Name = 1550473
REMARK  2 active torsions:
REMARK  status: ('A' for Active; 'I' for Inactive)
REMARK    1  A    between atoms: N_1  and  C_4
REMARK    2  A    between atoms: C_4  and  C_5
REMARK                            x       y       z     vdW  Elec       q    Type
REMARK                         _______ _______ _______ _____ _____    ______ ____
ROOT
ATOM      1  N   UNL     1      -7.465 -15.324   1.927  0.00  0.00    -0.354 N 
ATOM      2  N   UNL     1      -6.854 -15.046  -0.289  0.00  0.00    -0.372 N 
ATOM      3  N   UNL     1      -9.079 -14.970   0.266  0.00  0.00    -0.372 N 
ATOM      4  C   UNL     1      -7.807 -15.115   0.649  0.00  0.00    +0.166 C 
ATOM      5  H   UNL     1      -6.485 -15.456   2.148  0.00  0.00    +0.163 HD
ATOM      6  H   UNL     1      -7.081 -14.885  -1.262  0.00  0.00    +0.159 HD
ATOM      7  H   UNL     1      -5.872 -15.132  -0.059  0.00  0.00    +0.159 HD
ATOM      8  H   UNL     1      -9.846 -15.018   0.924  0.00  0.00    +0.159 HD
ATOM      9  H   UNL     1      -9.327 -14.820  -0.705  0.00  0.00    +0.159 HD
ENDROOT
BRANCH   1  10
ATOM     10  C   UNL     1      -8.421 -15.363   3.033  0.00  0.00    +0.151 C 
BRANCH  10  11
ATOM     11  C   UNL     1      -7.686 -15.140   4.325  0.00  0.00    -0.028 A 
ATOM     12  C   UNL     1      -7.635 -13.864   4.905  0.00  0.00    +0.005 A 
ATOM     13  C   UNL     1      -7.043 -16.203   4.979  0.00  0.00    +0.005 A 
ATOM     14  C   UNL     1      -6.978 -13.663   6.121  0.00  0.00    +0.000 A 
ATOM     15  C   UNL     1      -6.387 -15.998   6.193  0.00  0.00    +0.000 A 
ATOM     16  C   UNL     1      -6.357 -14.728   6.765  0.00  0.00    +0.000 A 
ENDBRANCH  10  11
ENDBRANCH   1  10
TORSDOF 2
ENDMDL
MODEL 8
REMARK VINA RESULT:    -4.693     20.591     21.695
REMARK INTER + INTRA:          -5.383
REMARK INTER:                  -5.263
REMARK INTRA:                  -0.120
REMARK UNBOUND:                -0.141
REMARK  Name = 1550473
REMARK  2 active torsions:
REMARK  status: ('A' for Active; 'I' for Inactive)
REMARK    1  A    between atoms: N_1  and  C_4
REMARK    2  A    between atoms: C_4  and  C_5
REMARK                            x       y       z     vdW  Elec       q    Type
REMARK                         _______ _______ _______ _____ _____    ______ ____
ROOT
ATOM      1  N   UNL     1      11.551  -2.124  13.150  0.00  0.00    -0.354 N 
ATOM      2  N   UNL     1      12.707  -1.489  15.054  0.00  0.00    -0.372 N 
ATOM      3  N   UNL     1      11.557  -3.474  15.065  0.00  0.00    -0.372 N 
ATOM      4  C   UNL     1      11.930  -2.369  14.411  0.00  0.00    +0.166 C 
ATOM      5  H   UNL     1      11.842  -1.254  12.720  0.00  0.00    +0.163 HD
ATOM      6  H   UNL     1      13.011  -1.648  16.005  0.00  0.00    +0.159 HD
ATOM      7  H   UNL     1      13.034  -0.641  14.606  0.00  0.00    +0.159 HD
ATOM      8  H   UNL     1      10.966  -4.175  14.639  0.00  0.00    +0.159 HD
ATOM      9  H   UNL     1      11.842  -3.646  16.022  0.00  0.00    +0.159 HD
ENDROOT
BRANCH   1  10
ATOM     10  C   UNL     1      10.750  -3.044  12.343  0.00  0.00    +0.151 C 
BRANCH  10  11
ATOM     11  C   UNL     1       9.710  -2.259  11.592  0.00  0.00    -0.028 A 
ATOM     12  C   UNL     1       8.382  -2.707  11.537  0.00  0.00    +0.005 A 
ATOM     13  C   UNL     1      10.045  -1.064  10.938  0.00  0.00    +0.005 A 
ATOM     14  C   UNL     1       7.410  -1.964  10.864  0.00  0.00    +0.000 A 
ATOM     15  C   UNL     1       9.071  -0.324  10.266  0.00  0.00    +0.000 A 
ATOM     16  C   UNL     1       7.753  -0.773  10.232  0.00  0.00    +0.000 A 
ENDBRANCH  10  11
ENDBRANCH   1  10
TORSDOF 2
ENDMDL
MODEL 9
REMARK VINA RESULT:    -4.594      9.462     10.436
REMARK INTER + INTRA:          -5.273
REMARK INTER:                  -5.093
REMARK INTRA:                  -0.180
REMARK UNBOUND:                -0.141
REMARK  Name = 1550473
REMARK  2 active torsions:
REMARK  status: ('A' for Active; 'I' for Inactive)
REMARK    1  A    between atoms: N_1  and  C_4
REMARK    2  A    between atoms: C_4  and  C_5
REMARK                            x       y       z     vdW  Elec       q    Type
REMARK                         _______ _______ _______ _____ _____    ______ ____
ROOT
ATOM      1  N   UNL     1      -3.252  -8.036   0.700  0.00  0.00    -0.354 N 
ATOM      2  N   UNL     1      -1.151  -7.196   0.209  0.00  0.00    -0.372 N 
ATOM      3  N   UNL     1      -1.589  -9.407  -0.219  0.00  0.00    -0.372 N 
ATOM      4  C   UNL     1      -2.011  -8.221   0.233  0.00  0.00    +0.166 C 
ATOM      5  H   UNL     1      -3.501  -7.121   1.056  0.00  0.00    +0.163 HD
ATOM      6  H   UNL     1      -0.209  -7.304  -0.142  0.00  0.00    +0.159 HD
ATOM      7  H   UNL     1      -1.417  -6.270   0.522  0.00  0.00    +0.159 HD
ATOM      8  H   UNL     1      -2.187 -10.223  -0.222  0.00  0.00    +0.159 HD
ATOM      9  H   UNL     1      -0.646  -9.538  -0.563  0.00  0.00    +0.159 HD
ENDROOT
BRANCH   1  10
ATOM     10  C   UNL     1      -4.282  -9.074   0.720  0.00  0.00    +0.151 C 
BRANCH  10  11
ATOM     11  C   UNL     1      -5.159  -8.918  -0.491  0.00  0.00    -0.028 A 
ATOM     12  C   UNL     1      -5.323  -9.980  -1.393  0.00  0.00    +0.005 A 
ATOM     13  C   UNL     1      -5.834  -7.713  -0.740  0.00  0.00    +0.005 A 
ATOM     14  C   UNL     1      -6.162  -9.846  -2.502  0.00  0.00    +0.000 A 
ATOM     15  C   UNL     1      -6.670  -7.583  -1.849  0.00  0.00    +0.000 A 
ATOM     16  C   UNL     1      -6.835  -8.650  -2.729  0.00  0.00    +0.000 A 
ENDBRANCH  10  11
ENDBRANCH   1  10
TORSDOF 2
ENDMDL
