MODEL 1
REMARK VINA RESULT:    -4.901      0.000      0.000
REMARK INTER + INTRA:          -5.605
REMARK INTER:                  -5.474
REMARK INTRA:                  -0.130
REMARK UNBOUND:                -0.130
REMARK  Name = 1550473
REMARK  2 active torsions:
REMARK  status: ('A' for Active; 'I' for Inactive)
REMARK    1  A    between atoms: N_1  and  C_4
REMARK    2  A    between atoms: C_4  and  C_5
REMARK                            x       y       z     vdW  Elec       q    Type
REMARK                         _______ _______ _______ _____ _____    ______ ____
ROOT
ATOM      1  N   UNL     1      -3.688   3.486  26.360  0.00  0.00    -0.354 N 
ATOM      2  N   UNL     1      -5.271   3.624  24.676  0.00  0.00    -0.372 N 
ATOM      3  N   UNL     1      -3.080   4.091  24.180  0.00  0.00    -0.372 N 
ATOM      4  C   UNL     1      -4.001   3.734  25.082  0.00  0.00    +0.166 C 
ATOM      5  H   UNL     1      -4.437   3.248  27.001  0.00  0.00    +0.163 HD
ATOM      6  H   UNL     1      -5.536   3.801  23.716  0.00  0.00    +0.159 HD
ATOM      7  H   UNL     1      -6.010   3.342  25.308  0.00  0.00    +0.159 HD
ATOM      8  H   UNL     1      -2.104   4.197  24.424  0.00  0.00    +0.159 HD
ATOM      9  H   UNL     1      -3.328   4.284  23.217  0.00  0.00    +0.159 HD
ENDROOT
BRANCH   1  10
ATOM     10  C   UNL     1      -2.327   3.524  26.892  0.00  0.00    +0.151 C 
BRANCH  10  11
ATOM     11  C   UNL     1      -2.145   2.387  27.858  0.00  0.00    -0.028 A 
ATOM     12  C   UNL     1      -3.254   1.799  28.484  0.00  0.00    +0.005 A 
ATOM     13  C   UNL     1      -0.865   1.888  28.149  0.00  0.00    +0.005 A 
ATOM     14  C   UNL     1      -3.088   0.722  29.359  0.00  0.00    +0.000 A 
ATOM     15  C   UNL     1      -0.703   0.814  29.023  0.00  0.00    +0.000 A 
ATOM     16  C   UNL     1      -1.815   0.230  29.626  0.00  0.00    +0.000 A 
ENDBRANCH  10  11
ENDBRANCH   1  10
TORSDOF 2
ENDMDL
MODEL 2
REMARK VINA RESULT:    -4.900     45.468     45.874
REMARK INTER + INTRA:          -5.603
REMARK INTER:                  -5.475
REMARK INTRA:                  -0.128
REMARK UNBOUND:                -0.130
REMARK  Name = 1550473
REMARK  2 active torsions:
REMARK  status: ('A' for Active; 'I' for Inactive)
REMARK    1  A    between atoms: N_1  and  C_4
REMARK    2  A    between atoms: C_4  and  C_5
REMARK                            x       y       z     vdW  Elec       q    Type
REMARK                         _______ _______ _______ _____ _____    ______ ____
ROOT
ATOM      1  N   UNL     1       2.011 -21.412 -11.118  0.00  0.00    -0.354 N 
ATOM      2  N   UNL     1       2.317 -23.547 -10.276  0.00  0.00    -0.372 N 
ATOM      3  N   UNL     1       0.406 -23.085 -11.458  0.00  0.00    -0.372 N 
ATOM      4  C   UNL     1       1.574 -22.668 -10.957  0.00  0.00    +0.166 C 
ATOM      5  H   UNL     1       2.891 -21.150 -10.688  0.00  0.00    +0.163 HD
ATOM      6  H   UNL     1       2.015 -24.503 -10.141  0.00  0.00    +0.159 HD
ATOM      7  H   UNL     1       3.217 -23.295  -9.886  0.00  0.00    +0.159 HD
ATOM      8  H   UNL     1      -0.205 -22.469 -11.978  0.00  0.00    +0.159 HD
ATOM      9  H   UNL     1       0.080 -24.034 -11.324  0.00  0.00    +0.159 HD
ENDROOT
BRANCH   1  10
ATOM     10  C   UNL     1       1.303 -20.391 -11.889  0.00  0.00    +0.151 C 
BRANCH  10  11
ATOM     11  C   UNL     1       2.299 -19.397 -12.418  0.00  0.00    -0.028 A 
ATOM     12  C   UNL     1       1.900 -18.404 -13.325  0.00  0.00    +0.005 A 
ATOM     13  C   UNL     1       3.641 -19.438 -12.013  0.00  0.00    +0.005 A 
ATOM     14  C   UNL     1       2.818 -17.461 -13.794  0.00  0.00    +0.000 A 
ATOM     15  C   UNL     1       4.555 -18.495 -12.484  0.00  0.00    +0.000 A 
ATOM     16  C   UNL     1       4.142 -17.506 -13.373  0.00  0.00    +0.000 A 
ENDBRANCH  10  11
ENDBRANCH   1  10
TORSDOF 2
ENDMDL
MODEL 3
REMARK VINA RESULT:    -4.759     13.394     14.014
REMARK INTER + INTRA:          -5.446
REMARK INTER:                  -5.329
REMARK INTRA:                  -0.116
REMARK UNBOUND:                -0.130
REMARK  Name = 1550473
REMARK  2 active torsions:
REMARK  status: ('A' for Active; 'I' for Inactive)
REMARK    1  A    between atoms: N_1  and  C_4
REMARK    2  A    between atoms: C_4  and  C_5
REMARK                            x       y       z     vdW  Elec       q    Type
REMARK                         _______ _______ _______ _____ _____    ______ ____
ROOT
ATOM      1  N   UNL     1      10.010   7.818  31.990  0.00  0.00    -0.354 N 
ATOM      2  N   UNL     1       9.210   9.880  31.304  0.00  0.00    -0.372 N 
ATOM      3  N   UNL     1      10.293   8.549  29.781  0.00  0.00    -0.372 N 
ATOM      4  C   UNL     1       9.844   8.735  31.027  0.00  0.00    +0.166 C 
ATOM      5  H   UNL     1       9.673   8.032  32.921  0.00  0.00    +0.163 HD
ATOM      6  H   UNL     1       9.066  10.589  30.597  0.00  0.00    +0.159 HD
ATOM      7  H   UNL     1       8.833  10.072  32.224  0.00  0.00    +0.159 HD
ATOM      8  H   UNL     1      10.785   7.708  29.509  0.00  0.00    +0.159 HD
ATOM      9  H   UNL     1      10.170   9.251  29.063  0.00  0.00    +0.159 HD
ENDROOT
BRANCH   1  10
ATOM     10  C   UNL     1      10.639   6.515  31.779  0.00  0.00    +0.151 C 
BRANCH  10  11
ATOM     11  C   UNL     1       9.879   5.472  32.549  0.00  0.00    -0.028 A 
ATOM     12  C   UNL     1       9.566   4.238  31.960  0.00  0.00    +0.005 A 
ATOM     13  C   UNL     1       9.473   5.708  33.872  0.00  0.00    +0.005 A 
ATOM     14  C   UNL     1       8.886   3.257  32.685  0.00  0.00    +0.000 A 
ATOM     15  C   UNL     1       8.793   4.726  34.592  0.00  0.00    +0.000 A 
ATOM     16  C   UNL     1       8.502   3.500  33.999  0.00  0.00    +0.000 A 
ENDBRANCH  10  11
ENDBRANCH   1  10
TORSDOF 2
ENDMDL
MODEL 4
REMARK VINA RESULT:    -4.713     18.836     19.334
REMARK INTER + INTRA:          -5.394
REMARK INTER:                  -5.262
REMARK INTRA:                  -0.132
REMARK UNBOUND:                -0.130
REMARK  Name = 1550473
REMARK  2 active torsions:
REMARK  status: ('A' for Active; 'I' for Inactive)
REMARK    1  A    between atoms: N_1  and  C_4
REMARK    2  A    between atoms: C_4  and  C_5
REMARK                            x       y       z     vdW  Elec       q    Type
REMARK                         _______ _______ _______ _____ _____    ______ ____
ROOT
ATOM      1  N   UNL     1      -7.611   1.296   8.370  0.00  0.00    -0.354 N 
ATOM      2  N   UNL     1      -9.778   0.487   8.482  0.00  0.00    -0.372 N 
ATOM      3  N   UNL     1      -8.156  -0.503   9.769  0.00  0.00    -0.372 N 
ATOM      4  C   UNL     1      -8.500   0.430   8.874  0.00  0.00    +0.166 C 
ATOM      5  H   UNL     1      -7.929   1.960   7.673  0.00  0.00    +0.163 HD
ATOM      6  H   UNL     1     -10.472  -0.152   8.848  0.00  0.00    +0.159 HD
ATOM      7  H   UNL     1     -10.102   1.181   7.820  0.00  0.00    +0.159 HD
ATOM      8  H   UNL     1      -7.206  -0.603  10.101  0.00  0.00    +0.159 HD
ATOM      9  H   UNL     1      -8.834  -1.159  10.138  0.00  0.00    +0.159 HD
ENDROOT
BRANCH   1  10
ATOM     10  C   UNL     1      -6.207   1.353   8.771  0.00  0.00    +0.151 C 
BRANCH  10  11
ATOM     11  C   UNL     1      -5.719   2.771   8.651  0.00  0.00    -0.028 A 
ATOM     12  C   UNL     1      -6.631   3.830   8.529  0.00  0.00    +0.005 A 
ATOM     13  C   UNL     1      -4.346   3.063   8.665  0.00  0.00    +0.005 A 
ATOM     14  C   UNL     1      -6.180   5.149   8.448  0.00  0.00    +0.000 A 
ATOM     15  C   UNL     1      -3.900   4.382   8.583  0.00  0.00    +0.000 A 
ATOM     16  C   UNL     1      -4.817   5.425   8.477  0.00  0.00    +0.000 A 
ENDBRANCH  10  11
ENDBRANCH   1  10
TORSDOF 2
ENDMDL
MODEL 5
REMARK VINA RESULT:    -4.467     13.953     15.585
REMARK INTER + INTRA:          -5.119
REMARK INTER:                  -5.004
REMARK INTRA:                  -0.115
REMARK UNBOUND:                -0.130
REMARK  Name = 1550473
REMARK  2 active torsions:
REMARK  status: ('A' for Active; 'I' for Inactive)
REMARK    1  A    between atoms: N_1  and  C_4
REMARK    2  A    between atoms: C_4  and  C_5
REMARK                            x       y       z     vdW  Elec       q    Type
REMARK                         _______ _______ _______ _____ _____    ______ ____
ROOT
ATOM      1  N   UNL     1      -4.383  -4.166  15.098  0.00  0.00    -0.354 N 
ATOM      2  N   UNL     1      -6.420  -4.647  16.088  0.00  0.00    -0.372 N 
ATOM      3  N   UNL     1      -5.713  -2.466  16.010  0.00  0.00    -0.372 N 
ATOM      4  C   UNL     1      -5.492  -3.754  15.726  0.00  0.00    +0.166 C 
ATOM      5  H   UNL     1      -4.261  -5.159  14.938  0.00  0.00    +0.163 HD
ATOM      6  H   UNL     1      -7.269  -4.366  16.561  0.00  0.00    +0.159 HD
ATOM      7  H   UNL     1      -6.317  -5.634  15.887  0.00  0.00    +0.159 HD
ATOM      8  H   UNL     1      -5.049  -1.743  15.769  0.00  0.00    +0.159 HD
ATOM      9  H   UNL     1      -6.551  -2.166  16.493  0.00  0.00    +0.159 HD
ENDROOT
BRANCH   1  10
ATOM     10  C   UNL     1      -3.336  -3.268  14.613  0.00  0.00    +0.151 C 
BRANCH  10  11
ATOM     11  C   UNL     1      -2.859  -3.749  13.271  0.00  0.00    -0.028 A 
ATOM     12  C   UNL     1      -3.578  -3.440  12.107  0.00  0.00    +0.005 A 
ATOM     13  C   UNL     1      -1.685  -4.509  13.155  0.00  0.00    +0.005 A 
ATOM     14  C   UNL     1      -3.119  -3.860  10.856  0.00  0.00    +0.000 A 
ATOM     15  C   UNL     1      -1.231  -4.928  11.905  0.00  0.00    +0.000 A 
ATOM     16  C   UNL     1      -1.947  -4.602  10.756  0.00  0.00    +0.000 A 
ENDBRANCH  10  11
ENDBRANCH   1  10
TORSDOF 2
ENDMDL
MODEL 6
REMARK VINA RESULT:    -4.338     11.159     12.046
REMARK INTER + INTRA:          -4.975
REMARK INTER:                  -4.842
REMARK INTRA:                  -0.133
REMARK UNBOUND:                -0.130
REMARK  Name = 1550473
REMARK  2 active torsions:
REMARK  status: ('A' for Active; 'I' for Inactive)
REMARK    1  A    between atoms: N_1  and  C_4
REMARK    2  A    between atoms: C_4  and  C_5
REMARK                            x       y       z     vdW  Elec       q    Type
REMARK                         _______ _______ _______ _____ _____    ______ ____
ROOT
ATOM      1  N   UNL     1      -3.920  15.100  29.229  0.00  0.00    -0.354 N 
ATOM      2  N   UNL     1      -3.082  16.067  27.298  0.00  0.00    -0.372 N 
ATOM      3  N   UNL     1      -1.811  16.123  29.208  0.00  0.00    -0.372 N 
ATOM      4  C   UNL     1      -2.941  15.758  28.593  0.00  0.00    +0.166 C 
ATOM      5  H   UNL     1      -4.764  14.878  28.714  0.00  0.00    +0.163 HD
ATOM      6  H   UNL     1      -2.359  16.559  26.790  0.00  0.00    +0.159 HD
ATOM      7  H   UNL     1      -3.907  15.803  26.774  0.00  0.00    +0.159 HD
ATOM      8  H   UNL     1      -1.646  15.926  30.186  0.00  0.00    +0.159 HD
ATOM      9  H   UNL     1      -1.081  16.627  28.720  0.00  0.00    +0.159 HD
ENDROOT
BRANCH   1  10
ATOM     10  C   UNL     1      -3.843  14.670  30.623  0.00  0.00    +0.151 C 
BRANCH  10  11
ATOM     11  C   UNL     1      -4.596  13.378  30.781  0.00  0.00    -0.028 A 
ATOM     12  C   UNL     1      -5.042  12.672  29.654  0.00  0.00    +0.005 A 
ATOM     13  C   UNL     1      -4.862  12.851  32.054  0.00  0.00    +0.005 A 
ATOM     14  C   UNL     1      -5.716  11.456  29.798  0.00  0.00    +0.000 A 
ATOM     15  C   UNL     1      -5.536  11.638  32.194  0.00  0.00    +0.000 A 
ATOM     16  C   UNL     1      -5.960  10.940  31.066  0.00  0.00    +0.000 A 
ENDBRANCH  10  11
ENDBRANCH   1  10
TORSDOF 2
ENDMDL
MODEL 7
REMARK VINA RESULT:    -4.317     19.455     20.481
REMARK INTER + INTRA:          -4.952
REMARK INTER:                  -4.784
REMARK INTRA:                  -0.168
REMARK UNBOUND:                -0.130
REMARK  Name = 1550473
REMARK  2 active torsions:
REMARK  status: ('A' for Active; 'I' for Inactive)
REMARK    1  A    between atoms: N_1  and  C_4
REMARK    2  A    between atoms: C_4  and  C_5
REMARK                            x       y       z     vdW  Elec       q    Type
REMARK                         _______ _______ _______ _____ _____    ______ ____
ROOT
ATOM      1  N   UNL     1      13.543  15.082  30.328  0.00  0.00    -0.354 N 
ATOM      2  N   UNL     1      14.284  17.264  30.554  0.00  0.00    -0.372 N 
ATOM      3  N   UNL     1      12.418  16.853  29.285  0.00  0.00    -0.372 N 
ATOM      4  C   UNL     1      13.408  16.386  30.052  0.00  0.00    +0.166 C 
ATOM      5  H   UNL     1      14.332  14.788  30.892  0.00  0.00    +0.163 HD
ATOM      6  H   UNL     1      14.206  18.255  30.366  0.00  0.00    +0.159 HD
ATOM      7  H   UNL     1      15.046  16.973  31.154  0.00  0.00    +0.159 HD
ATOM      8  H   UNL     1      11.727  16.242  28.871  0.00  0.00    +0.159 HD
ATOM      9  H   UNL     1      12.329  17.840  29.075  0.00  0.00    +0.159 HD
ENDROOT
BRANCH   1  10
ATOM     10  C   UNL     1      12.611  14.050  29.876  0.00  0.00    +0.151 C 
BRANCH  10  11
ATOM     11  C   UNL     1      13.146  13.424  28.618  0.00  0.00    -0.028 A 
ATOM     12  C   UNL     1      14.476  12.986  28.550  0.00  0.00    +0.005 A 
ATOM     13  C   UNL     1      12.324  13.260  27.492  0.00  0.00    +0.005 A 
ATOM     14  C   UNL     1      14.965  12.377  27.391  0.00  0.00    +0.000 A 
ATOM     15  C   UNL     1      12.816  12.652  26.336  0.00  0.00    +0.000 A 
ATOM     16  C   UNL     1      14.135  12.209  26.287  0.00  0.00    +0.000 A 
ENDBRANCH  10  11
ENDBRANCH   1  10
TORSDOF 2
ENDMDL
MODEL 8
REMARK VINA RESULT:    -4.307     45.958     46.908
REMARK INTER + INTRA:          -4.941
REMARK INTER:                  -4.815
REMARK INTRA:                  -0.126
REMARK UNBOUND:                -0.130
REMARK  Name = 1550473
REMARK  2 active torsions:
REMARK  status: ('A' for Active; 'I' for Inactive)
REMARK    1  A    between atoms: N_1  and  C_4
REMARK    2  A    between atoms: C_4  and  C_5
REMARK                            x       y       z     vdW  Elec       q    Type
REMARK                         _______ _______ _______ _____ _____    ______ ____
ROOT
ATOM      1  N   UNL     1       2.122 -22.746 -12.842  0.00  0.00    -0.354 N 
ATOM      2  N   UNL     1       0.480 -24.288 -13.379  0.00  0.00    -0.372 N 
ATOM      3  N   UNL     1       0.651 -23.560 -11.210  0.00  0.00    -0.372 N 
ATOM      4  C   UNL     1       1.095 -23.521 -12.471  0.00  0.00    +0.166 C 
ATOM      5  H   UNL     1       2.429 -22.784 -13.807  0.00  0.00    +0.163 HD
ATOM      6  H   UNL     1      -0.300 -24.881 -13.129  0.00  0.00    +0.159 HD
ATOM      7  H   UNL     1       0.760 -24.290 -14.353  0.00  0.00    +0.159 HD
ATOM      8  H   UNL     1       1.076 -23.010 -10.476  0.00  0.00    +0.159 HD
ATOM      9  H   UNL     1      -0.121 -24.156 -10.938  0.00  0.00    +0.159 HD
ENDROOT
BRANCH   1  10
ATOM     10  C   UNL     1       2.825 -21.833 -11.942  0.00  0.00    +0.151 C 
BRANCH  10  11
ATOM     11  C   UNL     1       2.931 -20.483 -12.596  0.00  0.00    -0.028 A 
ATOM     12  C   UNL     1       4.066 -20.143 -13.347  0.00  0.00    +0.005 A 
ATOM     13  C   UNL     1       1.897 -19.542 -12.473  0.00  0.00    +0.005 A 
ATOM     14  C   UNL     1       4.151 -18.900 -13.979  0.00  0.00    +0.000 A 
ATOM     15  C   UNL     1       1.987 -18.302 -13.105  0.00  0.00    +0.000 A 
ATOM     16  C   UNL     1       3.113 -17.982 -13.860  0.00  0.00    +0.000 A 
ENDBRANCH  10  11
ENDBRANCH   1  10
TORSDOF 2
ENDMDL
MODEL 9
REMARK VINA RESULT:    -4.287      7.185      8.599
REMARK INTER + INTRA:          -4.919
REMARK INTER:                  -4.737
REMARK INTRA:                  -0.181
REMARK UNBOUND:                -0.130
REMARK  Name = 1550473
REMARK  2 active torsions:
REMARK  status: ('A' for Active; 'I' for Inactive)
REMARK    1  A    between atoms: N_1  and  C_4
REMARK    2  A    between atoms: C_4  and  C_5
REMARK                            x       y       z     vdW  Elec       q    Type
REMARK                         _______ _______ _______ _____ _____    ______ ____
ROOT
ATOM      1  N   UNL     1       5.485  -0.056  27.584  0.00  0.00    -0.354 N 
ATOM      2  N   UNL     1       7.513  -0.301  28.676  0.00  0.00    -0.372 N 
ATOM      3  N   UNL     1       7.409   1.042  26.818  0.00  0.00    -0.372 N 
ATOM      4  C   UNL     1       6.790   0.231  27.683  0.00  0.00    +0.166 C 
ATOM      5  H   UNL     1       5.082  -0.701  28.253  0.00  0.00    +0.163 HD
ATOM      6  H   UNL     1       8.499  -0.100  28.778  0.00  0.00    +0.159 HD
ATOM      7  H   UNL     1       7.097  -0.910  29.371  0.00  0.00    +0.159 HD
ATOM      8  H   UNL     1       6.922   1.471  26.043  0.00  0.00    +0.159 HD
ATOM      9  H   UNL     1       8.398   1.246  26.897  0.00  0.00    +0.159 HD
ENDROOT
BRANCH   1  10
ATOM     10  C   UNL     1       4.598   0.515  26.572  0.00  0.00    +0.151 C 
BRANCH  10  11
ATOM     11  C   UNL     1       3.780   1.611  27.197  0.00  0.00    -0.028 A 
ATOM     12  C   UNL     1       4.168   2.952  27.066  0.00  0.00    +0.005 A 
ATOM     13  C   UNL     1       2.612   1.315  27.918  0.00  0.00    +0.005 A 
ATOM     14  C   UNL     1       3.392   3.973  27.622  0.00  0.00    +0.000 A 
ATOM     15  C   UNL     1       1.841   2.336  28.471  0.00  0.00    +0.000 A 
ATOM     16  C   UNL     1       2.230   3.665  28.321  0.00  0.00    +0.000 A 
ENDBRANCH  10  11
ENDBRANCH   1  10
TORSDOF 2
ENDMDL
