MODEL 1
REMARK VINA RESULT:    -4.977      0.000      0.000
REMARK INTER + INTRA:          -5.670
REMARK INTER:                  -5.559
REMARK INTRA:                  -0.111
REMARK UNBOUND:                -0.111
REMARK  Name = 1550473
REMARK  2 active torsions:
REMARK  status: ('A' for Active; 'I' for Inactive)
REMARK    1  A    between atoms: N_1  and  C_4
REMARK    2  A    between atoms: C_4  and  C_5
REMARK                            x       y       z     vdW  Elec       q    Type
REMARK                         _______ _______ _______ _____ _____    ______ ____
ROOT
ATOM      1  N   UNL     1     -10.074  -0.713   1.432  0.00  0.00    -0.354 N 
ATOM      2  N   UNL     1     -10.406  -2.818   2.338  0.00  0.00    -0.372 N 
ATOM      3  N   UNL     1     -11.362  -1.004   3.368  0.00  0.00    -0.372 N 
ATOM      4  C   UNL     1     -10.613  -1.496   2.376  0.00  0.00    +0.166 C 
ATOM      5  H   UNL     1      -9.492  -1.144   0.723  0.00  0.00    +0.163 HD
ATOM      6  H   UNL     1     -10.802  -3.435   3.035  0.00  0.00    +0.159 HD
ATOM      7  H   UNL     1      -9.861  -3.251   1.603  0.00  0.00    +0.159 HD
ATOM      8  H   UNL     1     -11.551  -0.014   3.457  0.00  0.00    +0.159 HD
ATOM      9  H   UNL     1     -11.757  -1.604   4.081  0.00  0.00    +0.159 HD
ENDROOT
BRANCH   1  10
ATOM     10  C   UNL     1     -10.284   0.732   1.351  0.00  0.00    +0.151 C 
BRANCH  10  11
ATOM     11  C   UNL     1      -9.400   1.297   0.274  0.00  0.00    -0.028 A 
ATOM     12  C   UNL     1      -8.775   2.541   0.445  0.00  0.00    +0.005 A 
ATOM     13  C   UNL     1      -9.178   0.590  -0.918  0.00  0.00    +0.005 A 
ATOM     14  C   UNL     1      -7.930   3.052  -0.543  0.00  0.00    +0.000 A 
ATOM     15  C   UNL     1      -8.335   1.105  -1.903  0.00  0.00    +0.000 A 
ATOM     16  C   UNL     1      -7.709   2.334  -1.714  0.00  0.00    +0.000 A 
ENDBRANCH  10  11
ENDBRANCH   1  10
TORSDOF 2
ENDMDL
MODEL 2
REMARK VINA RESULT:    -4.771     12.719     14.022
REMARK INTER + INTRA:          -5.441
REMARK INTER:                  -5.297
REMARK INTRA:                  -0.144
REMARK UNBOUND:                -0.111
REMARK  Name = 1550473
REMARK  2 active torsions:
REMARK  status: ('A' for Active; 'I' for Inactive)
REMARK    1  A    between atoms: N_1  and  C_4
REMARK    2  A    between atoms: C_4  and  C_5
REMARK                            x       y       z     vdW  Elec       q    Type
REMARK                         _______ _______ _______ _____ _____    ______ ____
ROOT
ATOM      1  N   UNL     1      -5.905  10.424  -6.856  0.00  0.00    -0.354 N 
ATOM      2  N   UNL     1      -5.108   9.988  -8.987  0.00  0.00    -0.372 N 
ATOM      3  N   UNL     1      -3.693   9.729  -7.199  0.00  0.00    -0.372 N 
ATOM      4  C   UNL     1      -4.905  10.049  -7.665  0.00  0.00    +0.166 C 
ATOM      5  H   UNL     1      -6.791  10.683  -7.275  0.00  0.00    +0.163 HD
ATOM      6  H   UNL     1      -4.373   9.706  -9.622  0.00  0.00    +0.159 HD
ATOM      7  H   UNL     1      -6.008  10.203  -9.398  0.00  0.00    +0.159 HD
ATOM      8  H   UNL     1      -3.474   9.761  -6.212  0.00  0.00    +0.159 HD
ATOM      9  H   UNL     1      -2.942   9.455  -7.819  0.00  0.00    +0.159 HD
ENDROOT
BRANCH   1  10
ATOM     10  C   UNL     1      -5.804  10.471  -5.399  0.00  0.00    +0.151 C 
BRANCH  10  11
ATOM     11  C   UNL     1      -5.998  11.890  -4.939  0.00  0.00    -0.028 A 
ATOM     12  C   UNL     1      -5.027  12.522  -4.149  0.00  0.00    +0.005 A 
ATOM     13  C   UNL     1      -7.149  12.610  -5.296  0.00  0.00    +0.005 A 
ATOM     14  C   UNL     1      -5.193  13.849  -3.746  0.00  0.00    +0.000 A 
ATOM     15  C   UNL     1      -7.311  13.935  -4.892  0.00  0.00    +0.000 A 
ATOM     16  C   UNL     1      -6.332  14.555  -4.119  0.00  0.00    +0.000 A 
ENDBRANCH  10  11
ENDBRANCH   1  10
TORSDOF 2
ENDMDL
MODEL 3
REMARK VINA RESULT:    -4.640      8.551     10.136
REMARK INTER + INTRA:          -5.294
REMARK INTER:                  -5.187
REMARK INTRA:                  -0.107
REMARK UNBOUND:                -0.111
REMARK  Name = 1550473
REMARK  2 active torsions:
REMARK  status: ('A' for Active; 'I' for Inactive)
REMARK    1  A    between atoms: N_1  and  C_4
REMARK    2  A    between atoms: C_4  and  C_5
REMARK                            x       y       z     vdW  Elec       q    Type
REMARK                         _______ _______ _______ _____ _____    ______ ____
ROOT
ATOM      1  N   UNL     1      -3.950   9.339   3.471  0.00  0.00    -0.354 N 
ATOM      2  N   UNL     1      -3.519  10.104   5.614  0.00  0.00    -0.372 N 
ATOM      3  N   UNL     1      -1.767   9.375   4.323  0.00  0.00    -0.372 N 
ATOM      4  C   UNL     1      -3.079   9.600   4.454  0.00  0.00    +0.166 C 
ATOM      5  H   UNL     1      -4.935   9.504   3.644  0.00  0.00    +0.163 HD
ATOM      6  H   UNL     1      -2.885  10.315   6.373  0.00  0.00    +0.159 HD
ATOM      7  H   UNL     1      -4.498  10.311   5.767  0.00  0.00    +0.159 HD
ATOM      8  H   UNL     1      -1.372   8.990   3.476  0.00  0.00    +0.159 HD
ATOM      9  H   UNL     1      -1.118   9.568   5.076  0.00  0.00    +0.159 HD
ENDROOT
BRANCH   1  10
ATOM     10  C   UNL     1      -3.568   8.839   2.151  0.00  0.00    +0.151 C 
BRANCH  10  11
ATOM     11  C   UNL     1      -4.587   7.833   1.693  0.00  0.00    -0.028 A 
ATOM     12  C   UNL     1      -4.263   6.470   1.629  0.00  0.00    +0.005 A 
ATOM     13  C   UNL     1      -5.881   8.235   1.327  0.00  0.00    +0.005 A 
ATOM     14  C   UNL     1      -5.218   5.531   1.232  0.00  0.00    +0.000 A 
ATOM     15  C   UNL     1      -6.831   7.295   0.931  0.00  0.00    +0.000 A 
ATOM     16  C   UNL     1      -6.501   5.943   0.886  0.00  0.00    +0.000 A 
ENDBRANCH  10  11
ENDBRANCH   1  10
TORSDOF 2
ENDMDL
MODEL 4
REMARK VINA RESULT:    -4.374     18.820     20.172
REMARK INTER + INTRA:          -4.996
REMARK INTER:                  -4.882
REMARK INTRA:                  -0.114
REMARK UNBOUND:                -0.111
REMARK  Name = 1550473
REMARK  2 active torsions:
REMARK  status: ('A' for Active; 'I' for Inactive)
REMARK    1  A    between atoms: N_1  and  C_4
REMARK    2  A    between atoms: C_4  and  C_5
REMARK                            x       y       z     vdW  Elec       q    Type
REMARK                         _______ _______ _______ _____ _____    ______ ____
ROOT
ATOM      1  N   UNL     1       6.645   6.498 -10.847  0.00  0.00    -0.354 N 
ATOM      2  N   UNL     1       5.780   6.820 -12.971  0.00  0.00    -0.372 N 
ATOM      3  N   UNL     1       5.092   4.998 -11.759  0.00  0.00    -0.372 N 
ATOM      4  C   UNL     1       5.844   6.101 -11.845  0.00  0.00    +0.166 C 
ATOM      5  H   UNL     1       7.212   7.327 -10.986  0.00  0.00    +0.163 HD
ATOM      6  H   UNL     1       5.182   6.547 -13.740  0.00  0.00    +0.159 HD
ATOM      7  H   UNL     1       6.313   7.673 -13.090  0.00  0.00    +0.159 HD
ATOM      8  H   UNL     1       5.099   4.408 -10.938  0.00  0.00    +0.159 HD
ATOM      9  H   UNL     1       4.496   4.702 -12.522  0.00  0.00    +0.159 HD
ENDROOT
BRANCH   1  10
ATOM     10  C   UNL     1       6.746   5.815  -9.559  0.00  0.00    +0.151 C 
BRANCH  10  11
ATOM     11  C   UNL     1       6.705   6.837  -8.456  0.00  0.00    -0.028 A 
ATOM     12  C   UNL     1       5.704   6.785  -7.474  0.00  0.00    +0.005 A 
ATOM     13  C   UNL     1       7.666   7.857  -8.385  0.00  0.00    +0.005 A 
ATOM     14  C   UNL     1       5.683   7.716  -6.433  0.00  0.00    +0.000 A 
ATOM     15  C   UNL     1       7.640   8.786  -7.345  0.00  0.00    +0.000 A 
ATOM     16  C   UNL     1       6.650   8.714  -6.368  0.00  0.00    +0.000 A 
ENDBRANCH  10  11
ENDBRANCH   1  10
TORSDOF 2
ENDMDL
MODEL 5
REMARK VINA RESULT:    -4.331      6.212      7.697
REMARK INTER + INTRA:          -4.948
REMARK INTER:                  -4.812
REMARK INTRA:                  -0.136
REMARK UNBOUND:                -0.111
REMARK  Name = 1550473
REMARK  2 active torsions:
REMARK  status: ('A' for Active; 'I' for Inactive)
REMARK    1  A    between atoms: N_1  and  C_4
REMARK    2  A    between atoms: C_4  and  C_5
REMARK                            x       y       z     vdW  Elec       q    Type
REMARK                         _______ _______ _______ _____ _____    ______ ____
ROOT
ATOM      1  N   UNL     1      -5.084   4.334  -0.334  0.00  0.00    -0.354 N 
ATOM      2  N   UNL     1      -3.809   3.286  -1.959  0.00  0.00    -0.372 N 
ATOM      3  N   UNL     1      -5.958   3.908  -2.466  0.00  0.00    -0.372 N 
ATOM      4  C   UNL     1      -4.961   3.850  -1.577  0.00  0.00    +0.166 C 
ATOM      5  H   UNL     1      -4.301   4.232   0.302  0.00  0.00    +0.163 HD
ATOM      6  H   UNL     1      -3.685   2.915  -2.891  0.00  0.00    +0.159 HD
ATOM      7  H   UNL     1      -3.012   3.226  -1.335  0.00  0.00    +0.159 HD
ATOM      8  H   UNL     1      -6.855   4.316  -2.239  0.00  0.00    +0.159 HD
ATOM      9  H   UNL     1      -5.858   3.532  -3.400  0.00  0.00    +0.159 HD
ENDROOT
BRANCH   1  10
ATOM     10  C   UNL     1      -6.277   5.015   0.164  0.00  0.00    +0.151 C 
BRANCH  10  11
ATOM     11  C   UNL     1      -5.896   6.391   0.638  0.00  0.00    -0.028 A 
ATOM     12  C   UNL     1      -4.759   6.579   1.436  0.00  0.00    +0.005 A 
ATOM     13  C   UNL     1      -6.665   7.511   0.286  0.00  0.00    +0.005 A 
ATOM     14  C   UNL     1      -4.387   7.860   1.851  0.00  0.00    +0.000 A 
ATOM     15  C   UNL     1      -6.292   8.788   0.704  0.00  0.00    +0.000 A 
ATOM     16  C   UNL     1      -5.151   8.963   1.484  0.00  0.00    +0.000 A 
ENDBRANCH  10  11
ENDBRANCH   1  10
TORSDOF 2
ENDMDL
MODEL 6
REMARK VINA RESULT:    -4.276     13.784     14.828
REMARK INTER + INTRA:          -4.888
REMARK INTER:                  -4.748
REMARK INTRA:                  -0.140
REMARK UNBOUND:                -0.111
REMARK  Name = 1550473
REMARK  2 active torsions:
REMARK  status: ('A' for Active; 'I' for Inactive)
REMARK    1  A    between atoms: N_1  and  C_4
REMARK    2  A    between atoms: C_4  and  C_5
REMARK                            x       y       z     vdW  Elec       q    Type
REMARK                         _______ _______ _______ _____ _____    ______ ____
ROOT
ATOM      1  N   UNL     1       3.877   4.012   3.673  0.00  0.00    -0.354 N 
ATOM      2  N   UNL     1       4.045   6.266   3.169  0.00  0.00    -0.372 N 
ATOM      3  N   UNL     1       5.892   5.169   3.976  0.00  0.00    -0.372 N 
ATOM      4  C   UNL     1       4.606   5.134   3.611  0.00  0.00    +0.166 C 
ATOM      5  H   UNL     1       2.899   4.058   3.410  0.00  0.00    +0.163 HD
ATOM      6  H   UNL     1       4.571   7.127   3.108  0.00  0.00    +0.159 HD
ATOM      7  H   UNL     1       3.080   6.299   2.863  0.00  0.00    +0.159 HD
ATOM      8  H   UNL     1       6.372   4.350   4.324  0.00  0.00    +0.159 HD
ATOM      9  H   UNL     1       6.432   6.024   3.933  0.00  0.00    +0.159 HD
ENDROOT
BRANCH   1  10
ATOM     10  C   UNL     1       4.407   2.714   4.088  0.00  0.00    +0.151 C 
BRANCH  10  11
ATOM     11  C   UNL     1       3.460   2.091   5.076  0.00  0.00    -0.028 A 
ATOM     12  C   UNL     1       3.228   0.707   5.064  0.00  0.00    +0.005 A 
ATOM     13  C   UNL     1       2.797   2.877   6.031  0.00  0.00    +0.005 A 
ATOM     14  C   UNL     1       2.372   0.124   6.002  0.00  0.00    +0.000 A 
ATOM     15  C   UNL     1       1.942   2.290   6.965  0.00  0.00    +0.000 A 
ATOM     16  C   UNL     1       1.732   0.913   6.951  0.00  0.00    +0.000 A 
ENDBRANCH  10  11
ENDBRANCH   1  10
TORSDOF 2
ENDMDL
MODEL 7
REMARK VINA RESULT:    -4.231     30.756     31.822
REMARK INTER + INTRA:          -4.837
REMARK INTER:                  -4.712
REMARK INTRA:                  -0.125
REMARK UNBOUND:                -0.111
REMARK  Name = 1550473
REMARK  2 active torsions:
REMARK  status: ('A' for Active; 'I' for Inactive)
REMARK    1  A    between atoms: N_1  and  C_4
REMARK    2  A    between atoms: C_4  and  C_5
REMARK                            x       y       z     vdW  Elec       q    Type
REMARK                         _______ _______ _______ _____ _____    ______ ____
ROOT
ATOM      1  N   UNL     1      20.988  -8.639  -7.169  0.00  0.00    -0.354 N 
ATOM      2  N   UNL     1      20.956 -10.648  -6.018  0.00  0.00    -0.372 N 
ATOM      3  N   UNL     1      20.472 -10.648  -8.261  0.00  0.00    -0.372 N 
ATOM      4  C   UNL     1      20.804  -9.966  -7.159  0.00  0.00    +0.166 C 
ATOM      5  H   UNL     1      21.209  -8.177  -6.294  0.00  0.00    +0.163 HD
ATOM      6  H   UNL     1      20.828 -11.651  -5.980  0.00  0.00    +0.159 HD
ATOM      7  H   UNL     1      21.223 -10.191  -5.155  0.00  0.00    +0.159 HD
ATOM      8  H   UNL     1      20.336 -10.191  -9.153  0.00  0.00    +0.159 HD
ATOM      9  H   UNL     1      20.327 -11.649  -8.241  0.00  0.00    +0.159 HD
ENDROOT
BRANCH   1  10
ATOM     10  C   UNL     1      20.899  -7.810  -8.370  0.00  0.00    +0.151 C 
BRANCH  10  11
ATOM     11  C   UNL     1      20.257  -6.498  -8.015  0.00  0.00    -0.028 A 
ATOM     12  C   UNL     1      19.499  -5.796  -8.964  0.00  0.00    +0.005 A 
ATOM     13  C   UNL     1      20.397  -5.953  -6.729  0.00  0.00    +0.005 A 
ATOM     14  C   UNL     1      18.877  -4.592  -8.626  0.00  0.00    +0.000 A 
ATOM     15  C   UNL     1      19.775  -4.750  -6.396  0.00  0.00    +0.000 A 
ATOM     16  C   UNL     1      19.013  -4.071  -7.343  0.00  0.00    +0.000 A 
ENDBRANCH  10  11
ENDBRANCH   1  10
TORSDOF 2
ENDMDL
MODEL 8
REMARK VINA RESULT:    -4.204      8.320      9.613
REMARK INTER + INTRA:          -4.807
REMARK INTER:                  -4.669
REMARK INTRA:                  -0.138
REMARK UNBOUND:                -0.111
REMARK  Name = 1550473
REMARK  2 active torsions:
REMARK  status: ('A' for Active; 'I' for Inactive)
REMARK    1  A    between atoms: N_1  and  C_4
REMARK    2  A    between atoms: C_4  and  C_5
REMARK                            x       y       z     vdW  Elec       q    Type
REMARK                         _______ _______ _______ _____ _____    ______ ____
ROOT
ATOM      1  N   UNL     1      -2.296   6.958   2.205  0.00  0.00    -0.354 N 
ATOM      2  N   UNL     1      -1.862   6.259   4.370  0.00  0.00    -0.372 N 
ATOM      3  N   UNL     1      -2.384   8.463   3.999  0.00  0.00    -0.372 N 
ATOM      4  C   UNL     1      -2.184   7.234   3.511  0.00  0.00    +0.166 C 
ATOM      5  H   UNL     1      -2.101   6.013   1.894  0.00  0.00    +0.163 HD
ATOM      6  H   UNL     1      -1.774   6.437   5.362  0.00  0.00    +0.159 HD
ATOM      7  H   UNL     1      -1.714   5.306   4.063  0.00  0.00    +0.159 HD
ATOM      8  H   UNL     1      -2.624   9.243   3.403  0.00  0.00    +0.159 HD
ATOM      9  H   UNL     1      -2.289   8.663   4.987  0.00  0.00    +0.159 HD
ENDROOT
BRANCH   1  10
ATOM     10  C   UNL     1      -2.693   7.936   1.194  0.00  0.00    +0.151 C 
BRANCH  10  11
ATOM     11  C   UNL     1      -4.189   7.899   1.036  0.00  0.00    -0.028 A 
ATOM     12  C   UNL     1      -4.911   9.081   0.820  0.00  0.00    +0.005 A 
ATOM     13  C   UNL     1      -4.888   6.684   1.097  0.00  0.00    +0.005 A 
ATOM     14  C   UNL     1      -6.296   9.044   0.644  0.00  0.00    +0.000 A 
ATOM     15  C   UNL     1      -6.271   6.651   0.921  0.00  0.00    +0.000 A 
ATOM     16  C   UNL     1      -6.975   7.831   0.692  0.00  0.00    +0.000 A 
ENDBRANCH  10  11
ENDBRANCH   1  10
TORSDOF 2
ENDMDL
MODEL 9
REMARK VINA RESULT:    -4.183     13.142     14.154
REMARK INTER + INTRA:          -4.784
REMARK INTER:                  -4.611
REMARK INTRA:                  -0.173
REMARK UNBOUND:                -0.111
REMARK  Name = 1550473
REMARK  2 active torsions:
REMARK  status: ('A' for Active; 'I' for Inactive)
REMARK    1  A    between atoms: N_1  and  C_4
REMARK    2  A    between atoms: C_4  and  C_5
REMARK                            x       y       z     vdW  Elec       q    Type
REMARK                         _______ _______ _______ _____ _____    ______ ____
ROOT
ATOM      1  N   UNL     1       1.951   5.322   5.794  0.00  0.00    -0.354 N 
ATOM      2  N   UNL     1       2.137   6.292   3.699  0.00  0.00    -0.372 N 
ATOM      3  N   UNL     1       4.048   5.673   4.808  0.00  0.00    -0.372 N 
ATOM      4  C   UNL     1       2.713   5.756   4.781  0.00  0.00    +0.166 C 
ATOM      5  H   UNL     1       0.946   5.441   5.725  0.00  0.00    +0.163 HD
ATOM      6  H   UNL     1       2.686   6.625   2.918  0.00  0.00    +0.159 HD
ATOM      7  H   UNL     1       1.130   6.368   3.613  0.00  0.00    +0.159 HD
ATOM      8  H   UNL     1       4.544   5.284   5.599  0.00  0.00    +0.159 HD
ATOM      9  H   UNL     1       4.615   6.012   4.041  0.00  0.00    +0.159 HD
ENDROOT
BRANCH   1  10
ATOM     10  C   UNL     1       2.476   4.673   6.994  0.00  0.00    +0.151 C 
BRANCH  10  11
ATOM     11  C   UNL     1       2.154   3.206   6.940  0.00  0.00    -0.028 A 
ATOM     12  C   UNL     1       3.144   2.271   6.605  0.00  0.00    +0.005 A 
ATOM     13  C   UNL     1       0.861   2.742   7.229  0.00  0.00    +0.005 A 
ATOM     14  C   UNL     1       2.853   0.905   6.584  0.00  0.00    +0.000 A 
ATOM     15  C   UNL     1       0.574   1.378   7.207  0.00  0.00    +0.000 A 
ATOM     16  C   UNL     1       1.571   0.459   6.887  0.00  0.00    +0.000 A 
ENDBRANCH  10  11
ENDBRANCH   1  10
TORSDOF 2
ENDMDL
