MODEL 1
REMARK VINA RESULT:    -5.545      0.000      0.000
REMARK INTER + INTRA:          -6.343
REMARK INTER:                  -6.194
REMARK INTRA:                  -0.149
REMARK UNBOUND:                -0.149
REMARK  Name = 1550473
REMARK  2 active torsions:
REMARK  status: ('A' for Active; 'I' for Inactive)
REMARK    1  A    between atoms: N_1  and  C_4
REMARK    2  A    between atoms: C_4  and  C_5
REMARK                            x       y       z     vdW  Elec       q    Type
REMARK                         _______ _______ _______ _____ _____    ______ ____
ROOT
ATOM      1  N   UNL     1      12.386   9.668  57.507  0.00  0.00    -0.354 N 
ATOM      2  N   UNL     1      14.602   9.666  56.836  0.00  0.00    -0.372 N 
ATOM      3  N   UNL     1      13.894   8.073  58.328  0.00  0.00    -0.372 N 
ATOM      4  C   UNL     1      13.613   9.134  57.563  0.00  0.00    +0.166 C 
ATOM      5  H   UNL     1      12.245  10.491  56.932  0.00  0.00    +0.163 HD
ATOM      6  H   UNL     1      15.538   9.282  56.855  0.00  0.00    +0.159 HD
ATOM      7  H   UNL     1      14.448  10.460  56.226  0.00  0.00    +0.159 HD
ATOM      8  H   UNL     1      13.193   7.628  58.905  0.00  0.00    +0.159 HD
ATOM      9  H   UNL     1      14.827   7.682  58.369  0.00  0.00    +0.159 HD
ENDROOT
BRANCH   1  10
ATOM     10  C   UNL     1      11.227   9.131  58.219  0.00  0.00    +0.151 C 
BRANCH  10  11
ATOM     11  C   UNL     1      10.680  10.190  59.136  0.00  0.00    -0.028 A 
ATOM     12  C   UNL     1       9.756   9.856  60.137  0.00  0.00    +0.005 A 
ATOM     13  C   UNL     1      11.086  11.528  59.013  0.00  0.00    +0.005 A 
ATOM     14  C   UNL     1       9.271  10.834  61.009  0.00  0.00    +0.000 A 
ATOM     15  C   UNL     1      10.599  12.501  59.885  0.00  0.00    +0.000 A 
ATOM     16  C   UNL     1       9.693  12.153  60.885  0.00  0.00    +0.000 A 
ENDBRANCH  10  11
ENDBRANCH   1  10
TORSDOF 2
ENDMDL
MODEL 2
REMARK VINA RESULT:    -4.679     81.181     82.554
REMARK INTER + INTRA:          -5.375
REMARK INTER:                  -5.263
REMARK INTRA:                  -0.112
REMARK UNBOUND:                -0.149
REMARK  Name = 1550473
REMARK  2 active torsions:
REMARK  status: ('A' for Active; 'I' for Inactive)
REMARK    1  A    between atoms: N_1  and  C_4
REMARK    2  A    between atoms: C_4  and  C_5
REMARK                            x       y       z     vdW  Elec       q    Type
REMARK                         _______ _______ _______ _____ _____    ______ ____
ROOT
ATOM      1  N   UNL     1      -0.126 -16.240 -19.286  0.00  0.00    -0.354 N 
ATOM      2  N   UNL     1       1.516 -17.809 -19.743  0.00  0.00    -0.372 N 
ATOM      3  N   UNL     1      -0.083 -17.382 -21.332  0.00  0.00    -0.372 N 
ATOM      4  C   UNL     1       0.423 -17.133 -20.120  0.00  0.00    +0.166 C 
ATOM      5  H   UNL     1       0.288 -16.120 -18.369  0.00  0.00    +0.163 HD
ATOM      6  H   UNL     1       1.954 -18.486 -20.352  0.00  0.00    +0.159 HD
ATOM      7  H   UNL     1       1.954 -17.653 -18.844  0.00  0.00    +0.159 HD
ATOM      8  H   UNL     1      -0.910 -16.910 -21.674  0.00  0.00    +0.159 HD
ATOM      9  H   UNL     1       0.334 -18.065 -21.952  0.00  0.00    +0.159 HD
ENDROOT
BRANCH   1  10
ATOM     10  C   UNL     1      -1.285 -15.414 -19.621  0.00  0.00    +0.151 C 
BRANCH  10  11
ATOM     11  C   UNL     1      -1.533 -14.440 -18.502  0.00  0.00    -0.028 A 
ATOM     12  C   UNL     1      -1.978 -13.138 -18.776  0.00  0.00    +0.005 A 
ATOM     13  C   UNL     1      -1.331 -14.815 -17.165  0.00  0.00    +0.005 A 
ATOM     14  C   UNL     1      -2.237 -12.243 -17.736  0.00  0.00    +0.000 A 
ATOM     15  C   UNL     1      -1.591 -13.918 -16.129  0.00  0.00    +0.000 A 
ATOM     16  C   UNL     1      -2.046 -12.633 -16.414  0.00  0.00    +0.000 A 
ENDBRANCH  10  11
ENDBRANCH   1  10
TORSDOF 2
ENDMDL
MODEL 3
REMARK VINA RESULT:    -4.484     27.608     28.744
REMARK INTER + INTRA:          -5.157
REMARK INTER:                  -5.021
REMARK INTRA:                  -0.136
REMARK UNBOUND:                -0.149
REMARK  Name = 1550473
REMARK  2 active torsions:
REMARK  status: ('A' for Active; 'I' for Inactive)
REMARK    1  A    between atoms: N_1  and  C_4
REMARK    2  A    between atoms: C_4  and  C_5
REMARK                            x       y       z     vdW  Elec       q    Type
REMARK                         _______ _______ _______ _____ _____    ______ ____
ROOT
ATOM      1  N   UNL     1      11.665  17.718  32.624  0.00  0.00    -0.354 N 
ATOM      2  N   UNL     1      11.968  18.504  34.782  0.00  0.00    -0.372 N 
ATOM      3  N   UNL     1      10.867  16.516  34.470  0.00  0.00    -0.372 N 
ATOM      4  C   UNL     1      11.496  17.572  33.945  0.00  0.00    +0.166 C 
ATOM      5  H   UNL     1      12.125  18.557  32.288  0.00  0.00    +0.163 HD
ATOM      6  H   UNL     1      11.859  18.419  35.783  0.00  0.00    +0.159 HD
ATOM      7  H   UNL     1      12.467  19.319  34.445  0.00  0.00    +0.159 HD
ATOM      8  H   UNL     1      10.482  15.780  33.893  0.00  0.00    +0.159 HD
ATOM      9  H   UNL     1      10.737  16.419  35.470  0.00  0.00    +0.159 HD
ENDROOT
BRANCH   1  10
ATOM     10  C   UNL     1      11.237  16.735  31.631  0.00  0.00    +0.151 C 
BRANCH  10  11
ATOM     11  C   UNL     1      10.275  17.387  30.677  0.00  0.00    -0.028 A 
ATOM     12  C   UNL     1       9.258  18.228  31.155  0.00  0.00    +0.005 A 
ATOM     13  C   UNL     1      10.377  17.172  29.294  0.00  0.00    +0.005 A 
ATOM     14  C   UNL     1       8.383  18.857  30.267  0.00  0.00    +0.000 A 
ATOM     15  C   UNL     1       9.500  17.802  28.411  0.00  0.00    +0.000 A 
ATOM     16  C   UNL     1       8.505  18.647  28.897  0.00  0.00    +0.000 A 
ENDBRANCH  10  11
ENDBRANCH   1  10
TORSDOF 2
ENDMDL
MODEL 4
REMARK VINA RESULT:    -4.257    110.592    111.878
REMARK INTER + INTRA:          -4.904
REMARK INTER:                  -4.770
REMARK INTRA:                  -0.134
REMARK UNBOUND:                -0.149
REMARK  Name = 1550473
REMARK  2 active torsions:
REMARK  status: ('A' for Active; 'I' for Inactive)
REMARK    1  A    between atoms: N_1  and  C_4
REMARK    2  A    between atoms: C_4  and  C_5
REMARK                            x       y       z     vdW  Elec       q    Type
REMARK                         _______ _______ _______ _____ _____    ______ ____
ROOT
ATOM      1  N   UNL     1      -7.686 -13.988 -49.117  0.00  0.00    -0.354 N 
ATOM      2  N   UNL     1      -9.947 -13.746 -48.681  0.00  0.00    -0.372 N 
ATOM      3  N   UNL     1      -9.093 -12.878 -50.626  0.00  0.00    -0.372 N 
ATOM      4  C   UNL     1      -8.894 -13.538 -49.480  0.00  0.00    +0.166 C 
ATOM      5  H   UNL     1      -7.595 -14.454 -48.221  0.00  0.00    +0.163 HD
ATOM      6  H   UNL     1     -10.872 -13.421 -48.931  0.00  0.00    +0.159 HD
ATOM      7  H   UNL     1      -9.862 -14.252 -47.808  0.00  0.00    +0.159 HD
ATOM      8  H   UNL     1      -8.339 -12.684 -51.271  0.00  0.00    +0.159 HD
ATOM      9  H   UNL     1     -10.009 -12.535 -50.888  0.00  0.00    +0.159 HD
ENDROOT
BRANCH   1  10
ATOM     10  C   UNL     1      -6.484 -13.860 -49.940  0.00  0.00    +0.151 C 
BRANCH  10  11
ATOM     11  C   UNL     1      -5.435 -13.112 -49.164  0.00  0.00    -0.028 A 
ATOM     12  C   UNL     1      -4.878 -13.666 -48.002  0.00  0.00    +0.005 A 
ATOM     13  C   UNL     1      -4.989 -11.852 -49.590  0.00  0.00    +0.005 A 
ATOM     14  C   UNL     1      -3.882 -12.985 -47.298  0.00  0.00    +0.000 A 
ATOM     15  C   UNL     1      -3.995 -11.174 -48.883  0.00  0.00    +0.000 A 
ATOM     16  C   UNL     1      -3.440 -11.743 -47.739  0.00  0.00    +0.000 A 
ENDBRANCH  10  11
ENDBRANCH   1  10
TORSDOF 2
ENDMDL
MODEL 5
REMARK VINA RESULT:    -4.171     87.907     88.670
REMARK INTER + INTRA:          -4.808
REMARK INTER:                  -4.663
REMARK INTRA:                  -0.144
REMARK UNBOUND:                -0.149
REMARK  Name = 1550473
REMARK  2 active torsions:
REMARK  status: ('A' for Active; 'I' for Inactive)
REMARK    1  A    between atoms: N_1  and  C_4
REMARK    2  A    between atoms: C_4  and  C_5
REMARK                            x       y       z     vdW  Elec       q    Type
REMARK                         _______ _______ _______ _____ _____    ______ ____
ROOT
ATOM      1  N   UNL     1     -25.002  19.321 -20.121  0.00  0.00    -0.354 N 
ATOM      2  N   UNL     1     -22.983  18.521 -19.315  0.00  0.00    -0.372 N 
ATOM      3  N   UNL     1     -24.786  18.611 -17.898  0.00  0.00    -0.372 N 
ATOM      4  C   UNL     1     -24.272  18.823 -19.114  0.00  0.00    +0.166 C 
ATOM      5  H   UNL     1     -24.545  19.487 -21.011  0.00  0.00    +0.163 HD
ATOM      6  H   UNL     1     -22.408  18.140 -18.576  0.00  0.00    +0.159 HD
ATOM      7  H   UNL     1     -22.542  18.644 -20.218  0.00  0.00    +0.159 HD
ATOM      8  H   UNL     1     -25.750  18.824 -17.680  0.00  0.00    +0.159 HD
ATOM      9  H   UNL     1     -24.223  18.242 -17.142  0.00  0.00    +0.159 HD
ENDROOT
BRANCH   1  10
ATOM     10  C   UNL     1     -26.426  19.633 -20.022  0.00  0.00    +0.151 C 
BRANCH  10  11
ATOM     11  C   UNL     1     -27.190  18.747 -20.966  0.00  0.00    -0.028 A 
ATOM     12  C   UNL     1     -27.146  17.352 -20.827  0.00  0.00    +0.005 A 
ATOM     13  C   UNL     1     -27.965  19.296 -22.000  0.00  0.00    +0.005 A 
ATOM     14  C   UNL     1     -27.879  16.529 -21.686  0.00  0.00    +0.000 A 
ATOM     15  C   UNL     1     -28.695  18.471 -22.855  0.00  0.00    +0.000 A 
ATOM     16  C   UNL     1     -28.654  17.088 -22.697  0.00  0.00    +0.000 A 
ENDBRANCH  10  11
ENDBRANCH   1  10
TORSDOF 2
ENDMDL
MODEL 6
REMARK VINA RESULT:    -4.122     34.250     35.649
REMARK INTER + INTRA:          -4.753
REMARK INTER:                  -4.595
REMARK INTRA:                  -0.158
REMARK UNBOUND:                -0.149
REMARK  Name = 1550473
REMARK  2 active torsions:
REMARK  status: ('A' for Active; 'I' for Inactive)
REMARK    1  A    between atoms: N_1  and  C_4
REMARK    2  A    between atoms: C_4  and  C_5
REMARK                            x       y       z     vdW  Elec       q    Type
REMARK                         _______ _______ _______ _____ _____    ______ ____
ROOT
ATOM      1  N   UNL     1       5.157   5.568  25.972  0.00  0.00    -0.354 N 
ATOM      2  N   UNL     1       3.089   5.832  26.980  0.00  0.00    -0.372 N 
ATOM      3  N   UNL     1       4.274   3.905  27.367  0.00  0.00    -0.372 N 
ATOM      4  C   UNL     1       4.188   5.097  26.767  0.00  0.00    +0.166 C 
ATOM      5  H   UNL     1       5.018   6.466  25.523  0.00  0.00    +0.163 HD
ATOM      6  H   UNL     1       2.342   5.505  27.578  0.00  0.00    +0.159 HD
ATOM      7  H   UNL     1       2.973   6.749  26.567  0.00  0.00    +0.159 HD
ATOM      8  H   UNL     1       5.074   3.300  27.242  0.00  0.00    +0.159 HD
ATOM      9  H   UNL     1       3.532   3.555  27.960  0.00  0.00    +0.159 HD
ENDROOT
BRANCH   1  10
ATOM     10  C   UNL     1       6.417   4.871  25.717  0.00  0.00    +0.151 C 
BRANCH  10  11
ATOM     11  C   UNL     1       6.544   4.609  24.242  0.00  0.00    -0.028 A 
ATOM     12  C   UNL     1       5.671   3.719  23.599  0.00  0.00    +0.005 A 
ATOM     13  C   UNL     1       7.531   5.253  23.480  0.00  0.00    +0.005 A 
ATOM     14  C   UNL     1       5.770   3.499  22.223  0.00  0.00    +0.000 A 
ATOM     15  C   UNL     1       7.627   5.030  22.107  0.00  0.00    +0.000 A 
ATOM     16  C   UNL     1       6.745   4.154  21.478  0.00  0.00    +0.000 A 
ENDBRANCH  10  11
ENDBRANCH   1  10
TORSDOF 2
ENDMDL
MODEL 7
REMARK VINA RESULT:    -4.068     90.601     92.129
REMARK INTER + INTRA:          -4.692
REMARK INTER:                  -4.561
REMARK INTRA:                  -0.131
REMARK UNBOUND:                -0.149
REMARK  Name = 1550473
REMARK  2 active torsions:
REMARK  status: ('A' for Active; 'I' for Inactive)
REMARK    1  A    between atoms: N_1  and  C_4
REMARK    2  A    between atoms: C_4  and  C_5
REMARK                            x       y       z     vdW  Elec       q    Type
REMARK                         _______ _______ _______ _____ _____    ______ ____
ROOT
ATOM      1  N   UNL     1      -0.953 -21.295 -24.831  0.00  0.00    -0.354 N 
ATOM      2  N   UNL     1      -1.762 -21.326 -22.661  0.00  0.00    -0.372 N 
ATOM      3  N   UNL     1       0.457 -21.788 -23.024  0.00  0.00    -0.372 N 
ATOM      4  C   UNL     1      -0.745 -21.470 -23.519  0.00  0.00    +0.166 C 
ATOM      5  H   UNL     1      -1.893 -21.085 -25.145  0.00  0.00    +0.163 HD
ATOM      6  H   UNL     1      -1.634 -21.449 -21.665  0.00  0.00    +0.159 HD
ATOM      7  H   UNL     1      -2.690 -21.071 -22.973  0.00  0.00    +0.159 HD
ATOM      8  H   UNL     1       1.264 -21.917 -23.619  0.00  0.00    +0.159 HD
ATOM      9  H   UNL     1       0.601 -21.926 -22.032  0.00  0.00    +0.159 HD
ENDROOT
BRANCH   1  10
ATOM     10  C   UNL     1       0.099 -21.376 -25.843  0.00  0.00    +0.151 C 
BRANCH  10  11
ATOM     11  C   UNL     1      -0.500 -21.858 -27.136  0.00  0.00    -0.028 A 
ATOM     12  C   UNL     1       0.299 -22.009 -28.278  0.00  0.00    +0.005 A 
ATOM     13  C   UNL     1      -1.866 -22.171 -27.222  0.00  0.00    +0.005 A 
ATOM     14  C   UNL     1      -0.251 -22.485 -29.471  0.00  0.00    +0.000 A 
ATOM     15  C   UNL     1      -2.411 -22.646 -28.415  0.00  0.00    +0.000 A 
ATOM     16  C   UNL     1      -1.603 -22.805 -29.539  0.00  0.00    +0.000 A 
ENDBRANCH  10  11
ENDBRANCH   1  10
TORSDOF 2
ENDMDL
MODEL 8
REMARK VINA RESULT:    -4.060     10.778     11.859
REMARK INTER + INTRA:          -4.683
REMARK INTER:                  -4.534
REMARK INTRA:                  -0.149
REMARK UNBOUND:                -0.149
REMARK  Name = 1550473
REMARK  2 active torsions:
REMARK  status: ('A' for Active; 'I' for Inactive)
REMARK    1  A    between atoms: N_1  and  C_4
REMARK    2  A    between atoms: C_4  and  C_5
REMARK                            x       y       z     vdW  Elec       q    Type
REMARK                         _______ _______ _______ _____ _____    ______ ____
ROOT
ATOM      1  N   UNL     1       2.018  18.067  56.741  0.00  0.00    -0.354 N 
ATOM      2  N   UNL     1       0.449  16.599  55.876  0.00  0.00    -0.372 N 
ATOM      3  N   UNL     1       2.632  16.418  55.193  0.00  0.00    -0.372 N 
ATOM      4  C   UNL     1       1.712  17.037  55.941  0.00  0.00    +0.166 C 
ATOM      5  H   UNL     1       1.270  18.513  57.259  0.00  0.00    +0.163 HD
ATOM      6  H   UNL     1       0.189  15.822  55.285  0.00  0.00    +0.159 HD
ATOM      7  H   UNL     1      -0.289  17.017  56.431  0.00  0.00    +0.159 HD
ATOM      8  H   UNL     1       3.602  16.704  55.192  0.00  0.00    +0.159 HD
ATOM      9  H   UNL     1       2.389  15.646  54.585  0.00  0.00    +0.159 HD
ENDROOT
BRANCH   1  10
ATOM     10  C   UNL     1       3.372  18.586  56.924  0.00  0.00    +0.151 C 
BRANCH  10  11
ATOM     11  C   UNL     1       3.762  18.443  58.369  0.00  0.00    -0.028 A 
ATOM     12  C   UNL     1       5.112  18.463  58.748  0.00  0.00    +0.005 A 
ATOM     13  C   UNL     1       2.785  18.292  59.365  0.00  0.00    +0.005 A 
ATOM     14  C   UNL     1       5.473  18.360  60.093  0.00  0.00    +0.000 A 
ATOM     15  C   UNL     1       3.150  18.188  60.708  0.00  0.00    +0.000 A 
ATOM     16  C   UNL     1       4.494  18.225  61.071  0.00  0.00    +0.000 A 
ENDBRANCH  10  11
ENDBRANCH   1  10
TORSDOF 2
ENDMDL
MODEL 9
REMARK VINA RESULT:    -4.018     46.573     47.937
REMARK INTER + INTRA:          -4.637
REMARK INTER:                  -4.516
REMARK INTRA:                  -0.121
REMARK UNBOUND:                -0.149
REMARK  Name = 1550473
REMARK  2 active torsions:
REMARK  status: ('A' for Active; 'I' for Inactive)
REMARK    1  A    between atoms: N_1  and  C_4
REMARK    2  A    between atoms: C_4  and  C_5
REMARK                            x       y       z     vdW  Elec       q    Type
REMARK                         _______ _______ _______ _____ _____    ______ ____
ROOT
ATOM      1  N   UNL     1       6.136  -4.132  12.275  0.00  0.00    -0.354 N 
ATOM      2  N   UNL     1       7.438  -3.802  10.389  0.00  0.00    -0.372 N 
ATOM      3  N   UNL     1       5.894  -5.500  10.387  0.00  0.00    -0.372 N 
ATOM      4  C   UNL     1       6.480  -4.483  11.028  0.00  0.00    +0.166 C 
ATOM      5  H   UNL     1       6.639  -3.371  12.717  0.00  0.00    +0.163 HD
ATOM      6  H   UNL     1       7.717  -4.042   9.446  0.00  0.00    +0.159 HD
ATOM      7  H   UNL     1       7.907  -3.013  10.816  0.00  0.00    +0.159 HD
ATOM      8  H   UNL     1       5.168  -6.057  10.817  0.00  0.00    +0.159 HD
ATOM      9  H   UNL     1       6.167  -5.762   9.448  0.00  0.00    +0.159 HD
ENDROOT
BRANCH   1  10
ATOM     10  C   UNL     1       5.068  -4.774  13.039  0.00  0.00    +0.151 C 
BRANCH  10  11
ATOM     11  C   UNL     1       4.734  -3.918  14.230  0.00  0.00    -0.028 A 
ATOM     12  C   UNL     1       3.545  -4.125  14.944  0.00  0.00    +0.005 A 
ATOM     13  C   UNL     1       5.606  -2.903  14.653  0.00  0.00    +0.005 A 
ATOM     14  C   UNL     1       3.248  -3.350  16.069  0.00  0.00    +0.000 A 
ATOM     15  C   UNL     1       5.306  -2.131  15.775  0.00  0.00    +0.000 A 
ATOM     16  C   UNL     1       4.129  -2.357  16.484  0.00  0.00    +0.000 A 
ENDBRANCH  10  11
ENDBRANCH   1  10
TORSDOF 2
ENDMDL
