MODEL 1
REMARK VINA RESULT:    -6.087      0.000      0.000
REMARK INTER + INTRA:          -6.798
REMARK INTER:                  -6.799
REMARK INTRA:                   0.001
REMARK UNBOUND:                 0.001
REMARK  Name = 1550473
REMARK  2 active torsions:
REMARK  status: ('A' for Active; 'I' for Inactive)
REMARK    1  A    between atoms: N_1  and  C_4
REMARK    2  A    between atoms: C_4  and  C_5
REMARK                            x       y       z     vdW  Elec       q    Type
REMARK                         _______ _______ _______ _____ _____    ______ ____
ROOT
ATOM      1  N   UNL     1     -18.338  -1.179 -18.009  0.00  0.00    -0.354 N 
ATOM      2  N   UNL     1     -19.086   0.860 -18.813  0.00  0.00    -0.372 N 
ATOM      3  N   UNL     1     -16.933   0.211 -19.267  0.00  0.00    -0.372 N 
ATOM      4  C   UNL     1     -18.112  -0.049 -18.692  0.00  0.00    +0.166 C 
ATOM      5  H   UNL     1     -19.244  -1.303 -17.571  0.00  0.00    +0.163 HD
ATOM      6  H   UNL     1     -18.946   1.721 -19.325  0.00  0.00    +0.159 HD
ATOM      7  H   UNL     1     -20.005   0.713 -18.413  0.00  0.00    +0.159 HD
ATOM      8  H   UNL     1     -16.154  -0.431 -19.208  0.00  0.00    +0.159 HD
ATOM      9  H   UNL     1     -16.769   1.072 -19.774  0.00  0.00    +0.159 HD
ENDROOT
BRANCH   1  10
ATOM     10  C   UNL     1     -17.361  -2.257 -17.865  0.00  0.00    +0.151 C 
BRANCH  10  11
ATOM     11  C   UNL     1     -17.279  -3.022 -19.156  0.00  0.00    -0.028 A 
ATOM     12  C   UNL     1     -18.426  -3.613 -19.708  0.00  0.00    +0.005 A 
ATOM     13  C   UNL     1     -16.059  -3.156 -19.837  0.00  0.00    +0.005 A 
ATOM     14  C   UNL     1     -18.355  -4.298 -20.924  0.00  0.00    +0.000 A 
ATOM     15  C   UNL     1     -15.993  -3.842 -21.049  0.00  0.00    +0.000 A 
ATOM     16  C   UNL     1     -17.142  -4.411 -21.594  0.00  0.00    +0.000 A 
ENDBRANCH  10  11
ENDBRANCH   1  10
TORSDOF 2
ENDMDL
MODEL 2
REMARK VINA RESULT:    -5.763      2.143      2.734
REMARK INTER + INTRA:          -6.435
REMARK INTER:                  -6.301
REMARK INTRA:                  -0.134
REMARK UNBOUND:                 0.001
REMARK  Name = 1550473
REMARK  2 active torsions:
REMARK  status: ('A' for Active; 'I' for Inactive)
REMARK    1  A    between atoms: N_1  and  C_4
REMARK    2  A    between atoms: C_4  and  C_5
REMARK                            x       y       z     vdW  Elec       q    Type
REMARK                         _______ _______ _______ _____ _____    ______ ____
ROOT
ATOM      1  N   UNL     1     -17.770  -2.529 -16.810  0.00  0.00    -0.354 N 
ATOM      2  N   UNL     1     -19.215  -2.242 -15.023  0.00  0.00    -0.372 N 
ATOM      3  N   UNL     1     -17.323  -3.506 -14.727  0.00  0.00    -0.372 N 
ATOM      4  C   UNL     1     -18.091  -2.763 -15.530  0.00  0.00    +0.166 C 
ATOM      5  H   UNL     1     -18.410  -1.982 -17.374  0.00  0.00    +0.163 HD
ATOM      6  H   UNL     1     -19.482  -2.399 -14.060  0.00  0.00    +0.159 HD
ATOM      7  H   UNL     1     -19.829  -1.658 -15.577  0.00  0.00    +0.159 HD
ATOM      8  H   UNL     1     -16.465  -3.932 -15.051  0.00  0.00    +0.159 HD
ATOM      9  H   UNL     1     -17.579  -3.684 -13.764  0.00  0.00    +0.159 HD
ENDROOT
BRANCH   1  10
ATOM     10  C   UNL     1     -16.542  -3.005 -17.444  0.00  0.00    +0.151 C 
BRANCH  10  11
ATOM     11  C   UNL     1     -16.840  -3.383 -18.869  0.00  0.00    -0.028 A 
ATOM     12  C   UNL     1     -18.129  -3.790 -19.242  0.00  0.00    +0.005 A 
ATOM     13  C   UNL     1     -15.839  -3.333 -19.851  0.00  0.00    +0.005 A 
ATOM     14  C   UNL     1     -18.414  -4.113 -20.571  0.00  0.00    +0.000 A 
ATOM     15  C   UNL     1     -16.127  -3.657 -21.176  0.00  0.00    +0.000 A 
ATOM     16  C   UNL     1     -17.415  -4.045 -21.537  0.00  0.00    +0.000 A 
ENDBRANCH  10  11
ENDBRANCH   1  10
TORSDOF 2
ENDMDL
MODEL 3
REMARK VINA RESULT:    -5.605      3.100      4.052
REMARK INTER + INTRA:          -6.259
REMARK INTER:                  -6.097
REMARK INTRA:                  -0.162
REMARK UNBOUND:                 0.001
REMARK  Name = 1550473
REMARK  2 active torsions:
REMARK  status: ('A' for Active; 'I' for Inactive)
REMARK    1  A    between atoms: N_1  and  C_4
REMARK    2  A    between atoms: C_4  and  C_5
REMARK                            x       y       z     vdW  Elec       q    Type
REMARK                         _______ _______ _______ _____ _____    ______ ____
ROOT
ATOM      1  N   UNL     1     -18.605  -4.877 -17.021  0.00  0.00    -0.354 N 
ATOM      2  N   UNL     1     -18.965  -6.897 -15.948  0.00  0.00    -0.372 N 
ATOM      3  N   UNL     1     -16.908  -5.897 -15.767  0.00  0.00    -0.372 N 
ATOM      4  C   UNL     1     -18.154  -5.877 -16.252  0.00  0.00    +0.166 C 
ATOM      5  H   UNL     1     -19.550  -4.935 -17.382  0.00  0.00    +0.163 HD
ATOM      6  H   UNL     1     -18.655  -7.664 -15.366  0.00  0.00    +0.159 HD
ATOM      7  H   UNL     1     -19.924  -6.930 -16.272  0.00  0.00    +0.159 HD
ATOM      8  H   UNL     1     -16.244  -5.160 -15.965  0.00  0.00    +0.159 HD
ATOM      9  H   UNL     1     -16.575  -6.662 -15.194  0.00  0.00    +0.159 HD
ENDROOT
BRANCH   1  10
ATOM     10  C   UNL     1     -17.819  -3.693 -17.367  0.00  0.00    +0.151 C 
BRANCH  10  11
ATOM     11  C   UNL     1     -17.588  -3.674 -18.853  0.00  0.00    -0.028 A 
ATOM     12  C   UNL     1     -18.480  -3.005 -19.704  0.00  0.00    +0.005 A 
ATOM     13  C   UNL     1     -16.475  -4.318 -19.415  0.00  0.00    +0.005 A 
ATOM     14  C   UNL     1     -18.249  -2.962 -21.081  0.00  0.00    +0.000 A 
ATOM     15  C   UNL     1     -16.248  -4.273 -20.791  0.00  0.00    +0.000 A 
ATOM     16  C   UNL     1     -17.134  -3.592 -21.623  0.00  0.00    +0.000 A 
ENDBRANCH  10  11
ENDBRANCH   1  10
TORSDOF 2
ENDMDL
MODEL 4
REMARK VINA RESULT:    -5.137      2.853      3.749
REMARK INTER + INTRA:          -5.736
REMARK INTER:                  -5.620
REMARK INTRA:                  -0.116
REMARK UNBOUND:                 0.001
REMARK  Name = 1550473
REMARK  2 active torsions:
REMARK  status: ('A' for Active; 'I' for Inactive)
REMARK    1  A    between atoms: N_1  and  C_4
REMARK    2  A    between atoms: C_4  and  C_5
REMARK                            x       y       z     vdW  Elec       q    Type
REMARK                         _______ _______ _______ _____ _____    ______ ____
ROOT
ATOM      1  N   UNL     1     -18.762  -2.437 -15.381  0.00  0.00    -0.354 N 
ATOM      2  N   UNL     1     -20.582  -1.332 -14.468  0.00  0.00    -0.372 N 
ATOM      3  N   UNL     1     -18.789  -1.818 -13.121  0.00  0.00    -0.372 N 
ATOM      4  C   UNL     1     -19.364  -1.870 -14.327  0.00  0.00    +0.166 C 
ATOM      5  H   UNL     1     -19.264  -2.471 -16.261  0.00  0.00    +0.163 HD
ATOM      6  H   UNL     1     -21.059  -0.895 -13.692  0.00  0.00    +0.159 HD
ATOM      7  H   UNL     1     -21.062  -1.327 -15.360  0.00  0.00    +0.159 HD
ATOM      8  H   UNL     1     -17.873  -2.211 -12.947  0.00  0.00    +0.159 HD
ATOM      9  H   UNL     1     -19.255  -1.395 -12.329  0.00  0.00    +0.159 HD
ENDROOT
BRANCH   1  10
ATOM     10  C   UNL     1     -17.415  -3.003 -15.347  0.00  0.00    +0.151 C 
BRANCH  10  11
ATOM     11  C   UNL     1     -16.978  -3.317 -16.751  0.00  0.00    -0.028 A 
ATOM     12  C   UNL     1     -17.347  -2.481 -17.815  0.00  0.00    +0.005 A 
ATOM     13  C   UNL     1     -16.189  -4.446 -17.023  0.00  0.00    +0.005 A 
ATOM     14  C   UNL     1     -16.917  -2.756 -19.115  0.00  0.00    +0.000 A 
ATOM     15  C   UNL     1     -15.762  -4.717 -18.323  0.00  0.00    +0.000 A 
ATOM     16  C   UNL     1     -16.124  -3.870 -19.368  0.00  0.00    +0.000 A 
ENDBRANCH  10  11
ENDBRANCH   1  10
TORSDOF 2
ENDMDL
MODEL 5
REMARK VINA RESULT:    -4.954     16.672     17.687
REMARK INTER + INTRA:          -5.532
REMARK INTER:                  -5.395
REMARK INTRA:                  -0.137
REMARK UNBOUND:                 0.001
REMARK  Name = 1550473
REMARK  2 active torsions:
REMARK  status: ('A' for Active; 'I' for Inactive)
REMARK    1  A    between atoms: N_1  and  C_4
REMARK    2  A    between atoms: C_4  and  C_5
REMARK                            x       y       z     vdW  Elec       q    Type
REMARK                         _______ _______ _______ _____ _____    ______ ____
ROOT
ATOM      1  N   UNL     1     -20.249 -15.762 -29.845  0.00  0.00    -0.354 N 
ATOM      2  N   UNL     1     -19.464 -15.549 -32.013  0.00  0.00    -0.372 N 
ATOM      3  N   UNL     1     -21.153 -17.042 -31.587  0.00  0.00    -0.372 N 
ATOM      4  C   UNL     1     -20.296 -16.121 -31.134  0.00  0.00    +0.166 C 
ATOM      5  H   UNL     1     -19.555 -15.079 -29.560  0.00  0.00    +0.163 HD
ATOM      6  H   UNL     1     -19.479 -15.797 -32.993  0.00  0.00    +0.159 HD
ATOM      7  H   UNL     1     -18.803 -14.834 -31.734  0.00  0.00    +0.159 HD
ATOM      8  H   UNL     1     -21.803 -17.515 -30.973  0.00  0.00    +0.159 HD
ATOM      9  H   UNL     1     -21.175 -17.312 -32.562  0.00  0.00    +0.159 HD
ENDROOT
BRANCH   1  10
ATOM     10  C   UNL     1     -21.147 -16.285 -28.817  0.00  0.00    +0.151 C 
BRANCH  10  11
ATOM     11  C   UNL     1     -20.327 -16.864 -27.697  0.00  0.00    -0.028 A 
ATOM     12  C   UNL     1     -19.148 -17.572 -27.970  0.00  0.00    +0.005 A 
ATOM     13  C   UNL     1     -20.722 -16.703 -26.360  0.00  0.00    +0.005 A 
ATOM     14  C   UNL     1     -18.370 -18.084 -26.928  0.00  0.00    +0.000 A 
ATOM     15  C   UNL     1     -19.943 -17.216 -25.323  0.00  0.00    +0.000 A 
ATOM     16  C   UNL     1     -18.766 -17.905 -25.607  0.00  0.00    +0.000 A 
ENDBRANCH  10  11
ENDBRANCH   1  10
TORSDOF 2
ENDMDL
MODEL 6
REMARK VINA RESULT:    -4.938      3.909      4.972
REMARK INTER + INTRA:          -5.514
REMARK INTER:                  -5.334
REMARK INTRA:                  -0.180
REMARK UNBOUND:                 0.001
REMARK  Name = 1550473
REMARK  2 active torsions:
REMARK  status: ('A' for Active; 'I' for Inactive)
REMARK    1  A    between atoms: N_1  and  C_4
REMARK    2  A    between atoms: C_4  and  C_5
REMARK                            x       y       z     vdW  Elec       q    Type
REMARK                         _______ _______ _______ _____ _____    ______ ____
ROOT
ATOM      1  N   UNL     1     -18.017  -4.186 -13.724  0.00  0.00    -0.354 N 
ATOM      2  N   UNL     1     -17.303  -3.114 -11.799  0.00  0.00    -0.372 N 
ATOM      3  N   UNL     1     -18.392  -1.894 -13.408  0.00  0.00    -0.372 N 
ATOM      4  C   UNL     1     -17.909  -3.069 -12.991  0.00  0.00    +0.166 C 
ATOM      5  H   UNL     1     -17.604  -5.039 -13.365  0.00  0.00    +0.163 HD
ATOM      6  H   UNL     1     -17.210  -2.288 -11.222  0.00  0.00    +0.159 HD
ATOM      7  H   UNL     1     -16.931  -3.977 -11.422  0.00  0.00    +0.159 HD
ATOM      8  H   UNL     1     -18.856  -1.792 -14.301  0.00  0.00    +0.159 HD
ATOM      9  H   UNL     1     -18.298  -1.054 -12.851  0.00  0.00    +0.159 HD
ENDROOT
BRANCH   1  10
ATOM     10  C   UNL     1     -18.706  -4.256 -15.011  0.00  0.00    +0.151 C 
BRANCH  10  11
ATOM     11  C   UNL     1     -17.686  -4.264 -16.115  0.00  0.00    -0.028 A 
ATOM     12  C   UNL     1     -17.043  -5.456 -16.482  0.00  0.00    +0.005 A 
ATOM     13  C   UNL     1     -17.360  -3.085 -16.803  0.00  0.00    +0.005 A 
ATOM     14  C   UNL     1     -16.117  -5.470 -17.527  0.00  0.00    +0.000 A 
ATOM     15  C   UNL     1     -16.435  -3.103 -17.845  0.00  0.00    +0.000 A 
ATOM     16  C   UNL     1     -15.815  -4.296 -18.209  0.00  0.00    +0.000 A 
ENDBRANCH  10  11
ENDBRANCH   1  10
TORSDOF 2
ENDMDL
MODEL 7
REMARK VINA RESULT:    -4.731     16.652     18.282
REMARK INTER + INTRA:          -5.283
REMARK INTER:                  -5.166
REMARK INTRA:                  -0.117
REMARK UNBOUND:                 0.001
REMARK  Name = 1550473
REMARK  2 active torsions:
REMARK  status: ('A' for Active; 'I' for Inactive)
REMARK    1  A    between atoms: N_1  and  C_4
REMARK    2  A    between atoms: C_4  and  C_5
REMARK                            x       y       z     vdW  Elec       q    Type
REMARK                         _______ _______ _______ _____ _____    ______ ____
ROOT
ATOM      1  N   UNL     1     -11.096  12.636 -13.587  0.00  0.00    -0.354 N 
ATOM      2  N   UNL     1     -12.118  10.771 -12.670  0.00  0.00    -0.372 N 
ATOM      3  N   UNL     1     -13.135  12.815 -12.447  0.00  0.00    -0.372 N 
ATOM      4  C   UNL     1     -12.111  12.088 -12.906  0.00  0.00    +0.166 C 
ATOM      5  H   UNL     1     -10.335  12.036 -13.882  0.00  0.00    +0.163 HD
ATOM      6  H   UNL     1     -12.872  10.329 -12.163  0.00  0.00    +0.159 HD
ATOM      7  H   UNL     1     -11.379  10.166 -13.006  0.00  0.00    +0.159 HD
ATOM      8  H   UNL     1     -13.187  13.816 -12.586  0.00  0.00    +0.159 HD
ATOM      9  H   UNL     1     -13.894  12.393 -11.926  0.00  0.00    +0.159 HD
ENDROOT
BRANCH   1  10
ATOM     10  C   UNL     1     -11.020  14.052 -13.943  0.00  0.00    +0.151 C 
BRANCH  10  11
ATOM     11  C   UNL     1     -10.075  14.217 -15.101  0.00  0.00    -0.028 A 
ATOM     12  C   UNL     1      -9.000  13.333 -15.275  0.00  0.00    +0.005 A 
ATOM     13  C   UNL     1     -10.253  15.252 -16.032  0.00  0.00    +0.005 A 
ATOM     14  C   UNL     1      -8.140  13.467 -16.368  0.00  0.00    +0.000 A 
ATOM     15  C   UNL     1      -9.392  15.383 -17.122  0.00  0.00    +0.000 A 
ATOM     16  C   UNL     1      -8.337  14.489 -17.290  0.00  0.00    +0.000 A 
ENDBRANCH  10  11
ENDBRANCH   1  10
TORSDOF 2
ENDMDL
MODEL 8
REMARK VINA RESULT:    -4.695     56.085     57.456
REMARK INTER + INTRA:          -5.243
REMARK INTER:                  -5.103
REMARK INTRA:                  -0.140
REMARK UNBOUND:                 0.001
REMARK  Name = 1550473
REMARK  2 active torsions:
REMARK  status: ('A' for Active; 'I' for Inactive)
REMARK    1  A    between atoms: N_1  and  C_4
REMARK    2  A    between atoms: C_4  and  C_5
REMARK                            x       y       z     vdW  Elec       q    Type
REMARK                         _______ _______ _______ _____ _____    ______ ____
ROOT
ATOM      1  N   UNL     1      17.610  11.934  21.254  0.00  0.00    -0.354 N 
ATOM      2  N   UNL     1      17.618  12.166  18.950  0.00  0.00    -0.372 N 
ATOM      3  N   UNL     1      17.744  10.061  19.853  0.00  0.00    -0.372 N 
ATOM      4  C   UNL     1      17.658  11.383  20.034  0.00  0.00    +0.166 C 
ATOM      5  H   UNL     1      17.575  12.944  21.325  0.00  0.00    +0.163 HD
ATOM      6  H   UNL     1      17.648  11.779  18.016  0.00  0.00    +0.159 HD
ATOM      7  H   UNL     1      17.536  13.173  19.023  0.00  0.00    +0.159 HD
ATOM      8  H   UNL     1      17.784   9.415  20.630  0.00  0.00    +0.159 HD
ATOM      9  H   UNL     1      17.788   9.654  18.926  0.00  0.00    +0.159 HD
ENDROOT
BRANCH   1  10
ATOM     10  C   UNL     1      17.593  11.166  22.498  0.00  0.00    +0.151 C 
BRANCH  10  11
ATOM     11  C   UNL     1      18.789  11.548  23.327  0.00  0.00    -0.028 A 
ATOM     12  C   UNL     1      18.857  12.808  23.939  0.00  0.00    +0.005 A 
ATOM     13  C   UNL     1      19.853  10.652  23.508  0.00  0.00    +0.005 A 
ATOM     14  C   UNL     1      19.954  13.152  24.734  0.00  0.00    +0.000 A 
ATOM     15  C   UNL     1      20.947  11.000  24.302  0.00  0.00    +0.000 A 
ATOM     16  C   UNL     1      20.995  12.248  24.916  0.00  0.00    +0.000 A 
ENDBRANCH  10  11
ENDBRANCH   1  10
TORSDOF 2
ENDMDL
MODEL 9
REMARK VINA RESULT:    -4.625      4.948      5.973
REMARK INTER + INTRA:          -5.164
REMARK INTER:                  -5.066
REMARK INTRA:                  -0.098
REMARK UNBOUND:                 0.001
REMARK  Name = 1550473
REMARK  2 active torsions:
REMARK  status: ('A' for Active; 'I' for Inactive)
REMARK    1  A    between atoms: N_1  and  C_4
REMARK    2  A    between atoms: C_4  and  C_5
REMARK                            x       y       z     vdW  Elec       q    Type
REMARK                         _______ _______ _______ _____ _____    ______ ____
ROOT
ATOM      1  N   UNL     1     -16.511  -6.896 -15.485  0.00  0.00    -0.354 N 
ATOM      2  N   UNL     1     -15.155  -8.767 -15.344  0.00  0.00    -0.372 N 
ATOM      3  N   UNL     1     -17.242  -8.978 -16.273  0.00  0.00    -0.372 N 
ATOM      4  C   UNL     1     -16.314  -8.203 -15.703  0.00  0.00    +0.166 C 
ATOM      5  H   UNL     1     -15.780  -6.369 -15.020  0.00  0.00    +0.163 HD
ATOM      6  H   UNL     1     -14.976  -9.751 -15.499  0.00  0.00    +0.159 HD
ATOM      7  H   UNL     1     -14.408  -8.229 -14.922  0.00  0.00    +0.159 HD
ATOM      8  H   UNL     1     -18.140  -8.614 -16.562  0.00  0.00    +0.159 HD
ATOM      9  H   UNL     1     -17.086  -9.966 -16.426  0.00  0.00    +0.159 HD
ENDROOT
BRANCH   1  10
ATOM     10  C   UNL     1     -17.717  -6.172 -15.886  0.00  0.00    +0.151 C 
BRANCH  10  11
ATOM     11  C   UNL     1     -17.427  -5.392 -17.139  0.00  0.00    -0.028 A 
ATOM     12  C   UNL     1     -18.466  -4.770 -17.847  0.00  0.00    +0.005 A 
ATOM     13  C   UNL     1     -16.115  -5.267 -17.621  0.00  0.00    +0.005 A 
ATOM     14  C   UNL     1     -18.194  -4.020 -18.994  0.00  0.00    +0.000 A 
ATOM     15  C   UNL     1     -15.847  -4.518 -18.767  0.00  0.00    +0.000 A 
ATOM     16  C   UNL     1     -16.886  -3.893 -19.451  0.00  0.00    +0.000 A 
ENDBRANCH  10  11
ENDBRANCH   1  10
TORSDOF 2
ENDMDL
