MODEL 1
REMARK VINA RESULT:    -5.097      0.000      0.000
REMARK INTER + INTRA:          -5.838
REMARK INTER:                  -5.693
REMARK INTRA:                  -0.144
REMARK UNBOUND:                -0.144
REMARK  Name = 1550473
REMARK  2 active torsions:
REMARK  status: ('A' for Active; 'I' for Inactive)
REMARK    1  A    between atoms: N_1  and  C_4
REMARK    2  A    between atoms: C_4  and  C_5
REMARK                            x       y       z     vdW  Elec       q    Type
REMARK                         _______ _______ _______ _____ _____    ______ ____
ROOT
ATOM      1  N   UNL     1      17.177  -4.323   2.505  0.00  0.00    -0.354 N 
ATOM      2  N   UNL     1      19.409  -3.798   2.832  0.00  0.00    -0.372 N 
ATOM      3  N   UNL     1      18.537  -5.639   3.887  0.00  0.00    -0.372 N 
ATOM      4  C   UNL     1      18.359  -4.592   3.074  0.00  0.00    +0.166 C 
ATOM      5  H   UNL     1      17.100  -3.497   1.922  0.00  0.00    +0.163 HD
ATOM      6  H   UNL     1      20.315  -3.978   3.244  0.00  0.00    +0.159 HD
ATOM      7  H   UNL     1      19.341  -2.999   2.213  0.00  0.00    +0.159 HD
ATOM      8  H   UNL     1      17.783  -6.274   4.115  0.00  0.00    +0.159 HD
ATOM      9  H   UNL     1      19.432  -5.830   4.319  0.00  0.00    +0.159 HD
ENDROOT
BRANCH   1  10
ATOM     10  C   UNL     1      15.986  -5.155   2.661  0.00  0.00    +0.151 C 
BRANCH  10  11
ATOM     11  C   UNL     1      14.828  -4.285   3.065  0.00  0.00    -0.028 A 
ATOM     12  C   UNL     1      14.917  -3.463   4.198  0.00  0.00    +0.005 A 
ATOM     13  C   UNL     1      13.641  -4.273   2.316  0.00  0.00    +0.005 A 
ATOM     14  C   UNL     1      13.853  -2.632   4.557  0.00  0.00    +0.000 A 
ATOM     15  C   UNL     1      12.581  -3.443   2.678  0.00  0.00    +0.000 A 
ATOM     16  C   UNL     1      12.688  -2.620   3.797  0.00  0.00    +0.000 A 
ENDBRANCH  10  11
ENDBRANCH   1  10
TORSDOF 2
ENDMDL
MODEL 2
REMARK VINA RESULT:    -5.009      7.456      8.896
REMARK INTER + INTRA:          -5.739
REMARK INTER:                  -5.563
REMARK INTRA:                  -0.176
REMARK UNBOUND:                -0.144
REMARK  Name = 1550473
REMARK  2 active torsions:
REMARK  status: ('A' for Active; 'I' for Inactive)
REMARK    1  A    between atoms: N_1  and  C_4
REMARK    2  A    between atoms: C_4  and  C_5
REMARK                            x       y       z     vdW  Elec       q    Type
REMARK                         _______ _______ _______ _____ _____    ______ ____
ROOT
ATOM      1  N   UNL     1       9.410   0.216   9.395  0.00  0.00    -0.354 N 
ATOM      2  N   UNL     1      10.248   0.770  11.481  0.00  0.00    -0.372 N 
ATOM      3  N   UNL     1      10.613  -1.343  10.664  0.00  0.00    -0.372 N 
ATOM      4  C   UNL     1      10.086  -0.126  10.500  0.00  0.00    +0.166 C 
ATOM      5  H   UNL     1       9.008   1.145   9.344  0.00  0.00    +0.163 HD
ATOM      6  H   UNL     1      10.757   0.542  12.325  0.00  0.00    +0.159 HD
ATOM      7  H   UNL     1       9.886   1.712  11.408  0.00  0.00    +0.159 HD
ATOM      8  H   UNL     1      10.521  -2.066   9.963  0.00  0.00    +0.159 HD
ATOM      9  H   UNL     1      11.115  -1.594  11.507  0.00  0.00    +0.159 HD
ENDROOT
BRANCH   1  10
ATOM     10  C   UNL     1       9.222  -0.667   8.245  0.00  0.00    +0.151 C 
BRANCH  10  11
ATOM     11  C   UNL     1      10.120  -0.216   7.127  0.00  0.00    -0.028 A 
ATOM     12  C   UNL     1      11.295  -0.921   6.828  0.00  0.00    +0.005 A 
ATOM     13  C   UNL     1       9.799   0.914   6.358  0.00  0.00    +0.005 A 
ATOM     14  C   UNL     1      12.115  -0.519   5.771  0.00  0.00    +0.000 A 
ATOM     15  C   UNL     1      10.620   1.312   5.303  0.00  0.00    +0.000 A 
ATOM     16  C   UNL     1      11.776   0.594   5.008  0.00  0.00    +0.000 A 
ENDBRANCH  10  11
ENDBRANCH   1  10
TORSDOF 2
ENDMDL
MODEL 3
REMARK VINA RESULT:    -5.005      8.525      9.632
REMARK INTER + INTRA:          -5.734
REMARK INTER:                  -5.581
REMARK INTRA:                  -0.153
REMARK UNBOUND:                -0.144
REMARK  Name = 1550473
REMARK  2 active torsions:
REMARK  status: ('A' for Active; 'I' for Inactive)
REMARK    1  A    between atoms: N_1  and  C_4
REMARK    2  A    between atoms: C_4  and  C_5
REMARK                            x       y       z     vdW  Elec       q    Type
REMARK                         _______ _______ _______ _____ _____    ______ ____
ROOT
ATOM      1  N   UNL     1       9.215   0.721   9.065  0.00  0.00    -0.354 N 
ATOM      2  N   UNL     1       9.267  -0.924  10.695  0.00  0.00    -0.372 N 
ATOM      3  N   UNL     1      10.344   1.063  11.090  0.00  0.00    -0.372 N 
ATOM      4  C   UNL     1       9.610   0.300  10.274  0.00  0.00    +0.166 C 
ATOM      5  H   UNL     1       8.686   0.083   8.482  0.00  0.00    +0.163 HD
ATOM      6  H   UNL     1       9.548  -1.268  11.603  0.00  0.00    +0.159 HD
ATOM      7  H   UNL     1       8.700  -1.542  10.129  0.00  0.00    +0.159 HD
ATOM      8  H   UNL     1      10.641   1.994  10.829  0.00  0.00    +0.159 HD
ATOM      9  H   UNL     1      10.645   0.732  11.998  0.00  0.00    +0.159 HD
ENDROOT
BRANCH   1  10
ATOM     10  C   UNL     1       9.490   2.055   8.534  0.00  0.00    +0.151 C 
BRANCH  10  11
ATOM     11  C   UNL     1      10.389   1.931   7.335  0.00  0.00    -0.028 A 
ATOM     12  C   UNL     1      11.718   2.374   7.393  0.00  0.00    +0.005 A 
ATOM     13  C   UNL     1       9.918   1.367   6.139  0.00  0.00    +0.005 A 
ATOM     14  C   UNL     1      12.562   2.231   6.289  0.00  0.00    +0.000 A 
ATOM     15  C   UNL     1      10.764   1.227   5.039  0.00  0.00    +0.000 A 
ATOM     16  C   UNL     1      12.086   1.657   5.115  0.00  0.00    +0.000 A 
ENDBRANCH  10  11
ENDBRANCH   1  10
TORSDOF 2
ENDMDL
MODEL 4
REMARK VINA RESULT:    -4.778      1.482      2.499
REMARK INTER + INTRA:          -5.481
REMARK INTER:                  -5.324
REMARK INTRA:                  -0.157
REMARK UNBOUND:                -0.144
REMARK  Name = 1550473
REMARK  2 active torsions:
REMARK  status: ('A' for Active; 'I' for Inactive)
REMARK    1  A    between atoms: N_1  and  C_4
REMARK    2  A    between atoms: C_4  and  C_5
REMARK                            x       y       z     vdW  Elec       q    Type
REMARK                         _______ _______ _______ _____ _____    ______ ____
ROOT
ATOM      1  N   UNL     1      16.703  -5.611   3.235  0.00  0.00    -0.354 N 
ATOM      2  N   UNL     1      17.079  -7.828   2.680  0.00  0.00    -0.372 N 
ATOM      3  N   UNL     1      16.951  -6.271   1.000  0.00  0.00    -0.372 N 
ATOM      4  C   UNL     1      16.908  -6.554   2.306  0.00  0.00    +0.166 C 
ATOM      5  H   UNL     1      16.651  -5.895   4.206  0.00  0.00    +0.163 HD
ATOM      6  H   UNL     1      17.239  -8.561   2.002  0.00  0.00    +0.159 HD
ATOM      7  H   UNL     1      17.073  -8.102   3.655  0.00  0.00    +0.159 HD
ATOM      8  H   UNL     1      16.824  -5.330   0.652  0.00  0.00    +0.159 HD
ATOM      9  H   UNL     1      17.099  -6.992   0.305  0.00  0.00    +0.159 HD
ENDROOT
BRANCH   1  10
ATOM     10  C   UNL     1      16.559  -4.187   2.936  0.00  0.00    +0.151 C 
BRANCH  10  11
ATOM     11  C   UNL     1      15.216  -3.716   3.423  0.00  0.00    -0.028 A 
ATOM     12  C   UNL     1      14.049  -4.040   2.717  0.00  0.00    +0.005 A 
ATOM     13  C   UNL     1      15.104  -2.951   4.594  0.00  0.00    +0.005 A 
ATOM     14  C   UNL     1      12.799  -3.628   3.185  0.00  0.00    +0.000 A 
ATOM     15  C   UNL     1      13.855  -2.541   5.058  0.00  0.00    +0.000 A 
ATOM     16  C   UNL     1      12.702  -2.882   4.354  0.00  0.00    +0.000 A 
ENDBRANCH  10  11
ENDBRANCH   1  10
TORSDOF 2
ENDMDL
MODEL 5
REMARK VINA RESULT:    -4.744      4.362      5.850
REMARK INTER + INTRA:          -5.443
REMARK INTER:                  -5.333
REMARK INTRA:                  -0.109
REMARK UNBOUND:                -0.144
REMARK  Name = 1550473
REMARK  2 active torsions:
REMARK  status: ('A' for Active; 'I' for Inactive)
REMARK    1  A    between atoms: N_1  and  C_4
REMARK    2  A    between atoms: C_4  and  C_5
REMARK                            x       y       z     vdW  Elec       q    Type
REMARK                         _______ _______ _______ _____ _____    ______ ____
ROOT
ATOM      1  N   UNL     1      12.835  -2.121   5.355  0.00  0.00    -0.354 N 
ATOM      2  N   UNL     1      14.098  -3.331   3.837  0.00  0.00    -0.372 N 
ATOM      3  N   UNL     1      14.858  -3.118   5.991  0.00  0.00    -0.372 N 
ATOM      4  C   UNL     1      13.924  -2.849   5.073  0.00  0.00    +0.166 C 
ATOM      5  H   UNL     1      12.179  -1.927   4.608  0.00  0.00    +0.163 HD
ATOM      6  H   UNL     1      14.907  -3.886   3.595  0.00  0.00    +0.159 HD
ATOM      7  H   UNL     1      13.417  -3.174   3.103  0.00  0.00    +0.159 HD
ATOM      8  H   UNL     1      14.789  -2.779   6.941  0.00  0.00    +0.159 HD
ATOM      9  H   UNL     1      15.681  -3.662   5.766  0.00  0.00    +0.159 HD
ENDROOT
BRANCH   1  10
ATOM     10  C   UNL     1      12.524  -1.595   6.684  0.00  0.00    +0.151 C 
BRANCH  10  11
ATOM     11  C   UNL     1      11.397  -0.607   6.569  0.00  0.00    -0.028 A 
ATOM     12  C   UNL     1      11.464   0.447   5.646  0.00  0.00    +0.005 A 
ATOM     13  C   UNL     1      10.255  -0.722   7.377  0.00  0.00    +0.005 A 
ATOM     14  C   UNL     1      10.404   1.347   5.519  0.00  0.00    +0.000 A 
ATOM     15  C   UNL     1       9.199   0.180   7.247  0.00  0.00    +0.000 A 
ATOM     16  C   UNL     1       9.273   1.213   6.316  0.00  0.00    +0.000 A 
ENDBRANCH  10  11
ENDBRANCH   1  10
TORSDOF 2
ENDMDL
MODEL 6
REMARK VINA RESULT:    -4.540     16.961     18.280
REMARK INTER + INTRA:          -5.215
REMARK INTER:                  -5.076
REMARK INTRA:                  -0.139
REMARK UNBOUND:                -0.144
REMARK  Name = 1550473
REMARK  2 active torsions:
REMARK  status: ('A' for Active; 'I' for Inactive)
REMARK    1  A    between atoms: N_1  and  C_4
REMARK    2  A    between atoms: C_4  and  C_5
REMARK                            x       y       z     vdW  Elec       q    Type
REMARK                         _______ _______ _______ _____ _____    ______ ____
ROOT
ATOM      1  N   UNL     1       4.443   4.756  12.963  0.00  0.00    -0.354 N 
ATOM      2  N   UNL     1       4.441   4.569  10.655  0.00  0.00    -0.372 N 
ATOM      3  N   UNL     1       3.217   6.245  11.633  0.00  0.00    -0.372 N 
ATOM      4  C   UNL     1       4.032   5.193  11.766  0.00  0.00    +0.166 C 
ATOM      5  H   UNL     1       5.036   3.935  12.998  0.00  0.00    +0.163 HD
ATOM      6  H   UNL     1       4.150   4.879   9.737  0.00  0.00    +0.159 HD
ATOM      7  H   UNL     1       5.071   3.777  10.690  0.00  0.00    +0.159 HD
ATOM      8  H   UNL     1       2.868   6.757  12.433  0.00  0.00    +0.159 HD
ATOM      9  H   UNL     1       2.906   6.563  10.724  0.00  0.00    +0.159 HD
ENDROOT
BRANCH   1  10
ATOM     10  C   UNL     1       4.099   5.398  14.231  0.00  0.00    +0.151 C 
BRANCH  10  11
ATOM     11  C   UNL     1       5.361   5.671  15.001  0.00  0.00    -0.028 A 
ATOM     12  C   UNL     1       5.414   5.444  16.385  0.00  0.00    +0.005 A 
ATOM     13  C   UNL     1       6.509   6.152  14.353  0.00  0.00    +0.005 A 
ATOM     14  C   UNL     1       6.595   5.670  17.096  0.00  0.00    +0.000 A 
ATOM     15  C   UNL     1       7.686   6.376  15.067  0.00  0.00    +0.000 A 
ATOM     16  C   UNL     1       7.730   6.133  16.438  0.00  0.00    +0.000 A 
ENDBRANCH  10  11
ENDBRANCH   1  10
TORSDOF 2
ENDMDL
MODEL 7
REMARK VINA RESULT:    -4.333      6.060      7.585
REMARK INTER + INTRA:          -4.984
REMARK INTER:                  -4.805
REMARK INTRA:                  -0.179
REMARK UNBOUND:                -0.144
REMARK  Name = 1550473
REMARK  2 active torsions:
REMARK  status: ('A' for Active; 'I' for Inactive)
REMARK    1  A    between atoms: N_1  and  C_4
REMARK    2  A    between atoms: C_4  and  C_5
REMARK                            x       y       z     vdW  Elec       q    Type
REMARK                         _______ _______ _______ _____ _____    ______ ____
ROOT
ATOM      1  N   UNL     1      13.252   0.265   6.305  0.00  0.00    -0.354 N 
ATOM      2  N   UNL     1      14.485  -1.492   7.175  0.00  0.00    -0.372 N 
ATOM      3  N   UNL     1      12.485  -1.943   6.144  0.00  0.00    -0.372 N 
ATOM      4  C   UNL     1      13.397  -1.046   6.535  0.00  0.00    +0.166 C 
ATOM      5  H   UNL     1      13.964   0.897   6.653  0.00  0.00    +0.163 HD
ATOM      6  H   UNL     1      14.623  -2.476   7.360  0.00  0.00    +0.159 HD
ATOM      7  H   UNL     1      15.217  -0.863   7.481  0.00  0.00    +0.159 HD
ATOM      8  H   UNL     1      11.639  -1.671   5.661  0.00  0.00    +0.159 HD
ATOM      9  H   UNL     1      12.600  -2.932   6.330  0.00  0.00    +0.159 HD
ENDROOT
BRANCH   1  10
ATOM     10  C   UNL     1      12.131   0.848   5.569  0.00  0.00    +0.151 C 
BRANCH  10  11
ATOM     11  C   UNL     1      11.140   1.411   6.549  0.00  0.00    -0.028 A 
ATOM     12  C   UNL     1       9.821   0.935   6.581  0.00  0.00    +0.005 A 
ATOM     13  C   UNL     1      11.515   2.418   7.452  0.00  0.00    +0.005 A 
ATOM     14  C   UNL     1       8.908   1.438   7.511  0.00  0.00    +0.000 A 
ATOM     15  C   UNL     1      10.600   2.917   8.379  0.00  0.00    +0.000 A 
ATOM     16  C   UNL     1       9.297   2.425   8.410  0.00  0.00    +0.000 A 
ENDBRANCH  10  11
ENDBRANCH   1  10
TORSDOF 2
ENDMDL
MODEL 8
REMARK VINA RESULT:    -4.326      8.245      9.477
REMARK INTER + INTRA:          -4.976
REMARK INTER:                  -4.801
REMARK INTRA:                  -0.175
REMARK UNBOUND:                -0.144
REMARK  Name = 1550473
REMARK  2 active torsions:
REMARK  status: ('A' for Active; 'I' for Inactive)
REMARK    1  A    between atoms: N_1  and  C_4
REMARK    2  A    between atoms: C_4  and  C_5
REMARK                            x       y       z     vdW  Elec       q    Type
REMARK                         _______ _______ _______ _____ _____    ______ ____
ROOT
ATOM      1  N   UNL     1      13.325   3.824   7.621  0.00  0.00    -0.354 N 
ATOM      2  N   UNL     1      13.598   6.053   8.187  0.00  0.00    -0.372 N 
ATOM      3  N   UNL     1      13.024   4.555   9.827  0.00  0.00    -0.372 N 
ATOM      4  C   UNL     1      13.313   4.795   8.544  0.00  0.00    +0.166 C 
ATOM      5  H   UNL     1      13.521   4.076   6.659  0.00  0.00    +0.163 HD
ATOM      6  H   UNL     1      13.600   6.806   8.862  0.00  0.00    +0.159 HD
ATOM      7  H   UNL     1      13.839   6.295   7.233  0.00  0.00    +0.159 HD
ATOM      8  H   UNL     1      12.795   3.628  10.160  0.00  0.00    +0.159 HD
ATOM      9  H   UNL     1      13.010   5.297  10.515  0.00  0.00    +0.159 HD
ENDROOT
BRANCH   1  10
ATOM     10  C   UNL     1      13.081   2.413   7.916  0.00  0.00    +0.151 C 
BRANCH  10  11
ATOM     11  C   UNL     1      11.736   2.022   7.370  0.00  0.00    -0.028 A 
ATOM     12  C   UNL     1      11.614   1.529   6.062  0.00  0.00    +0.005 A 
ATOM     13  C   UNL     1      10.580   2.136   8.157  0.00  0.00    +0.005 A 
ATOM     14  C   UNL     1      10.368   1.138   5.565  0.00  0.00    +0.000 A 
ATOM     15  C   UNL     1       9.338   1.745   7.656  0.00  0.00    +0.000 A 
ATOM     16  C   UNL     1       9.233   1.244   6.361  0.00  0.00    +0.000 A 
ENDBRANCH  10  11
ENDBRANCH   1  10
TORSDOF 2
ENDMDL
MODEL 9
REMARK VINA RESULT:    -4.237      7.386      8.812
REMARK INTER + INTRA:          -4.876
REMARK INTER:                  -4.719
REMARK INTRA:                  -0.158
REMARK UNBOUND:                -0.144
REMARK  Name = 1550473
REMARK  2 active torsions:
REMARK  status: ('A' for Active; 'I' for Inactive)
REMARK    1  A    between atoms: N_1  and  C_4
REMARK    2  A    between atoms: C_4  and  C_5
REMARK                            x       y       z     vdW  Elec       q    Type
REMARK                         _______ _______ _______ _____ _____    ______ ____
ROOT
ATOM      1  N   UNL     1       9.225   0.188   8.391  0.00  0.00    -0.354 N 
ATOM      2  N   UNL     1       8.467   2.365   8.614  0.00  0.00    -0.372 N 
ATOM      3  N   UNL     1       8.991   1.582   6.522  0.00  0.00    -0.372 N 
ATOM      4  C   UNL     1       8.900   1.364   7.838  0.00  0.00    +0.166 C 
ATOM      5  H   UNL     1       9.162   0.096   9.398  0.00  0.00    +0.163 HD
ATOM      6  H   UNL     1       8.211   3.263   8.225  0.00  0.00    +0.159 HD
ATOM      7  H   UNL     1       8.362   2.256   9.616  0.00  0.00    +0.159 HD
ATOM      8  H   UNL     1       9.316   0.870   5.882  0.00  0.00    +0.159 HD
ATOM      9  H   UNL     1       8.750   2.478   6.115  0.00  0.00    +0.159 HD
ENDROOT
BRANCH   1  10
ATOM     10  C   UNL     1       9.655  -0.983   7.628  0.00  0.00    +0.151 C 
BRANCH  10  11
ATOM     11  C   UNL     1      11.156  -0.981   7.531  0.00  0.00    -0.028 A 
ATOM     12  C   UNL     1      11.944  -1.170   8.676  0.00  0.00    +0.005 A 
ATOM     13  C   UNL     1      11.796  -0.797   6.295  0.00  0.00    +0.005 A 
ATOM     14  C   UNL     1      13.337  -1.198   8.581  0.00  0.00    +0.000 A 
ATOM     15  C   UNL     1      13.187  -0.825   6.205  0.00  0.00    +0.000 A 
ATOM     16  C   UNL     1      13.957  -1.028   7.348  0.00  0.00    +0.000 A 
ENDBRANCH  10  11
ENDBRANCH   1  10
TORSDOF 2
ENDMDL
