MODEL 1
REMARK VINA RESULT:    -5.630      0.000      0.000
REMARK INTER + INTRA:          -6.468
REMARK INTER:                  -6.288
REMARK INTRA:                  -0.180
REMARK UNBOUND:                -0.180
REMARK  Name = 1550473
REMARK  2 active torsions:
REMARK  status: ('A' for Active; 'I' for Inactive)
REMARK    1  A    between atoms: N_1  and  C_4
REMARK    2  A    between atoms: C_4  and  C_5
REMARK                            x       y       z     vdW  Elec       q    Type
REMARK                         _______ _______ _______ _____ _____    ______ ____
ROOT
ATOM      1  N   UNL     1     -11.785  -0.847  -8.066  0.00  0.00    -0.354 N 
ATOM      2  N   UNL     1     -12.997  -2.175  -6.607  0.00  0.00    -0.372 N 
ATOM      3  N   UNL     1     -11.816  -0.397  -5.766  0.00  0.00    -0.372 N 
ATOM      4  C   UNL     1     -12.190  -1.129  -6.820  0.00  0.00    +0.166 C 
ATOM      5  H   UNL     1     -12.079  -1.458  -8.818  0.00  0.00    +0.163 HD
ATOM      6  H   UNL     1     -13.322  -2.411  -5.678  0.00  0.00    +0.159 HD
ATOM      7  H   UNL     1     -13.327  -2.758  -7.366  0.00  0.00    +0.159 HD
ATOM      8  H   UNL     1     -11.203   0.402  -5.859  0.00  0.00    +0.159 HD
ATOM      9  H   UNL     1     -12.122  -0.624  -4.828  0.00  0.00    +0.159 HD
ENDROOT
BRANCH   1  10
ATOM     10  C   UNL     1     -10.949   0.301  -8.413  0.00  0.00    +0.151 C 
BRANCH  10  11
ATOM     11  C   UNL     1     -11.833   1.441  -8.840  0.00  0.00    -0.028 A 
ATOM     12  C   UNL     1     -11.882   2.624  -8.090  0.00  0.00    +0.005 A 
ATOM     13  C   UNL     1     -12.619   1.345  -9.999  0.00  0.00    +0.005 A 
ATOM     14  C   UNL     1     -12.680   3.694  -8.503  0.00  0.00    +0.000 A 
ATOM     15  C   UNL     1     -13.415   2.415 -10.407  0.00  0.00    +0.000 A 
ATOM     16  C   UNL     1     -13.443   3.590  -9.661  0.00  0.00    +0.000 A 
ENDBRANCH  10  11
ENDBRANCH   1  10
TORSDOF 2
ENDMDL
MODEL 2
REMARK VINA RESULT:    -5.344     11.528     14.594
REMARK INTER + INTRA:          -6.148
REMARK INTER:                  -6.023
REMARK INTRA:                  -0.125
REMARK UNBOUND:                -0.180
REMARK  Name = 1550473
REMARK  2 active torsions:
REMARK  status: ('A' for Active; 'I' for Inactive)
REMARK    1  A    between atoms: N_1  and  C_4
REMARK    2  A    between atoms: C_4  and  C_5
REMARK                            x       y       z     vdW  Elec       q    Type
REMARK                         _______ _______ _______ _____ _____    ______ ____
ROOT
ATOM      1  N   UNL     1     -18.111  -8.340  -2.709  0.00  0.00    -0.354 N 
ATOM      2  N   UNL     1     -17.428  -6.204  -3.289  0.00  0.00    -0.372 N 
ATOM      3  N   UNL     1     -18.916  -7.300  -4.649  0.00  0.00    -0.372 N 
ATOM      4  C   UNL     1     -18.158  -7.296  -3.547  0.00  0.00    +0.166 C 
ATOM      5  H   UNL     1     -17.493  -8.286  -1.907  0.00  0.00    +0.163 HD
ATOM      6  H   UNL     1     -17.446  -5.400  -3.901  0.00  0.00    +0.159 HD
ATOM      7  H   UNL     1     -16.847  -6.135  -2.463  0.00  0.00    +0.159 HD
ATOM      8  H   UNL     1     -19.485  -8.096  -4.904  0.00  0.00    +0.159 HD
ATOM      9  H   UNL     1     -18.938  -6.510  -5.280  0.00  0.00    +0.159 HD
ENDROOT
BRANCH   1  10
ATOM     10  C   UNL     1     -18.907  -9.555  -2.871  0.00  0.00    +0.151 C 
BRANCH  10  11
ATOM     11  C   UNL     1     -18.329 -10.640  -2.004  0.00  0.00    -0.028 A 
ATOM     12  C   UNL     1     -19.021 -11.846  -1.817  0.00  0.00    +0.005 A 
ATOM     13  C   UNL     1     -17.088 -10.471  -1.372  0.00  0.00    +0.005 A 
ATOM     14  C   UNL     1     -18.471 -12.865  -1.037  0.00  0.00    +0.000 A 
ATOM     15  C   UNL     1     -16.542 -11.491  -0.593  0.00  0.00    +0.000 A 
ATOM     16  C   UNL     1     -17.233 -12.689  -0.428  0.00  0.00    +0.000 A 
ENDBRANCH  10  11
ENDBRANCH   1  10
TORSDOF 2
ENDMDL
MODEL 3
REMARK VINA RESULT:    -5.326      1.563      2.185
REMARK INTER + INTRA:          -6.129
REMARK INTER:                  -5.990
REMARK INTRA:                  -0.139
REMARK UNBOUND:                -0.180
REMARK  Name = 1550473
REMARK  2 active torsions:
REMARK  status: ('A' for Active; 'I' for Inactive)
REMARK    1  A    between atoms: N_1  and  C_4
REMARK    2  A    between atoms: C_4  and  C_5
REMARK                            x       y       z     vdW  Elec       q    Type
REMARK                         _______ _______ _______ _____ _____    ______ ____
ROOT
ATOM      1  N   UNL     1     -13.344  -1.117  -8.418  0.00  0.00    -0.354 N 
ATOM      2  N   UNL     1     -13.134  -2.963  -7.037  0.00  0.00    -0.372 N 
ATOM      3  N   UNL     1     -15.216  -2.391  -7.815  0.00  0.00    -0.372 N 
ATOM      4  C   UNL     1     -13.902  -2.145  -7.766  0.00  0.00    +0.166 C 
ATOM      5  H   UNL     1     -12.347  -0.966  -8.316  0.00  0.00    +0.163 HD
ATOM      6  H   UNL     1     -13.527  -3.750  -6.536  0.00  0.00    +0.159 HD
ATOM      7  H   UNL     1     -12.132  -2.838  -6.973  0.00  0.00    +0.159 HD
ATOM      8  H   UNL     1     -15.851  -1.808  -8.343  0.00  0.00    +0.159 HD
ATOM      9  H   UNL     1     -15.629  -3.166  -7.312  0.00  0.00    +0.159 HD
ENDROOT
BRANCH   1  10
ATOM     10  C   UNL     1     -14.084  -0.199  -9.283  0.00  0.00    +0.151 C 
BRANCH  10  11
ATOM     11  C   UNL     1     -13.602   1.204  -9.035  0.00  0.00    -0.028 A 
ATOM     12  C   UNL     1     -12.647   1.465  -8.042  0.00  0.00    +0.005 A 
ATOM     13  C   UNL     1     -14.093   2.277  -9.795  0.00  0.00    +0.005 A 
ATOM     14  C   UNL     1     -12.177   2.763  -7.831  0.00  0.00    +0.000 A 
ATOM     15  C   UNL     1     -13.622   3.573  -9.582  0.00  0.00    +0.000 A 
ATOM     16  C   UNL     1     -12.662   3.815  -8.602  0.00  0.00    +0.000 A 
ENDBRANCH  10  11
ENDBRANCH   1  10
TORSDOF 2
ENDMDL
MODEL 4
REMARK VINA RESULT:    -5.160      4.813      6.816
REMARK INTER + INTRA:          -5.943
REMARK INTER:                  -5.799
REMARK INTRA:                  -0.144
REMARK UNBOUND:                -0.180
REMARK  Name = 1550473
REMARK  2 active torsions:
REMARK  status: ('A' for Active; 'I' for Inactive)
REMARK    1  A    between atoms: N_1  and  C_4
REMARK    2  A    between atoms: C_4  and  C_5
REMARK                            x       y       z     vdW  Elec       q    Type
REMARK                         _______ _______ _______ _____ _____    ______ ____
ROOT
ATOM      1  N   UNL     1     -14.380  -1.852  -6.064  0.00  0.00    -0.354 N 
ATOM      2  N   UNL     1     -12.114  -2.323  -6.003  0.00  0.00    -0.372 N 
ATOM      3  N   UNL     1     -13.420  -3.362  -7.577  0.00  0.00    -0.372 N 
ATOM      4  C   UNL     1     -13.320  -2.511  -6.550  0.00  0.00    +0.166 C 
ATOM      5  H   UNL     1     -14.244  -1.243  -5.265  0.00  0.00    +0.163 HD
ATOM      6  H   UNL     1     -11.295  -2.803  -6.350  0.00  0.00    +0.159 HD
ATOM      7  H   UNL     1     -11.972  -1.679  -5.233  0.00  0.00    +0.159 HD
ATOM      8  H   UNL     1     -14.303  -3.553  -8.031  0.00  0.00    +0.159 HD
ATOM      9  H   UNL     1     -12.614  -3.862  -7.931  0.00  0.00    +0.159 HD
ENDROOT
BRANCH   1  10
ATOM     10  C   UNL     1     -15.728  -1.945  -6.624  0.00  0.00    +0.151 C 
BRANCH  10  11
ATOM     11  C   UNL     1     -16.702  -2.227  -5.513  0.00  0.00    -0.028 A 
ATOM     12  C   UNL     1     -16.260  -2.326  -4.186  0.00  0.00    +0.005 A 
ATOM     13  C   UNL     1     -18.070  -2.391  -5.781  0.00  0.00    +0.005 A 
ATOM     14  C   UNL     1     -17.168  -2.558  -3.150  0.00  0.00    +0.000 A 
ATOM     15  C   UNL     1     -18.974  -2.624  -4.745  0.00  0.00    +0.000 A 
ATOM     16  C   UNL     1     -18.523  -2.705  -3.429  0.00  0.00    +0.000 A 
ENDBRANCH  10  11
ENDBRANCH   1  10
TORSDOF 2
ENDMDL
MODEL 5
REMARK VINA RESULT:    -4.995     25.006     26.385
REMARK INTER + INTRA:          -5.758
REMARK INTER:                  -5.637
REMARK INTRA:                  -0.121
REMARK UNBOUND:                -0.180
REMARK  Name = 1550473
REMARK  2 active torsions:
REMARK  status: ('A' for Active; 'I' for Inactive)
REMARK    1  A    between atoms: N_1  and  C_4
REMARK    2  A    between atoms: C_4  and  C_5
REMARK                            x       y       z     vdW  Elec       q    Type
REMARK                         _______ _______ _______ _____ _____    ______ ____
ROOT
ATOM      1  N   UNL     1      -2.958 -15.048 -24.970  0.00  0.00    -0.354 N 
ATOM      2  N   UNL     1      -4.723 -13.552 -24.859  0.00  0.00    -0.372 N 
ATOM      3  N   UNL     1      -4.154 -14.447 -26.894  0.00  0.00    -0.372 N 
ATOM      4  C   UNL     1      -3.934 -14.359 -25.578  0.00  0.00    +0.166 C 
ATOM      5  H   UNL     1      -2.823 -14.914 -23.975  0.00  0.00    +0.163 HD
ATOM      6  H   UNL     1      -5.470 -13.023 -25.290  0.00  0.00    +0.159 HD
ATOM      7  H   UNL     1      -4.616 -13.456 -23.857  0.00  0.00    +0.159 HD
ATOM      8  H   UNL     1      -3.590 -15.034 -27.494  0.00  0.00    +0.159 HD
ATOM      9  H   UNL     1      -4.889 -13.916 -27.345  0.00  0.00    +0.159 HD
ENDROOT
BRANCH   1  10
ATOM     10  C   UNL     1      -2.078 -15.994 -25.653  0.00  0.00    +0.151 C 
BRANCH  10  11
ATOM     11  C   UNL     1      -1.729 -17.110 -24.707  0.00  0.00    -0.028 A 
ATOM     12  C   UNL     1      -0.388 -17.427 -24.444  0.00  0.00    +0.005 A 
ATOM     13  C   UNL     1      -2.734 -17.851 -24.067  0.00  0.00    +0.005 A 
ATOM     14  C   UNL     1      -0.063 -18.443 -23.543  0.00  0.00    +0.000 A 
ATOM     15  C   UNL     1      -2.406 -18.866 -23.169  0.00  0.00    +0.000 A 
ATOM     16  C   UNL     1      -1.070 -19.160 -22.905  0.00  0.00    +0.000 A 
ENDBRANCH  10  11
ENDBRANCH   1  10
TORSDOF 2
ENDMDL
MODEL 6
REMARK VINA RESULT:    -4.902     13.789     15.609
REMARK INTER + INTRA:          -5.654
REMARK INTER:                  -5.487
REMARK INTRA:                  -0.168
REMARK UNBOUND:                -0.180
REMARK  Name = 1550473
REMARK  2 active torsions:
REMARK  status: ('A' for Active; 'I' for Inactive)
REMARK    1  A    between atoms: N_1  and  C_4
REMARK    2  A    between atoms: C_4  and  C_5
REMARK                            x       y       z     vdW  Elec       q    Type
REMARK                         _______ _______ _______ _____ _____    ______ ____
ROOT
ATOM      1  N   UNL     1     -14.908  -3.033   5.840  0.00  0.00    -0.354 N 
ATOM      2  N   UNL     1     -13.735  -2.344   3.965  0.00  0.00    -0.372 N 
ATOM      3  N   UNL     1     -14.479  -4.511   4.072  0.00  0.00    -0.372 N 
ATOM      4  C   UNL     1     -14.382  -3.303   4.637  0.00  0.00    +0.166 C 
ATOM      5  H   UNL     1     -14.773  -2.106   6.226  0.00  0.00    +0.163 HD
ATOM      6  H   UNL     1     -13.330  -2.517   3.055  0.00  0.00    +0.159 HD
ATOM      7  H   UNL     1     -13.641  -1.405   4.334  0.00  0.00    +0.159 HD
ATOM      8  H   UNL     1     -14.950  -5.280   4.530  0.00  0.00    +0.159 HD
ATOM      9  H   UNL     1     -14.071  -4.708   3.167  0.00  0.00    +0.159 HD
ENDROOT
BRANCH   1  10
ATOM     10  C   UNL     1     -15.678  -3.992   6.630  0.00  0.00    +0.151 C 
BRANCH  10  11
ATOM     11  C   UNL     1     -17.135  -3.851   6.288  0.00  0.00    -0.028 A 
ATOM     12  C   UNL     1     -17.790  -2.622   6.453  0.00  0.00    +0.005 A 
ATOM     13  C   UNL     1     -17.866  -4.943   5.793  0.00  0.00    +0.005 A 
ATOM     14  C   UNL     1     -19.137  -2.483   6.108  0.00  0.00    +0.000 A 
ATOM     15  C   UNL     1     -19.211  -4.800   5.450  0.00  0.00    +0.000 A 
ATOM     16  C   UNL     1     -19.845  -3.570   5.605  0.00  0.00    +0.000 A 
ENDBRANCH  10  11
ENDBRANCH   1  10
TORSDOF 2
ENDMDL
MODEL 7
REMARK VINA RESULT:    -4.895      8.502     11.218
REMARK INTER + INTRA:          -5.647
REMARK INTER:                  -5.513
REMARK INTRA:                  -0.134
REMARK UNBOUND:                -0.180
REMARK  Name = 1550473
REMARK  2 active torsions:
REMARK  status: ('A' for Active; 'I' for Inactive)
REMARK    1  A    between atoms: N_1  and  C_4
REMARK    2  A    between atoms: C_4  and  C_5
REMARK                            x       y       z     vdW  Elec       q    Type
REMARK                         _______ _______ _______ _____ _____    ______ ____
ROOT
ATOM      1  N   UNL     1     -18.623  -5.038  -5.931  0.00  0.00    -0.354 N 
ATOM      2  N   UNL     1     -18.287  -2.760  -6.177  0.00  0.00    -0.372 N 
ATOM      3  N   UNL     1     -17.013  -4.209  -7.418  0.00  0.00    -0.372 N 
ATOM      4  C   UNL     1     -17.974  -4.018  -6.508  0.00  0.00    +0.166 C 
ATOM      5  H   UNL     1     -19.321  -4.827  -5.226  0.00  0.00    +0.163 HD
ATOM      6  H   UNL     1     -17.817  -1.970  -6.598  0.00  0.00    +0.159 HD
ATOM      7  H   UNL     1     -19.017  -2.551  -5.506  0.00  0.00    +0.159 HD
ATOM      8  H   UNL     1     -16.726  -5.135  -7.707  0.00  0.00    +0.159 HD
ATOM      9  H   UNL     1     -16.523  -3.432  -7.842  0.00  0.00    +0.159 HD
ENDROOT
BRANCH   1  10
ATOM     10  C   UNL     1     -18.396  -6.444  -6.261  0.00  0.00    +0.151 C 
BRANCH  10  11
ATOM     11  C   UNL     1     -18.500  -7.266  -5.006  0.00  0.00    -0.028 A 
ATOM     12  C   UNL     1     -18.160  -8.627  -5.016  0.00  0.00    +0.005 A 
ATOM     13  C   UNL     1     -18.932  -6.689  -3.802  0.00  0.00    +0.005 A 
ATOM     14  C   UNL     1     -18.228  -9.384  -3.844  0.00  0.00    +0.000 A 
ATOM     15  C   UNL     1     -18.999  -7.448  -2.634  0.00  0.00    +0.000 A 
ATOM     16  C   UNL     1     -18.644  -8.795  -2.655  0.00  0.00    +0.000 A 
ENDBRANCH  10  11
ENDBRANCH   1  10
TORSDOF 2
ENDMDL
MODEL 8
REMARK VINA RESULT:    -4.844     19.676     20.770
REMARK INTER + INTRA:          -5.590
REMARK INTER:                  -5.495
REMARK INTRA:                  -0.095
REMARK UNBOUND:                -0.180
REMARK  Name = 1550473
REMARK  2 active torsions:
REMARK  status: ('A' for Active; 'I' for Inactive)
REMARK    1  A    between atoms: N_1  and  C_4
REMARK    2  A    between atoms: C_4  and  C_5
REMARK                            x       y       z     vdW  Elec       q    Type
REMARK                         _______ _______ _______ _____ _____    ______ ____
ROOT
ATOM      1  N   UNL     1      -5.910 -10.563 -25.692  0.00  0.00    -0.354 N 
ATOM      2  N   UNL     1      -3.897 -11.674 -25.976  0.00  0.00    -0.372 N 
ATOM      3  N   UNL     1      -5.811 -12.904 -25.676  0.00  0.00    -0.372 N 
ATOM      4  C   UNL     1      -5.221 -11.709 -25.779  0.00  0.00    +0.166 C 
ATOM      5  H   UNL     1      -5.399  -9.689 -25.748  0.00  0.00    +0.163 HD
ATOM      6  H   UNL     1      -3.352 -12.522 -26.049  0.00  0.00    +0.159 HD
ATOM      7  H   UNL     1      -3.397 -10.800 -26.078  0.00  0.00    +0.159 HD
ATOM      8  H   UNL     1      -6.806 -12.999 -25.521  0.00  0.00    +0.159 HD
ATOM      9  H   UNL     1      -5.280 -13.764 -25.735  0.00  0.00    +0.159 HD
ENDROOT
BRANCH   1  10
ATOM     10  C   UNL     1      -7.361 -10.491 -25.532  0.00  0.00    +0.151 C 
BRANCH  10  11
ATOM     11  C   UNL     1      -7.743  -9.090 -25.141  0.00  0.00    -0.028 A 
ATOM     12  C   UNL     1      -7.574  -8.029 -26.042  0.00  0.00    +0.005 A 
ATOM     13  C   UNL     1      -8.281  -8.819 -23.874  0.00  0.00    +0.005 A 
ATOM     14  C   UNL     1      -7.957  -6.732 -25.691  0.00  0.00    +0.000 A 
ATOM     15  C   UNL     1      -8.662  -7.523 -23.526  0.00  0.00    +0.000 A 
ATOM     16  C   UNL     1      -8.502  -6.480 -24.436  0.00  0.00    +0.000 A 
ENDBRANCH  10  11
ENDBRANCH   1  10
TORSDOF 2
ENDMDL
MODEL 9
REMARK VINA RESULT:    -4.830      4.990      6.134
REMARK INTER + INTRA:          -5.574
REMARK INTER:                  -5.411
REMARK INTRA:                  -0.163
REMARK UNBOUND:                -0.180
REMARK  Name = 1550473
REMARK  2 active torsions:
REMARK  status: ('A' for Active; 'I' for Inactive)
REMARK    1  A    between atoms: N_1  and  C_4
REMARK    2  A    between atoms: C_4  and  C_5
REMARK                            x       y       z     vdW  Elec       q    Type
REMARK                         _______ _______ _______ _____ _____    ______ ____
ROOT
ATOM      1  N   UNL     1     -16.145  -2.659  -7.900  0.00  0.00    -0.354 N 
ATOM      2  N   UNL     1     -17.991  -2.920  -6.527  0.00  0.00    -0.372 N 
ATOM      3  N   UNL     1     -17.075  -4.776  -7.517  0.00  0.00    -0.372 N 
ATOM      4  C   UNL     1     -17.058  -3.452  -7.325  0.00  0.00    +0.166 C 
ATOM      5  H   UNL     1     -16.204  -1.660  -7.739  0.00  0.00    +0.163 HD
ATOM      6  H   UNL     1     -18.691  -3.494  -6.076  0.00  0.00    +0.159 HD
ATOM      7  H   UNL     1     -18.020  -1.927  -6.330  0.00  0.00    +0.159 HD
ATOM      8  H   UNL     1     -16.401  -5.239  -8.113  0.00  0.00    +0.159 HD
ATOM      9  H   UNL     1     -17.774  -5.365  -7.084  0.00  0.00    +0.159 HD
ENDROOT
BRANCH   1  10
ATOM     10  C   UNL     1     -15.054  -3.145  -8.743  0.00  0.00    +0.151 C 
BRANCH  10  11
ATOM     11  C   UNL     1     -15.349  -2.802 -10.177  0.00  0.00    -0.028 A 
ATOM     12  C   UNL     1     -16.258  -3.569 -10.920  0.00  0.00    +0.005 A 
ATOM     13  C   UNL     1     -14.729  -1.706 -10.796  0.00  0.00    +0.005 A 
ATOM     14  C   UNL     1     -16.556  -3.232 -12.243  0.00  0.00    +0.000 A 
ATOM     15  C   UNL     1     -15.028  -1.373 -12.117  0.00  0.00    +0.000 A 
ATOM     16  C   UNL     1     -15.943  -2.135 -12.839  0.00  0.00    +0.000 A 
ENDBRANCH  10  11
ENDBRANCH   1  10
TORSDOF 2
ENDMDL
