MODEL 1
REMARK VINA RESULT:    -5.803      0.000      0.000
REMARK INTER + INTRA:          -6.600
REMARK INTER:                  -6.482
REMARK INTRA:                  -0.119
REMARK UNBOUND:                -0.119
REMARK  Name = 1550473
REMARK  2 active torsions:
REMARK  status: ('A' for Active; 'I' for Inactive)
REMARK    1  A    between atoms: N_1  and  C_4
REMARK    2  A    between atoms: C_4  and  C_5
REMARK                            x       y       z     vdW  Elec       q    Type
REMARK                         _______ _______ _______ _____ _____    ______ ____
ROOT
ATOM      1  N   UNL     1      -2.809  -9.588  -7.022  0.00  0.00    -0.354 N 
ATOM      2  N   UNL     1      -0.530  -9.175  -7.015  0.00  0.00    -0.372 N 
ATOM      3  N   UNL     1      -1.960  -7.521  -6.318  0.00  0.00    -0.372 N 
ATOM      4  C   UNL     1      -1.782  -8.762  -6.784  0.00  0.00    +0.166 C 
ATOM      5  H   UNL     1      -2.610 -10.506  -7.404  0.00  0.00    +0.163 HD
ATOM      6  H   UNL     1       0.265  -8.575  -6.841  0.00  0.00    +0.159 HD
ATOM      7  H   UNL     1      -0.331 -10.109  -7.353  0.00  0.00    +0.159 HD
ATOM      8  H   UNL     1      -2.880  -7.146  -6.129  0.00  0.00    +0.159 HD
ATOM      9  H   UNL     1      -1.177  -6.901  -6.149  0.00  0.00    +0.159 HD
ENDROOT
BRANCH   1  10
ATOM     10  C   UNL     1      -4.207  -9.254  -6.754  0.00  0.00    +0.151 C 
BRANCH  10  11
ATOM     11  C   UNL     1      -4.856  -8.795  -8.030  0.00  0.00    -0.028 A 
ATOM     12  C   UNL     1      -4.318  -9.159  -9.273  0.00  0.00    +0.005 A 
ATOM     13  C   UNL     1      -6.012  -8.000  -8.003  0.00  0.00    +0.005 A 
ATOM     14  C   UNL     1      -4.938  -8.757 -10.459  0.00  0.00    +0.000 A 
ATOM     15  C   UNL     1      -6.627  -7.601  -9.189  0.00  0.00    +0.000 A 
ATOM     16  C   UNL     1      -6.091  -7.981 -10.417  0.00  0.00    +0.000 A 
ENDBRANCH  10  11
ENDBRANCH   1  10
TORSDOF 2
ENDMDL
MODEL 2
REMARK VINA RESULT:    -5.780     13.238     14.429
REMARK INTER + INTRA:          -6.574
REMARK INTER:                  -6.439
REMARK INTRA:                  -0.136
REMARK UNBOUND:                -0.119
REMARK  Name = 1550473
REMARK  2 active torsions:
REMARK  status: ('A' for Active; 'I' for Inactive)
REMARK    1  A    between atoms: N_1  and  C_4
REMARK    2  A    between atoms: C_4  and  C_5
REMARK                            x       y       z     vdW  Elec       q    Type
REMARK                         _______ _______ _______ _____ _____    ______ ____
ROOT
ATOM      1  N   UNL     1      -9.586   1.780  -2.286  0.00  0.00    -0.354 N 
ATOM      2  N   UNL     1      -9.511  -0.529  -2.111  0.00  0.00    -0.372 N 
ATOM      3  N   UNL     1     -10.678   0.666  -0.537  0.00  0.00    -0.372 N 
ATOM      4  C   UNL     1      -9.927   0.655  -1.643  0.00  0.00    +0.166 C 
ATOM      5  H   UNL     1      -8.990   1.706  -3.102  0.00  0.00    +0.163 HD
ATOM      6  H   UNL     1      -9.754  -1.395  -1.649  0.00  0.00    +0.159 HD
ATOM      7  H   UNL     1      -8.953  -0.603  -2.953  0.00  0.00    +0.159 HD
ATOM      8  H   UNL     1     -11.019   1.526  -0.130  0.00  0.00    +0.159 HD
ATOM      9  H   UNL     1     -10.922  -0.190  -0.054  0.00  0.00    +0.159 HD
ENDROOT
BRANCH   1  10
ATOM     10  C   UNL     1     -10.032   3.114  -1.890  0.00  0.00    +0.151 C 
BRANCH  10  11
ATOM     11  C   UNL     1     -10.618   3.812  -3.087  0.00  0.00    -0.028 A 
ATOM     12  C   UNL     1     -11.262   3.078  -4.094  0.00  0.00    +0.005 A 
ATOM     13  C   UNL     1     -10.536   5.207  -3.218  0.00  0.00    +0.005 A 
ATOM     14  C   UNL     1     -11.832   3.728  -5.192  0.00  0.00    +0.000 A 
ATOM     15  C   UNL     1     -11.106   5.852  -4.315  0.00  0.00    +0.000 A 
ATOM     16  C   UNL     1     -11.756   5.113  -5.300  0.00  0.00    +0.000 A 
ENDBRANCH  10  11
ENDBRANCH   1  10
TORSDOF 2
ENDMDL
MODEL 3
REMARK VINA RESULT:    -5.770     14.304     15.314
REMARK INTER + INTRA:          -6.563
REMARK INTER:                  -6.390
REMARK INTRA:                  -0.173
REMARK UNBOUND:                -0.119
REMARK  Name = 1550473
REMARK  2 active torsions:
REMARK  status: ('A' for Active; 'I' for Inactive)
REMARK    1  A    between atoms: N_1  and  C_4
REMARK    2  A    between atoms: C_4  and  C_5
REMARK                            x       y       z     vdW  Elec       q    Type
REMARK                         _______ _______ _______ _____ _____    ______ ____
ROOT
ATOM      1  N   UNL     1     -12.011   0.897  -0.165  0.00  0.00    -0.354 N 
ATOM      2  N   UNL     1     -13.468   0.992   1.633  0.00  0.00    -0.372 N 
ATOM      3  N   UNL     1     -11.215   1.186   2.020  0.00  0.00    -0.372 N 
ATOM      4  C   UNL     1     -12.219   1.024   1.152  0.00  0.00    +0.166 C 
ATOM      5  H   UNL     1     -12.813   0.747  -0.767  0.00  0.00    +0.163 HD
ATOM      6  H   UNL     1     -13.656   1.089   2.621  0.00  0.00    +0.159 HD
ATOM      7  H   UNL     1     -14.271   0.888   1.024  0.00  0.00    +0.159 HD
ATOM      8  H   UNL     1     -10.249   1.213   1.721  0.00  0.00    +0.159 HD
ATOM      9  H   UNL     1     -11.382   1.273   3.014  0.00  0.00    +0.159 HD
ENDROOT
BRANCH   1  10
ATOM     10  C   UNL     1     -10.695   0.972  -0.796  0.00  0.00    +0.151 C 
BRANCH  10  11
ATOM     11  C   UNL     1     -10.566   2.291  -1.507  0.00  0.00    -0.028 A 
ATOM     12  C   UNL     1      -9.694   3.278  -1.025  0.00  0.00    +0.005 A 
ATOM     13  C   UNL     1     -11.308   2.558  -2.668  0.00  0.00    +0.005 A 
ATOM     14  C   UNL     1      -9.551   4.491  -1.702  0.00  0.00    +0.000 A 
ATOM     15  C   UNL     1     -11.163   3.771  -3.341  0.00  0.00    +0.000 A 
ATOM     16  C   UNL     1     -10.283   4.736  -2.859  0.00  0.00    +0.000 A 
ENDBRANCH  10  11
ENDBRANCH   1  10
TORSDOF 2
ENDMDL
MODEL 4
REMARK VINA RESULT:    -5.713     14.251     15.314
REMARK INTER + INTRA:          -6.499
REMARK INTER:                  -6.371
REMARK INTRA:                  -0.128
REMARK UNBOUND:                -0.119
REMARK  Name = 1550473
REMARK  2 active torsions:
REMARK  status: ('A' for Active; 'I' for Inactive)
REMARK    1  A    between atoms: N_1  and  C_4
REMARK    2  A    between atoms: C_4  and  C_5
REMARK                            x       y       z     vdW  Elec       q    Type
REMARK                         _______ _______ _______ _____ _____    ______ ____
ROOT
ATOM      1  N   UNL     1     -10.643   2.222   0.058  0.00  0.00    -0.354 N 
ATOM      2  N   UNL     1     -12.087   1.198   1.551  0.00  0.00    -0.372 N 
ATOM      3  N   UNL     1     -11.281  -0.016  -0.221  0.00  0.00    -0.372 N 
ATOM      4  C   UNL     1     -11.327   1.139   0.451  0.00  0.00    +0.166 C 
ATOM      5  H   UNL     1     -10.744   3.076   0.594  0.00  0.00    +0.163 HD
ATOM      6  H   UNL     1     -12.612   0.396   1.874  0.00  0.00    +0.159 HD
ATOM      7  H   UNL     1     -12.150   2.040   2.111  0.00  0.00    +0.159 HD
ATOM      8  H   UNL     1     -10.732  -0.124  -1.063  0.00  0.00    +0.159 HD
ATOM      9  H   UNL     1     -11.809  -0.826   0.079  0.00  0.00    +0.159 HD
ENDROOT
BRANCH   1  10
ATOM     10  C   UNL     1      -9.745   2.247  -1.095  0.00  0.00    +0.151 C 
BRANCH  10  11
ATOM     11  C   UNL     1     -10.133   3.388  -1.995  0.00  0.00    -0.028 A 
ATOM     12  C   UNL     1     -10.868   3.154  -3.166  0.00  0.00    +0.005 A 
ATOM     13  C   UNL     1      -9.773   4.707  -1.678  0.00  0.00    +0.005 A 
ATOM     14  C   UNL     1     -11.254   4.217  -3.986  0.00  0.00    +0.000 A 
ATOM     15  C   UNL     1     -10.160   5.766  -2.500  0.00  0.00    +0.000 A 
ATOM     16  C   UNL     1     -10.903   5.520  -3.653  0.00  0.00    +0.000 A 
ENDBRANCH  10  11
ENDBRANCH   1  10
TORSDOF 2
ENDMDL
MODEL 5
REMARK VINA RESULT:    -5.671     13.979     15.203
REMARK INTER + INTRA:          -6.452
REMARK INTER:                  -6.288
REMARK INTRA:                  -0.164
REMARK UNBOUND:                -0.119
REMARK  Name = 1550473
REMARK  2 active torsions:
REMARK  status: ('A' for Active; 'I' for Inactive)
REMARK    1  A    between atoms: N_1  and  C_4
REMARK    2  A    between atoms: C_4  and  C_5
REMARK                            x       y       z     vdW  Elec       q    Type
REMARK                         _______ _______ _______ _____ _____    ______ ____
ROOT
ATOM      1  N   UNL     1     -10.915   1.626  -1.608  0.00  0.00    -0.354 N 
ATOM      2  N   UNL     1     -12.050   1.341   0.391  0.00  0.00    -0.372 N 
ATOM      3  N   UNL     1     -10.184   2.676   0.356  0.00  0.00    -0.372 N 
ATOM      4  C   UNL     1     -11.040   1.884  -0.299  0.00  0.00    +0.166 C 
ATOM      5  H   UNL     1     -11.579   0.993  -2.039  0.00  0.00    +0.163 HD
ATOM      6  H   UNL     1     -12.172   1.520   1.378  0.00  0.00    +0.159 HD
ATOM      7  H   UNL     1     -12.739   0.746  -0.053  0.00  0.00    +0.159 HD
ATOM      8  H   UNL     1      -9.397   3.112  -0.106  0.00  0.00    +0.159 HD
ATOM      9  H   UNL     1     -10.283   2.858   1.346  0.00  0.00    +0.159 HD
ENDROOT
BRANCH   1  10
ATOM     10  C   UNL     1      -9.882   2.210  -2.462  0.00  0.00    +0.151 C 
BRANCH  10  11
ATOM     11  C   UNL     1     -10.437   3.434  -3.136  0.00  0.00    -0.028 A 
ATOM     12  C   UNL     1     -10.155   4.713  -2.634  0.00  0.00    +0.005 A 
ATOM     13  C   UNL     1     -11.240   3.322  -4.281  0.00  0.00    +0.005 A 
ATOM     14  C   UNL     1     -10.645   5.852  -3.278  0.00  0.00    +0.000 A 
ATOM     15  C   UNL     1     -11.729   4.462  -4.920  0.00  0.00    +0.000 A 
ATOM     16  C   UNL     1     -11.429   5.726  -4.420  0.00  0.00    +0.000 A 
ENDBRANCH  10  11
ENDBRANCH   1  10
TORSDOF 2
ENDMDL
MODEL 6
REMARK VINA RESULT:    -5.599     13.046     14.308
REMARK INTER + INTRA:          -6.372
REMARK INTER:                  -6.237
REMARK INTRA:                  -0.135
REMARK UNBOUND:                -0.119
REMARK  Name = 1550473
REMARK  2 active torsions:
REMARK  status: ('A' for Active; 'I' for Inactive)
REMARK    1  A    between atoms: N_1  and  C_4
REMARK    2  A    between atoms: C_4  and  C_5
REMARK                            x       y       z     vdW  Elec       q    Type
REMARK                         _______ _______ _______ _____ _____    ______ ____
ROOT
ATOM      1  N   UNL     1     -10.050   1.036  -3.187  0.00  0.00    -0.354 N 
ATOM      2  N   UNL     1      -9.087  -0.444  -1.688  0.00  0.00    -0.372 N 
ATOM      3  N   UNL     1     -11.375  -0.304  -1.795  0.00  0.00    -0.372 N 
ATOM      4  C   UNL     1     -10.180   0.105  -2.233  0.00  0.00    +0.166 C 
ATOM      5  H   UNL     1      -9.116   1.325  -3.454  0.00  0.00    +0.163 HD
ATOM      6  H   UNL     1      -9.154  -1.151  -0.968  0.00  0.00    +0.159 HD
ATOM      7  H   UNL     1      -8.155  -0.186  -1.989  0.00  0.00    +0.159 HD
ATOM      8  H   UNL     1     -12.238   0.075  -2.161  0.00  0.00    +0.159 HD
ATOM      9  H   UNL     1     -11.462  -1.002  -1.067  0.00  0.00    +0.159 HD
ENDROOT
BRANCH   1  10
ATOM     10  C   UNL     1     -11.176   1.657  -3.882  0.00  0.00    +0.151 C 
BRANCH  10  11
ATOM     11  C   UNL     1     -11.051   3.153  -3.782  0.00  0.00    -0.028 A 
ATOM     12  C   UNL     1     -10.383   3.740  -2.697  0.00  0.00    +0.005 A 
ATOM     13  C   UNL     1     -11.592   3.987  -4.771  0.00  0.00    +0.005 A 
ATOM     14  C   UNL     1     -10.240   5.127  -2.618  0.00  0.00    +0.000 A 
ATOM     15  C   UNL     1     -11.448   5.372  -4.689  0.00  0.00    +0.000 A 
ATOM     16  C   UNL     1     -10.770   5.942  -3.614  0.00  0.00    +0.000 A 
ENDBRANCH  10  11
ENDBRANCH   1  10
TORSDOF 2
ENDMDL
MODEL 7
REMARK VINA RESULT:    -5.450      1.360      2.144
REMARK INTER + INTRA:          -6.206
REMARK INTER:                  -6.064
REMARK INTRA:                  -0.142
REMARK UNBOUND:                -0.119
REMARK  Name = 1550473
REMARK  2 active torsions:
REMARK  status: ('A' for Active; 'I' for Inactive)
REMARK    1  A    between atoms: N_1  and  C_4
REMARK    2  A    between atoms: C_4  and  C_5
REMARK                            x       y       z     vdW  Elec       q    Type
REMARK                         _______ _______ _______ _____ _____    ______ ____
ROOT
ATOM      1  N   UNL     1      -2.207 -10.680  -8.127  0.00  0.00    -0.354 N 
ATOM      2  N   UNL     1      -0.080 -11.300  -8.801  0.00  0.00    -0.372 N 
ATOM      3  N   UNL     1      -0.314  -9.532  -7.357  0.00  0.00    -0.372 N 
ATOM      4  C   UNL     1      -0.880 -10.497  -8.089  0.00  0.00    +0.166 C 
ATOM      5  H   UNL     1      -2.576 -11.410  -8.725  0.00  0.00    +0.163 HD
ATOM      6  H   UNL     1       0.925 -11.189  -8.790  0.00  0.00    +0.159 HD
ATOM      7  H   UNL     1      -0.448 -12.059  -9.362  0.00  0.00    +0.159 HD
ATOM      8  H   UNL     1      -0.863  -8.889  -6.802  0.00  0.00    +0.159 HD
ATOM      9  H   UNL     1       0.689  -9.397  -7.342  0.00  0.00    +0.159 HD
ENDROOT
BRANCH   1  10
ATOM     10  C   UNL     1      -3.162  -9.895  -7.347  0.00  0.00    +0.151 C 
BRANCH  10  11
ATOM     11  C   UNL     1      -4.166  -9.275  -8.280  0.00  0.00    -0.028 A 
ATOM     12  C   UNL     1      -5.227  -8.509  -7.776  0.00  0.00    +0.005 A 
ATOM     13  C   UNL     1      -4.057  -9.444  -9.668  0.00  0.00    +0.005 A 
ATOM     14  C   UNL     1      -6.142  -7.907  -8.644  0.00  0.00    +0.000 A 
ATOM     15  C   UNL     1      -4.973  -8.843 -10.531  0.00  0.00    +0.000 A 
ATOM     16  C   UNL     1      -6.014  -8.073 -10.019  0.00  0.00    +0.000 A 
ENDBRANCH  10  11
ENDBRANCH   1  10
TORSDOF 2
ENDMDL
MODEL 8
REMARK VINA RESULT:    -5.382     14.783     15.457
REMARK INTER + INTRA:          -6.129
REMARK INTER:                  -5.990
REMARK INTRA:                  -0.139
REMARK UNBOUND:                -0.119
REMARK  Name = 1550473
REMARK  2 active torsions:
REMARK  status: ('A' for Active; 'I' for Inactive)
REMARK    1  A    between atoms: N_1  and  C_4
REMARK    2  A    between atoms: C_4  and  C_5
REMARK                            x       y       z     vdW  Elec       q    Type
REMARK                         _______ _______ _______ _____ _____    ______ ____
ROOT
ATOM      1  N   UNL     1     -10.956   4.031  -4.548  0.00  0.00    -0.354 N 
ATOM      2  N   UNL     1     -11.976   5.046  -6.362  0.00  0.00    -0.372 N 
ATOM      3  N   UNL     1     -11.496   6.311  -4.509  0.00  0.00    -0.372 N 
ATOM      4  C   UNL     1     -11.469   5.125  -5.126  0.00  0.00    +0.166 C 
ATOM      5  H   UNL     1     -10.992   3.155  -5.057  0.00  0.00    +0.163 HD
ATOM      6  H   UNL     1     -12.367   5.856  -6.826  0.00  0.00    +0.159 HD
ATOM      7  H   UNL     1     -11.970   4.180  -6.887  0.00  0.00    +0.159 HD
ATOM      8  H   UNL     1     -11.135   6.436  -3.572  0.00  0.00    +0.159 HD
ATOM      9  H   UNL     1     -11.894   7.130  -4.951  0.00  0.00    +0.159 HD
ENDROOT
BRANCH   1  10
ATOM     10  C   UNL     1     -10.331   4.021  -3.226  0.00  0.00    +0.151 C 
BRANCH  10  11
ATOM     11  C   UNL     1     -10.955   2.933  -2.396  0.00  0.00    -0.028 A 
ATOM     12  C   UNL     1     -10.340   2.500  -1.212  0.00  0.00    +0.005 A 
ATOM     13  C   UNL     1     -12.163   2.336  -2.785  0.00  0.00    +0.005 A 
ATOM     14  C   UNL     1     -10.934   1.511  -0.425  0.00  0.00    +0.000 A 
ATOM     15  C   UNL     1     -12.753   1.348  -1.997  0.00  0.00    +0.000 A 
ATOM     16  C   UNL     1     -12.140   0.937  -0.816  0.00  0.00    +0.000 A 
ENDBRANCH  10  11
ENDBRANCH   1  10
TORSDOF 2
ENDMDL
MODEL 9
REMARK VINA RESULT:    -5.215     11.785     12.960
REMARK INTER + INTRA:          -5.943
REMARK INTER:                  -5.825
REMARK INTRA:                  -0.118
REMARK UNBOUND:                -0.119
REMARK  Name = 1550473
REMARK  2 active torsions:
REMARK  status: ('A' for Active; 'I' for Inactive)
REMARK    1  A    between atoms: N_1  and  C_4
REMARK    2  A    between atoms: C_4  and  C_5
REMARK                            x       y       z     vdW  Elec       q    Type
REMARK                         _______ _______ _______ _____ _____    ______ ____
ROOT
ATOM      1  N   UNL     1      -5.619 -18.026  -0.693  0.00  0.00    -0.354 N 
ATOM      2  N   UNL     1      -3.996 -16.404  -1.012  0.00  0.00    -0.372 N 
ATOM      3  N   UNL     1      -3.390 -18.412  -0.081  0.00  0.00    -0.372 N 
ATOM      4  C   UNL     1      -4.344 -17.627  -0.592  0.00  0.00    +0.166 C 
ATOM      5  H   UNL     1      -6.300 -17.372  -1.061  0.00  0.00    +0.163 HD
ATOM      6  H   UNL     1      -3.042 -16.077  -0.951  0.00  0.00    +0.159 HD
ATOM      7  H   UNL     1      -4.671 -15.770  -1.422  0.00  0.00    +0.159 HD
ATOM      8  H   UNL     1      -3.588 -19.344   0.259  0.00  0.00    +0.159 HD
ATOM      9  H   UNL     1      -2.431 -18.098  -0.002  0.00  0.00    +0.159 HD
ENDROOT
BRANCH   1  10
ATOM     10  C   UNL     1      -6.091 -19.357  -0.315  0.00  0.00    +0.151 C 
BRANCH  10  11
ATOM     11  C   UNL     1      -6.947 -19.907  -1.422  0.00  0.00    -0.028 A 
ATOM     12  C   UNL     1      -8.283 -19.501  -1.558  0.00  0.00    +0.005 A 
ATOM     13  C   UNL     1      -6.427 -20.831  -2.341  0.00  0.00    +0.005 A 
ATOM     14  C   UNL     1      -9.070 -19.989  -2.604  0.00  0.00    +0.000 A 
ATOM     15  C   UNL     1      -7.217 -21.317  -3.383  0.00  0.00    +0.000 A 
ATOM     16  C   UNL     1      -8.537 -20.894  -3.516  0.00  0.00    +0.000 A 
ENDBRANCH  10  11
ENDBRANCH   1  10
TORSDOF 2
ENDMDL
