MODEL 1
REMARK VINA RESULT:    -6.425      0.000      0.000
REMARK INTER + INTRA:          -7.301
REMARK INTER:                  -7.177
REMARK INTRA:                  -0.125
REMARK UNBOUND:                -0.125
REMARK  Name = 1550473
REMARK  2 active torsions:
REMARK  status: ('A' for Active; 'I' for Inactive)
REMARK    1  A    between atoms: N_1  and  C_4
REMARK    2  A    between atoms: C_4  and  C_5
REMARK                            x       y       z     vdW  Elec       q    Type
REMARK                         _______ _______ _______ _____ _____    ______ ____
ROOT
ATOM      1  N   UNL     1      -6.724 -11.952  -5.296  0.00  0.00    -0.354 N 
ATOM      2  N   UNL     1      -8.118 -13.458  -4.222  0.00  0.00    -0.372 N 
ATOM      3  N   UNL     1      -8.589 -11.217  -4.082  0.00  0.00    -0.372 N 
ATOM      4  C   UNL     1      -7.802 -12.197  -4.539  0.00  0.00    +0.166 C 
ATOM      5  H   UNL     1      -6.151 -12.736  -5.585  0.00  0.00    +0.163 HD
ATOM      6  H   UNL     1      -8.927 -13.674  -3.656  0.00  0.00    +0.159 HD
ATOM      7  H   UNL     1      -7.569 -14.243  -4.551  0.00  0.00    +0.159 HD
ATOM      8  H   UNL     1      -8.403 -10.243  -4.281  0.00  0.00    +0.159 HD
ATOM      9  H   UNL     1      -9.397 -11.412  -3.504  0.00  0.00    +0.159 HD
ENDROOT
BRANCH   1  10
ATOM     10  C   UNL     1      -6.324 -10.618  -5.742  0.00  0.00    +0.151 C 
BRANCH  10  11
ATOM     11  C   UNL     1      -6.326 -10.583  -7.246  0.00  0.00    -0.028 A 
ATOM     12  C   UNL     1      -5.758  -9.500  -7.933  0.00  0.00    +0.005 A 
ATOM     13  C   UNL     1      -6.889 -11.632  -7.989  0.00  0.00    +0.005 A 
ATOM     14  C   UNL     1      -5.733  -9.481  -9.330  0.00  0.00    +0.000 A 
ATOM     15  C   UNL     1      -6.863 -11.609  -9.383  0.00  0.00    +0.000 A 
ATOM     16  C   UNL     1      -6.282 -10.534 -10.053  0.00  0.00    +0.000 A 
ENDBRANCH  10  11
ENDBRANCH   1  10
TORSDOF 2
ENDMDL
MODEL 2
REMARK VINA RESULT:    -6.140      1.695      2.219
REMARK INTER + INTRA:          -6.983
REMARK INTER:                  -6.843
REMARK INTRA:                  -0.140
REMARK UNBOUND:                -0.125
REMARK  Name = 1550473
REMARK  2 active torsions:
REMARK  status: ('A' for Active; 'I' for Inactive)
REMARK    1  A    between atoms: N_1  and  C_4
REMARK    2  A    between atoms: C_4  and  C_5
REMARK                            x       y       z     vdW  Elec       q    Type
REMARK                         _______ _______ _______ _____ _____    ______ ____
ROOT
ATOM      1  N   UNL     1      -5.926  -9.756  -4.966  0.00  0.00    -0.354 N 
ATOM      2  N   UNL     1      -6.062  -8.096  -3.357  0.00  0.00    -0.372 N 
ATOM      3  N   UNL     1      -7.634  -9.768  -3.361  0.00  0.00    -0.372 N 
ATOM      4  C   UNL     1      -6.542  -9.219  -3.905  0.00  0.00    +0.166 C 
ATOM      5  H   UNL     1      -5.120  -9.275  -5.349  0.00  0.00    +0.163 HD
ATOM      6  H   UNL     1      -6.504  -7.670  -2.553  0.00  0.00    +0.159 HD
ATOM      7  H   UNL     1      -5.230  -7.643  -3.713  0.00  0.00    +0.159 HD
ATOM      8  H   UNL     1      -8.049 -10.612  -3.732  0.00  0.00    +0.159 HD
ATOM      9  H   UNL     1      -8.097  -9.350  -2.564  0.00  0.00    +0.159 HD
ENDROOT
BRANCH   1  10
ATOM     10  C   UNL     1      -6.336 -11.006  -5.604  0.00  0.00    +0.151 C 
BRANCH  10  11
ATOM     11  C   UNL     1      -6.358 -10.812  -7.095  0.00  0.00    -0.028 A 
ATOM     12  C   UNL     1      -5.793  -9.665  -7.672  0.00  0.00    +0.005 A 
ATOM     13  C   UNL     1      -6.937 -11.774  -7.936  0.00  0.00    +0.005 A 
ATOM     14  C   UNL     1      -5.787  -9.499  -9.059  0.00  0.00    +0.000 A 
ATOM     15  C   UNL     1      -6.929 -11.604  -9.321  0.00  0.00    +0.000 A 
ATOM     16  C   UNL     1      -6.352 -10.468  -9.882  0.00  0.00    +0.000 A 
ENDBRANCH  10  11
ENDBRANCH   1  10
TORSDOF 2
ENDMDL
MODEL 3
REMARK VINA RESULT:    -5.992      3.985      5.584
REMARK INTER + INTRA:          -6.817
REMARK INTER:                  -6.653
REMARK INTRA:                  -0.164
REMARK UNBOUND:                -0.125
REMARK  Name = 1550473
REMARK  2 active torsions:
REMARK  status: ('A' for Active; 'I' for Inactive)
REMARK    1  A    between atoms: N_1  and  C_4
REMARK    2  A    between atoms: C_4  and  C_5
REMARK                            x       y       z     vdW  Elec       q    Type
REMARK                         _______ _______ _______ _____ _____    ______ ____
ROOT
ATOM      1  N   UNL     1      -5.410 -11.063 -11.278  0.00  0.00    -0.354 N 
ATOM      2  N   UNL     1      -3.584 -10.382 -12.529  0.00  0.00    -0.372 N 
ATOM      3  N   UNL     1      -5.357  -8.946 -12.284  0.00  0.00    -0.372 N 
ATOM      4  C   UNL     1      -4.797 -10.133 -12.023  0.00  0.00    +0.166 C 
ATOM      5  H   UNL     1      -4.946 -11.953 -11.142  0.00  0.00    +0.163 HD
ATOM      6  H   UNL     1      -3.095  -9.698 -13.092  0.00  0.00    +0.159 HD
ATOM      7  H   UNL     1      -3.102 -11.255 -12.353  0.00  0.00    +0.159 HD
ATOM      8  H   UNL     1      -6.274  -8.699 -11.936  0.00  0.00    +0.159 HD
ATOM      9  H   UNL     1      -4.889  -8.254 -12.854  0.00  0.00    +0.159 HD
ENDROOT
BRANCH   1  10
ATOM     10  C   UNL     1      -6.709 -10.870 -10.636  0.00  0.00    +0.151 C 
BRANCH  10  11
ATOM     11  C   UNL     1      -6.525 -10.879  -9.143  0.00  0.00    -0.028 A 
ATOM     12  C   UNL     1      -6.036  -9.745  -8.480  0.00  0.00    +0.005 A 
ATOM     13  C   UNL     1      -6.844 -12.017  -8.387  0.00  0.00    +0.005 A 
ATOM     14  C   UNL     1      -5.893  -9.742  -7.090  0.00  0.00    +0.000 A 
ATOM     15  C   UNL     1      -6.699 -12.011  -6.999  0.00  0.00    +0.000 A 
ATOM     16  C   UNL     1      -6.226 -10.873  -6.351  0.00  0.00    +0.000 A 
ENDBRANCH  10  11
ENDBRANCH   1  10
TORSDOF 2
ENDMDL
MODEL 4
REMARK VINA RESULT:    -5.890      2.525      5.788
REMARK INTER + INTRA:          -6.703
REMARK INTER:                  -6.593
REMARK INTRA:                  -0.111
REMARK UNBOUND:                -0.125
REMARK  Name = 1550473
REMARK  2 active torsions:
REMARK  status: ('A' for Active; 'I' for Inactive)
REMARK    1  A    between atoms: N_1  and  C_4
REMARK    2  A    between atoms: C_4  and  C_5
REMARK                            x       y       z     vdW  Elec       q    Type
REMARK                         _______ _______ _______ _____ _____    ______ ____
ROOT
ATOM      1  N   UNL     1      -7.627 -11.606  -5.476  0.00  0.00    -0.354 N 
ATOM      2  N   UNL     1      -5.951 -11.478  -7.069  0.00  0.00    -0.372 N 
ATOM      3  N   UNL     1      -6.001  -9.921  -5.384  0.00  0.00    -0.372 N 
ATOM      4  C   UNL     1      -6.537 -11.000  -5.965  0.00  0.00    +0.166 C 
ATOM      5  H   UNL     1      -8.002 -12.402  -5.980  0.00  0.00    +0.163 HD
ATOM      6  H   UNL     1      -5.126 -11.043  -7.459  0.00  0.00    +0.159 HD
ATOM      7  H   UNL     1      -6.301 -12.301  -7.545  0.00  0.00    +0.159 HD
ATOM      8  H   UNL     1      -6.399  -9.508  -4.551  0.00  0.00    +0.159 HD
ATOM      9  H   UNL     1      -5.182  -9.465  -5.766  0.00  0.00    +0.159 HD
ENDROOT
BRANCH   1  10
ATOM     10  C   UNL     1      -8.309 -11.198  -4.249  0.00  0.00    +0.151 C 
BRANCH  10  11
ATOM     11  C   UNL     1      -9.233 -12.300  -3.810  0.00  0.00    -0.028 A 
ATOM     12  C   UNL     1      -8.767 -13.619  -3.701  0.00  0.00    +0.005 A 
ATOM     13  C   UNL     1     -10.574 -12.032  -3.498  0.00  0.00    +0.005 A 
ATOM     14  C   UNL     1      -9.616 -14.638  -3.264  0.00  0.00    +0.000 A 
ATOM     15  C   UNL     1     -11.420 -13.053  -3.063  0.00  0.00    +0.000 A 
ATOM     16  C   UNL     1     -10.940 -14.355  -2.944  0.00  0.00    +0.000 A 
ENDBRANCH  10  11
ENDBRANCH   1  10
TORSDOF 2
ENDMDL
MODEL 5
REMARK VINA RESULT:    -5.871      4.008      5.988
REMARK INTER + INTRA:          -6.682
REMARK INTER:                  -6.585
REMARK INTRA:                  -0.098
REMARK UNBOUND:                -0.125
REMARK  Name = 1550473
REMARK  2 active torsions:
REMARK  status: ('A' for Active; 'I' for Inactive)
REMARK    1  A    between atoms: N_1  and  C_4
REMARK    2  A    between atoms: C_4  and  C_5
REMARK                            x       y       z     vdW  Elec       q    Type
REMARK                         _______ _______ _______ _____ _____    ______ ____
ROOT
ATOM      1  N   UNL     1      -8.183 -10.229  -3.372  0.00  0.00    -0.354 N 
ATOM      2  N   UNL     1      -7.202  -8.368  -2.401  0.00  0.00    -0.372 N 
ATOM      3  N   UNL     1      -6.153  -9.376  -4.175  0.00  0.00    -0.372 N 
ATOM      4  C   UNL     1      -7.184  -9.337  -3.324  0.00  0.00    +0.166 C 
ATOM      5  H   UNL     1      -8.920 -10.163  -2.680  0.00  0.00    +0.163 HD
ATOM      6  H   UNL     1      -6.464  -7.679  -2.343  0.00  0.00    +0.159 HD
ATOM      7  H   UNL     1      -7.964  -8.277  -1.740  0.00  0.00    +0.159 HD
ATOM      8  H   UNL     1      -6.076 -10.086  -4.891  0.00  0.00    +0.159 HD
ATOM      9  H   UNL     1      -5.398  -8.703  -4.125  0.00  0.00    +0.159 HD
ENDROOT
BRANCH   1  10
ATOM     10  C   UNL     1      -8.284 -11.290  -4.372  0.00  0.00    +0.151 C 
BRANCH  10  11
ATOM     11  C   UNL     1      -9.243 -12.339  -3.879  0.00  0.00    -0.028 A 
ATOM     12  C   UNL     1      -8.800 -13.645  -3.625  0.00  0.00    +0.005 A 
ATOM     13  C   UNL     1     -10.594 -12.031  -3.659  0.00  0.00    +0.005 A 
ATOM     14  C   UNL     1      -9.683 -14.612  -3.139  0.00  0.00    +0.000 A 
ATOM     15  C   UNL     1     -11.473 -13.000  -3.174  0.00  0.00    +0.000 A 
ATOM     16  C   UNL     1     -11.017 -14.289  -2.912  0.00  0.00    +0.000 A 
ENDBRANCH  10  11
ENDBRANCH   1  10
TORSDOF 2
ENDMDL
MODEL 6
REMARK VINA RESULT:    -5.553      1.704      2.612
REMARK INTER + INTRA:          -6.327
REMARK INTER:                  -6.204
REMARK INTRA:                  -0.122
REMARK UNBOUND:                -0.125
REMARK  Name = 1550473
REMARK  2 active torsions:
REMARK  status: ('A' for Active; 'I' for Inactive)
REMARK    1  A    between atoms: N_1  and  C_4
REMARK    2  A    between atoms: C_4  and  C_5
REMARK                            x       y       z     vdW  Elec       q    Type
REMARK                         _______ _______ _______ _____ _____    ______ ____
ROOT
ATOM      1  N   UNL     1      -6.066 -10.902  -7.481  0.00  0.00    -0.354 N 
ATOM      2  N   UNL     1      -6.653 -12.334  -5.758  0.00  0.00    -0.372 N 
ATOM      3  N   UNL     1      -6.247 -10.127  -5.277  0.00  0.00    -0.372 N 
ATOM      4  C   UNL     1      -6.318 -11.109  -6.182  0.00  0.00    +0.166 C 
ATOM      5  H   UNL     1      -6.108 -11.694  -8.112  0.00  0.00    +0.163 HD
ATOM      6  H   UNL     1      -6.851 -12.520  -4.784  0.00  0.00    +0.159 HD
ATOM      7  H   UNL     1      -6.738 -13.114  -6.398  0.00  0.00    +0.159 HD
ATOM      8  H   UNL     1      -5.994  -9.182  -5.531  0.00  0.00    +0.159 HD
ATOM      9  H   UNL     1      -6.431 -10.297  -4.296  0.00  0.00    +0.159 HD
ENDROOT
BRANCH   1  10
ATOM     10  C   UNL     1      -5.746  -9.595  -8.054  0.00  0.00    +0.151 C 
BRANCH  10  11
ATOM     11  C   UNL     1      -5.377  -9.770  -9.501  0.00  0.00    -0.028 A 
ATOM     12  C   UNL     1      -4.820  -8.707 -10.227  0.00  0.00    +0.005 A 
ATOM     13  C   UNL     1      -5.576 -10.998 -10.150  0.00  0.00    +0.005 A 
ATOM     14  C   UNL     1      -4.449  -8.878 -11.563  0.00  0.00    +0.000 A 
ATOM     15  C   UNL     1      -5.206 -11.165 -11.485  0.00  0.00    +0.000 A 
ATOM     16  C   UNL     1      -4.640 -10.105 -12.190  0.00  0.00    +0.000 A 
ENDBRANCH  10  11
ENDBRANCH   1  10
TORSDOF 2
ENDMDL
MODEL 7
REMARK VINA RESULT:    -5.548      3.191      4.393
REMARK INTER + INTRA:          -6.321
REMARK INTER:                  -6.143
REMARK INTRA:                  -0.178
REMARK UNBOUND:                -0.125
REMARK  Name = 1550473
REMARK  2 active torsions:
REMARK  status: ('A' for Active; 'I' for Inactive)
REMARK    1  A    between atoms: N_1  and  C_4
REMARK    2  A    between atoms: C_4  and  C_5
REMARK                            x       y       z     vdW  Elec       q    Type
REMARK                         _______ _______ _______ _____ _____    ______ ____
ROOT
ATOM      1  N   UNL     1      -9.392 -12.606  -2.120  0.00  0.00    -0.354 N 
ATOM      2  N   UNL     1      -8.958 -14.706  -1.244  0.00  0.00    -0.372 N 
ATOM      3  N   UNL     1      -9.682 -14.539  -3.415  0.00  0.00    -0.372 N 
ATOM      4  C   UNL     1      -9.348 -13.937  -2.268  0.00  0.00    +0.166 C 
ATOM      5  H   UNL     1      -9.156 -12.214  -1.216  0.00  0.00    +0.163 HD
ATOM      6  H   UNL     1      -8.911 -15.712  -1.326  0.00  0.00    +0.159 HD
ATOM      7  H   UNL     1      -8.678 -14.308  -0.355  0.00  0.00    +0.159 HD
ATOM      8  H   UNL     1      -9.990 -14.016  -4.223  0.00  0.00    +0.159 HD
ATOM      9  H   UNL     1      -9.653 -15.546  -3.513  0.00  0.00    +0.159 HD
ENDROOT
BRANCH   1  10
ATOM     10  C   UNL     1      -9.751 -11.677  -3.190  0.00  0.00    +0.151 C 
BRANCH  10  11
ATOM     11  C   UNL     1      -8.505 -11.001  -3.692  0.00  0.00    -0.028 A 
ATOM     12  C   UNL     1      -8.011  -9.854  -3.053  0.00  0.00    +0.005 A 
ATOM     13  C   UNL     1      -7.812 -11.505  -4.803  0.00  0.00    +0.005 A 
ATOM     14  C   UNL     1      -6.837  -9.244  -3.501  0.00  0.00    +0.000 A 
ATOM     15  C   UNL     1      -6.640 -10.892  -5.247  0.00  0.00    +0.000 A 
ATOM     16  C   UNL     1      -6.152  -9.763  -4.594  0.00  0.00    +0.000 A 
ENDBRANCH  10  11
ENDBRANCH   1  10
TORSDOF 2
ENDMDL
MODEL 8
REMARK VINA RESULT:    -5.505      4.555      5.792
REMARK INTER + INTRA:          -6.273
REMARK INTER:                  -6.099
REMARK INTRA:                  -0.174
REMARK UNBOUND:                -0.125
REMARK  Name = 1550473
REMARK  2 active torsions:
REMARK  status: ('A' for Active; 'I' for Inactive)
REMARK    1  A    between atoms: N_1  and  C_4
REMARK    2  A    between atoms: C_4  and  C_5
REMARK                            x       y       z     vdW  Elec       q    Type
REMARK                         _______ _______ _______ _____ _____    ______ ____
ROOT
ATOM      1  N   UNL     1      -3.235 -10.466 -11.209  0.00  0.00    -0.354 N 
ATOM      2  N   UNL     1      -1.445 -11.904 -11.520  0.00  0.00    -0.372 N 
ATOM      3  N   UNL     1      -1.530 -10.635  -9.610  0.00  0.00    -0.372 N 
ATOM      4  C   UNL     1      -2.081 -10.991 -10.775  0.00  0.00    +0.166 C 
ATOM      5  H   UNL     1      -3.584 -10.756 -12.115  0.00  0.00    +0.163 HD
ATOM      6  H   UNL     1      -0.575 -12.320 -11.217  0.00  0.00    +0.159 HD
ATOM      7  H   UNL     1      -1.820 -12.225 -12.404  0.00  0.00    +0.159 HD
ATOM      8  H   UNL     1      -1.956  -9.947  -9.004  0.00  0.00    +0.159 HD
ATOM      9  H   UNL     1      -0.653 -11.031  -9.295  0.00  0.00    +0.159 HD
ENDROOT
BRANCH   1  10
ATOM     10  C   UNL     1      -4.033  -9.506 -10.450  0.00  0.00    +0.151 C 
BRANCH  10  11
ATOM     11  C   UNL     1      -5.063 -10.250  -9.646  0.00  0.00    -0.028 A 
ATOM     12  C   UNL     1      -6.137 -10.890 -10.283  0.00  0.00    +0.005 A 
ATOM     13  C   UNL     1      -4.969 -10.324  -8.248  0.00  0.00    +0.005 A 
ATOM     14  C   UNL     1      -7.078 -11.606  -9.540  0.00  0.00    +0.000 A 
ATOM     15  C   UNL     1      -5.911 -11.040  -7.509  0.00  0.00    +0.000 A 
ATOM     16  C   UNL     1      -6.964 -11.683  -8.156  0.00  0.00    +0.000 A 
ENDBRANCH  10  11
ENDBRANCH   1  10
TORSDOF 2
ENDMDL
MODEL 9
REMARK VINA RESULT:    -5.306     25.619     26.865
REMARK INTER + INTRA:          -6.052
REMARK INTER:                  -5.907
REMARK INTRA:                  -0.145
REMARK UNBOUND:                -0.125
REMARK  Name = 1550473
REMARK  2 active torsions:
REMARK  status: ('A' for Active; 'I' for Inactive)
REMARK    1  A    between atoms: N_1  and  C_4
REMARK    2  A    between atoms: C_4  and  C_5
REMARK                            x       y       z     vdW  Elec       q    Type
REMARK                         _______ _______ _______ _____ _____    ______ ____
ROOT
ATOM      1  N   UNL     1       7.213   3.301  13.383  0.00  0.00    -0.354 N 
ATOM      2  N   UNL     1       6.667   4.016  15.517  0.00  0.00    -0.372 N 
ATOM      3  N   UNL     1       6.084   1.891  14.876  0.00  0.00    -0.372 N 
ATOM      4  C   UNL     1       6.657   3.062  14.578  0.00  0.00    +0.166 C 
ATOM      5  H   UNL     1       7.604   4.220  13.209  0.00  0.00    +0.163 HD
ATOM      6  H   UNL     1       6.259   3.864  16.429  0.00  0.00    +0.159 HD
ATOM      7  H   UNL     1       7.100   4.918  15.356  0.00  0.00    +0.159 HD
ATOM      8  H   UNL     1       6.039   1.133  14.209  0.00  0.00    +0.159 HD
ATOM      9  H   UNL     1       5.660   1.724  15.780  0.00  0.00    +0.159 HD
ENDROOT
BRANCH   1  10
ATOM     10  C   UNL     1       7.302   2.312  12.310  0.00  0.00    +0.151 C 
BRANCH  10  11
ATOM     11  C   UNL     1       6.072   2.407  11.451  0.00  0.00    -0.028 A 
ATOM     12  C   UNL     1       5.647   3.646  10.949  0.00  0.00    +0.005 A 
ATOM     13  C   UNL     1       5.330   1.260  11.129  0.00  0.00    +0.005 A 
ATOM     14  C   UNL     1       4.522   3.730  10.126  0.00  0.00    +0.000 A 
ATOM     15  C   UNL     1       4.206   1.349  10.308  0.00  0.00    +0.000 A 
ATOM     16  C   UNL     1       3.804   2.583   9.805  0.00  0.00    +0.000 A 
ENDBRANCH  10  11
ENDBRANCH   1  10
TORSDOF 2
ENDMDL
