MODEL 1
REMARK VINA RESULT:    -6.633      0.000      0.000
REMARK INTER + INTRA:          -7.512
REMARK INTER:                  -7.408
REMARK INTRA:                  -0.103
REMARK UNBOUND:                -0.103
REMARK  Name = 1550473
REMARK  2 active torsions:
REMARK  status: ('A' for Active; 'I' for Inactive)
REMARK    1  A    between atoms: N_1  and  C_4
REMARK    2  A    between atoms: C_4  and  C_5
REMARK                            x       y       z     vdW  Elec       q    Type
REMARK                         _______ _______ _______ _____ _____    ______ ____
ROOT
ATOM      1  N   UNL     1       1.976 -15.762  -7.621  0.00  0.00    -0.354 N 
ATOM      2  N   UNL     1       1.392 -17.494  -9.044  0.00  0.00    -0.372 N 
ATOM      3  N   UNL     1       0.092 -17.089  -7.197  0.00  0.00    -0.372 N 
ATOM      4  C   UNL     1       1.155 -16.771  -7.943  0.00  0.00    +0.166 C 
ATOM      5  H   UNL     1       2.782 -15.590  -8.211  0.00  0.00    +0.163 HD
ATOM      6  H   UNL     1       0.789 -18.258  -9.314  0.00  0.00    +0.159 HD
ATOM      7  H   UNL     1       2.173 -17.291  -9.657  0.00  0.00    +0.159 HD
ATOM      8  H   UNL     1      -0.139 -16.586  -6.351  0.00  0.00    +0.159 HD
ATOM      9  H   UNL     1      -0.518 -17.859  -7.445  0.00  0.00    +0.159 HD
ENDROOT
BRANCH   1  10
ATOM     10  C   UNL     1       1.776 -14.880  -6.472  0.00  0.00    +0.151 C 
BRANCH  10  11
ATOM     11  C   UNL     1       1.234 -13.562  -6.954  0.00  0.00    -0.028 A 
ATOM     12  C   UNL     1      -0.053 -13.480  -7.505  0.00  0.00    +0.005 A 
ATOM     13  C   UNL     1       2.001 -12.391  -6.856  0.00  0.00    +0.005 A 
ATOM     14  C   UNL     1      -0.568 -12.251  -7.925  0.00  0.00    +0.000 A 
ATOM     15  C   UNL     1       1.484 -11.166  -7.277  0.00  0.00    +0.000 A 
ATOM     16  C   UNL     1       0.198 -11.096  -7.809  0.00  0.00    +0.000 A 
ENDBRANCH  10  11
ENDBRANCH   1  10
TORSDOF 2
ENDMDL
MODEL 2
REMARK VINA RESULT:    -6.412     21.809     23.408
REMARK INTER + INTRA:          -7.265
REMARK INTER:                  -7.149
REMARK INTRA:                  -0.117
REMARK UNBOUND:                -0.103
REMARK  Name = 1550473
REMARK  2 active torsions:
REMARK  status: ('A' for Active; 'I' for Inactive)
REMARK    1  A    between atoms: N_1  and  C_4
REMARK    2  A    between atoms: C_4  and  C_5
REMARK                            x       y       z     vdW  Elec       q    Type
REMARK                         _______ _______ _______ _____ _____    ______ ____
ROOT
ATOM      1  N   UNL     1      -8.292   4.676  -1.526  0.00  0.00    -0.354 N 
ATOM      2  N   UNL     1      -9.416   2.861  -0.627  0.00  0.00    -0.372 N 
ATOM      3  N   UNL     1      -8.243   4.247   0.777  0.00  0.00    -0.372 N 
ATOM      4  C   UNL     1      -8.642   3.941  -0.462  0.00  0.00    +0.166 C 
ATOM      5  H   UNL     1      -8.602   4.373  -2.443  0.00  0.00    +0.163 HD
ATOM      6  H   UNL     1      -9.699   2.290   0.158  0.00  0.00    +0.159 HD
ATOM      7  H   UNL     1      -9.762   2.588  -1.538  0.00  0.00    +0.159 HD
ATOM      8  H   UNL     1      -7.653   5.045   0.968  0.00  0.00    +0.159 HD
ATOM      9  H   UNL     1      -8.506   3.680   1.574  0.00  0.00    +0.159 HD
ENDROOT
BRANCH   1  10
ATOM     10  C   UNL     1      -7.497   5.900  -1.449  0.00  0.00    +0.151 C 
BRANCH  10  11
ATOM     11  C   UNL     1      -8.176   6.978  -2.247  0.00  0.00    -0.028 A 
ATOM     12  C   UNL     1      -8.717   8.103  -1.608  0.00  0.00    +0.005 A 
ATOM     13  C   UNL     1      -8.276   6.884  -3.644  0.00  0.00    +0.005 A 
ATOM     14  C   UNL     1      -9.322   9.119  -2.352  0.00  0.00    +0.000 A 
ATOM     15  C   UNL     1      -8.881   7.900  -4.383  0.00  0.00    +0.000 A 
ATOM     16  C   UNL     1      -9.402   9.019  -3.737  0.00  0.00    +0.000 A 
ENDBRANCH  10  11
ENDBRANCH   1  10
TORSDOF 2
ENDMDL
MODEL 3
REMARK VINA RESULT:    -6.301     23.433     25.139
REMARK INTER + INTRA:          -7.141
REMARK INTER:                  -7.009
REMARK INTRA:                  -0.132
REMARK UNBOUND:                -0.103
REMARK  Name = 1550473
REMARK  2 active torsions:
REMARK  status: ('A' for Active; 'I' for Inactive)
REMARK    1  A    between atoms: N_1  and  C_4
REMARK    2  A    between atoms: C_4  and  C_5
REMARK                            x       y       z     vdW  Elec       q    Type
REMARK                         _______ _______ _______ _____ _____    ______ ____
ROOT
ATOM      1  N   UNL     1      -8.888   9.437  -2.698  0.00  0.00    -0.354 N 
ATOM      2  N   UNL     1      -8.783  11.742  -2.898  0.00  0.00    -0.372 N 
ATOM      3  N   UNL     1      -7.889  10.443  -4.564  0.00  0.00    -0.372 N 
ATOM      4  C   UNL     1      -8.519  10.525  -3.388  0.00  0.00    +0.166 C 
ATOM      5  H   UNL     1      -9.335   9.567  -1.798  0.00  0.00    +0.163 HD
ATOM      6  H   UNL     1      -8.521  12.581  -3.397  0.00  0.00    +0.159 HD
ATOM      7  H   UNL     1      -9.272  11.869  -2.020  0.00  0.00    +0.159 HD
ATOM      8  H   UNL     1      -7.655   9.554  -4.986  0.00  0.00    +0.159 HD
ATOM      9  H   UNL     1      -7.608  11.272  -5.074  0.00  0.00    +0.159 HD
ENDROOT
BRANCH   1  10
ATOM     10  C   UNL     1      -8.695   8.067  -3.168  0.00  0.00    +0.151 C 
BRANCH  10  11
ATOM     11  C   UNL     1      -8.341   7.191  -1.998  0.00  0.00    -0.028 A 
ATOM     12  C   UNL     1      -8.525   7.648  -0.685  0.00  0.00    +0.005 A 
ATOM     13  C   UNL     1      -7.826   5.900  -2.196  0.00  0.00    +0.005 A 
ATOM     14  C   UNL     1      -8.225   6.824   0.402  0.00  0.00    +0.000 A 
ATOM     15  C   UNL     1      -7.527   5.081  -1.108  0.00  0.00    +0.000 A 
ATOM     16  C   UNL     1      -7.729   5.542   0.191  0.00  0.00    +0.000 A 
ENDBRANCH  10  11
ENDBRANCH   1  10
TORSDOF 2
ENDMDL
MODEL 4
REMARK VINA RESULT:    -6.008      3.703      4.675
REMARK INTER + INTRA:          -6.814
REMARK INTER:                  -6.718
REMARK INTRA:                  -0.096
REMARK UNBOUND:                -0.103
REMARK  Name = 1550473
REMARK  2 active torsions:
REMARK  status: ('A' for Active; 'I' for Inactive)
REMARK    1  A    between atoms: N_1  and  C_4
REMARK    2  A    between atoms: C_4  and  C_5
REMARK                            x       y       z     vdW  Elec       q    Type
REMARK                         _______ _______ _______ _____ _____    ______ ____
ROOT
ATOM      1  N   UNL     1      -1.528 -12.110  -9.378  0.00  0.00    -0.354 N 
ATOM      2  N   UNL     1      -2.365 -11.703 -11.499  0.00  0.00    -0.372 N 
ATOM      3  N   UNL     1      -2.966 -10.305  -9.782  0.00  0.00    -0.372 N 
ATOM      4  C   UNL     1      -2.282 -11.373 -10.204  0.00  0.00    +0.166 C 
ATOM      5  H   UNL     1      -1.058 -12.926  -9.753  0.00  0.00    +0.163 HD
ATOM      6  H   UNL     1      -2.923 -11.164 -12.147  0.00  0.00    +0.159 HD
ATOM      7  H   UNL     1      -1.857 -12.492 -11.881  0.00  0.00    +0.159 HD
ATOM      8  H   UNL     1      -2.951 -10.006  -8.816  0.00  0.00    +0.159 HD
ATOM      9  H   UNL     1      -3.540  -9.759 -10.413  0.00  0.00    +0.159 HD
ENDROOT
BRANCH   1  10
ATOM     10  C   UNL     1      -1.328 -11.804  -7.962  0.00  0.00    +0.151 C 
BRANCH  10  11
ATOM     11  C   UNL     1      -0.062 -12.465  -7.491  0.00  0.00    -0.028 A 
ATOM     12  C   UNL     1       0.000 -13.857  -7.338  0.00  0.00    +0.005 A 
ATOM     13  C   UNL     1       1.081 -11.704  -7.201  0.00  0.00    +0.005 A 
ATOM     14  C   UNL     1       1.185 -14.474  -6.929  0.00  0.00    +0.000 A 
ATOM     15  C   UNL     1       2.262 -12.323  -6.793  0.00  0.00    +0.000 A 
ATOM     16  C   UNL     1       2.315 -13.708  -6.659  0.00  0.00    +0.000 A 
ENDBRANCH  10  11
ENDBRANCH   1  10
TORSDOF 2
ENDMDL
MODEL 5
REMARK VINA RESULT:    -5.801     16.033     17.761
REMARK INTER + INTRA:          -6.583
REMARK INTER:                  -6.500
REMARK INTRA:                  -0.083
REMARK UNBOUND:                -0.103
REMARK  Name = 1550473
REMARK  2 active torsions:
REMARK  status: ('A' for Active; 'I' for Inactive)
REMARK    1  A    between atoms: N_1  and  C_4
REMARK    2  A    between atoms: C_4  and  C_5
REMARK                            x       y       z     vdW  Elec       q    Type
REMARK                         _______ _______ _______ _____ _____    ______ ____
ROOT
ATOM      1  N   UNL     1      -2.794  -0.864 -14.895  0.00  0.00    -0.354 N 
ATOM      2  N   UNL     1      -0.850  -1.462 -13.788  0.00  0.00    -0.372 N 
ATOM      3  N   UNL     1      -2.136   0.235 -12.933  0.00  0.00    -0.372 N 
ATOM      4  C   UNL     1      -1.940  -0.691 -13.878  0.00  0.00    +0.166 C 
ATOM      5  H   UNL     1      -2.573  -1.563 -15.595  0.00  0.00    +0.163 HD
ATOM      6  H   UNL     1      -0.189  -1.357 -13.029  0.00  0.00    +0.159 HD
ATOM      7  H   UNL     1      -0.655  -2.191 -14.463  0.00  0.00    +0.159 HD
ATOM      8  H   UNL     1      -2.936   0.853 -12.947  0.00  0.00    +0.159 HD
ATOM      9  H   UNL     1      -1.480   0.364 -12.173  0.00  0.00    +0.159 HD
ENDROOT
BRANCH   1  10
ATOM     10  C   UNL     1      -4.038  -0.114 -15.056  0.00  0.00    +0.151 C 
BRANCH  10  11
ATOM     11  C   UNL     1      -3.802   1.032 -16.000  0.00  0.00    -0.028 A 
ATOM     12  C   UNL     1      -2.663   1.057 -16.819  0.00  0.00    +0.005 A 
ATOM     13  C   UNL     1      -4.715   2.094 -16.086  0.00  0.00    +0.005 A 
ATOM     14  C   UNL     1      -2.458   2.106 -17.718  0.00  0.00    +0.000 A 
ATOM     15  C   UNL     1      -4.507   3.140 -16.984  0.00  0.00    +0.000 A 
ATOM     16  C   UNL     1      -3.380   3.145 -17.802  0.00  0.00    +0.000 A 
ENDBRANCH  10  11
ENDBRANCH   1  10
TORSDOF 2
ENDMDL
MODEL 6
REMARK VINA RESULT:    -5.682     13.827     15.149
REMARK INTER + INTRA:          -6.449
REMARK INTER:                  -6.327
REMARK INTRA:                  -0.122
REMARK UNBOUND:                -0.103
REMARK  Name = 1550473
REMARK  2 active torsions:
REMARK  status: ('A' for Active; 'I' for Inactive)
REMARK    1  A    between atoms: N_1  and  C_4
REMARK    2  A    between atoms: C_4  and  C_5
REMARK                            x       y       z     vdW  Elec       q    Type
REMARK                         _______ _______ _______ _____ _____    ______ ____
ROOT
ATOM      1  N   UNL     1      -6.337  -4.609  -1.765  0.00  0.00    -0.354 N 
ATOM      2  N   UNL     1      -5.354  -6.436  -0.735  0.00  0.00    -0.372 N 
ATOM      3  N   UNL     1      -4.080  -4.569  -1.135  0.00  0.00    -0.372 N 
ATOM      4  C   UNL     1      -5.261  -5.191  -1.219  0.00  0.00    +0.166 C 
ATOM      5  H   UNL     1      -7.195  -5.145  -1.826  0.00  0.00    +0.163 HD
ATOM      6  H   UNL     1      -4.560  -6.899  -0.314  0.00  0.00    +0.159 HD
ATOM      7  H   UNL     1      -6.225  -6.952  -0.756  0.00  0.00    +0.159 HD
ATOM      8  H   UNL     1      -3.943  -3.631  -1.487  0.00  0.00    +0.159 HD
ATOM      9  H   UNL     1      -3.271  -5.021  -0.728  0.00  0.00    +0.159 HD
ENDROOT
BRANCH   1  10
ATOM     10  C   UNL     1      -6.356  -3.238  -2.272  0.00  0.00    +0.151 C 
BRANCH  10  11
ATOM     11  C   UNL     1      -7.647  -2.582  -1.865  0.00  0.00    -0.028 A 
ATOM     12  C   UNL     1      -8.849  -3.305  -1.880  0.00  0.00    +0.005 A 
ATOM     13  C   UNL     1      -7.674  -1.239  -1.458  0.00  0.00    +0.005 A 
ATOM     14  C   UNL     1     -10.043  -2.705  -1.474  0.00  0.00    +0.000 A 
ATOM     15  C   UNL     1      -8.868  -0.643  -1.054  0.00  0.00    +0.000 A 
ATOM     16  C   UNL     1     -10.052  -1.377  -1.059  0.00  0.00    +0.000 A 
ENDBRANCH  10  11
ENDBRANCH   1  10
TORSDOF 2
ENDMDL
MODEL 7
REMARK VINA RESULT:    -5.629     12.338     13.768
REMARK INTER + INTRA:          -6.391
REMARK INTER:                  -6.240
REMARK INTRA:                  -0.151
REMARK UNBOUND:                -0.103
REMARK  Name = 1550473
REMARK  2 active torsions:
REMARK  status: ('A' for Active; 'I' for Inactive)
REMARK    1  A    between atoms: N_1  and  C_4
REMARK    2  A    between atoms: C_4  and  C_5
REMARK                            x       y       z     vdW  Elec       q    Type
REMARK                         _______ _______ _______ _____ _____    ______ ____
ROOT
ATOM      1  N   UNL     1      -7.876  -2.583  -6.373  0.00  0.00    -0.354 N 
ATOM      2  N   UNL     1      -7.097  -1.333  -4.585  0.00  0.00    -0.372 N 
ATOM      3  N   UNL     1      -8.289  -3.248  -4.164  0.00  0.00    -0.372 N 
ATOM      4  C   UNL     1      -7.761  -2.398  -5.051  0.00  0.00    +0.166 C 
ATOM      5  H   UNL     1      -7.479  -1.886  -6.993  0.00  0.00    +0.163 HD
ATOM      6  H   UNL     1      -6.991  -1.170  -3.593  0.00  0.00    +0.159 HD
ATOM      7  H   UNL     1      -6.662  -0.663  -5.207  0.00  0.00    +0.159 HD
ATOM      8  H   UNL     1      -8.807  -4.068  -4.451  0.00  0.00    +0.159 HD
ATOM      9  H   UNL     1      -8.203  -3.096  -3.167  0.00  0.00    +0.159 HD
ENDROOT
BRANCH   1  10
ATOM     10  C   UNL     1      -8.532  -3.738  -6.983  0.00  0.00    +0.151 C 
BRANCH  10  11
ATOM     11  C   UNL     1      -7.517  -4.520  -7.771  0.00  0.00    -0.028 A 
ATOM     12  C   UNL     1      -6.375  -3.889  -8.284  0.00  0.00    +0.005 A 
ATOM     13  C   UNL     1      -7.690  -5.893  -8.002  0.00  0.00    +0.005 A 
ATOM     14  C   UNL     1      -5.417  -4.621  -8.990  0.00  0.00    +0.000 A 
ATOM     15  C   UNL     1      -6.732  -6.620  -8.708  0.00  0.00    +0.000 A 
ATOM     16  C   UNL     1      -5.594  -5.984  -9.199  0.00  0.00    +0.000 A 
ENDBRANCH  10  11
ENDBRANCH   1  10
TORSDOF 2
ENDMDL
MODEL 8
REMARK VINA RESULT:    -5.549     10.346     11.139
REMARK INTER + INTRA:          -6.301
REMARK INTER:                  -6.189
REMARK INTRA:                  -0.112
REMARK UNBOUND:                -0.103
REMARK  Name = 1550473
REMARK  2 active torsions:
REMARK  status: ('A' for Active; 'I' for Inactive)
REMARK    1  A    between atoms: N_1  and  C_4
REMARK    2  A    between atoms: C_4  and  C_5
REMARK                            x       y       z     vdW  Elec       q    Type
REMARK                         _______ _______ _______ _____ _____    ______ ____
ROOT
ATOM      1  N   UNL     1      -5.469 -17.419 -15.285  0.00  0.00    -0.354 N 
ATOM      2  N   UNL     1      -4.212 -15.817 -16.388  0.00  0.00    -0.372 N 
ATOM      3  N   UNL     1      -6.314 -16.306 -17.166  0.00  0.00    -0.372 N 
ATOM      4  C   UNL     1      -5.342 -16.524 -16.274  0.00  0.00    +0.166 C 
ATOM      5  H   UNL     1      -4.683 -17.559 -14.660  0.00  0.00    +0.163 HD
ATOM      6  H   UNL     1      -4.089 -15.132 -17.123  0.00  0.00    +0.159 HD
ATOM      7  H   UNL     1      -3.446 -15.926 -15.734  0.00  0.00    +0.159 HD
ATOM      8  H   UNL     1      -7.190 -16.812 -17.138  0.00  0.00    +0.159 HD
ATOM      9  H   UNL     1      -6.206 -15.634 -17.915  0.00  0.00    +0.159 HD
ENDROOT
BRANCH   1  10
ATOM     10  C   UNL     1      -6.679 -18.202 -15.041  0.00  0.00    +0.151 C 
BRANCH  10  11
ATOM     11  C   UNL     1      -6.977 -18.198 -13.567  0.00  0.00    -0.028 A 
ATOM     12  C   UNL     1      -7.973 -17.359 -13.044  0.00  0.00    +0.005 A 
ATOM     13  C   UNL     1      -6.272 -19.034 -12.688  0.00  0.00    +0.005 A 
ATOM     14  C   UNL     1      -8.271 -17.377 -11.680  0.00  0.00    +0.000 A 
ATOM     15  C   UNL     1      -6.572 -19.048 -11.326  0.00  0.00    +0.000 A 
ATOM     16  C   UNL     1      -7.574 -18.221 -10.823  0.00  0.00    +0.000 A 
ENDBRANCH  10  11
ENDBRANCH   1  10
TORSDOF 2
ENDMDL
MODEL 9
REMARK VINA RESULT:    -5.516     15.987     17.700
REMARK INTER + INTRA:          -6.264
REMARK INTER:                  -6.141
REMARK INTRA:                  -0.122
REMARK UNBOUND:                -0.103
REMARK  Name = 1550473
REMARK  2 active torsions:
REMARK  status: ('A' for Active; 'I' for Inactive)
REMARK    1  A    between atoms: N_1  and  C_4
REMARK    2  A    between atoms: C_4  and  C_5
REMARK                            x       y       z     vdW  Elec       q    Type
REMARK                         _______ _______ _______ _____ _____    ______ ____
ROOT
ATOM      1  N   UNL     1      -3.955   1.992 -15.830  0.00  0.00    -0.354 N 
ATOM      2  N   UNL     1      -5.258   2.884 -17.523  0.00  0.00    -0.372 N 
ATOM      3  N   UNL     1      -3.028   2.516 -17.917  0.00  0.00    -0.372 N 
ATOM      4  C   UNL     1      -4.069   2.458 -17.080  0.00  0.00    +0.166 C 
ATOM      5  H   UNL     1      -4.775   2.002 -15.235  0.00  0.00    +0.163 HD
ATOM      6  H   UNL     1      -5.376   3.238 -18.463  0.00  0.00    +0.159 HD
ATOM      7  H   UNL     1      -6.087   2.850 -16.942  0.00  0.00    +0.159 HD
ATOM      8  H   UNL     1      -2.102   2.216 -17.642  0.00  0.00    +0.159 HD
ATOM      9  H   UNL     1      -3.123   2.878 -18.858  0.00  0.00    +0.159 HD
ENDROOT
BRANCH   1  10
ATOM     10  C   UNL     1      -2.717   1.454 -15.267  0.00  0.00    +0.151 C 
BRANCH  10  11
ATOM     11  C   UNL     1      -2.940   0.021 -14.869  0.00  0.00    -0.028 A 
ATOM     12  C   UNL     1      -4.105  -0.654 -15.262  0.00  0.00    +0.005 A 
ATOM     13  C   UNL     1      -1.987  -0.669 -14.105  0.00  0.00    +0.005 A 
ATOM     14  C   UNL     1      -4.299  -1.994 -14.918  0.00  0.00    +0.000 A 
ATOM     15  C   UNL     1      -2.184  -2.007 -13.763  0.00  0.00    +0.000 A 
ATOM     16  C   UNL     1      -3.339  -2.669 -14.172  0.00  0.00    +0.000 A 
ENDBRANCH  10  11
ENDBRANCH   1  10
TORSDOF 2
ENDMDL
