MODEL 1
REMARK VINA RESULT:    -5.065      0.000      0.000
REMARK INTER + INTRA:          -5.780
REMARK INTER:                  -5.657
REMARK INTRA:                  -0.122
REMARK UNBOUND:                -0.122
REMARK  Name = 1550473
REMARK  2 active torsions:
REMARK  status: ('A' for Active; 'I' for Inactive)
REMARK    1  A    between atoms: N_1  and  C_4
REMARK    2  A    between atoms: C_4  and  C_5
REMARK                            x       y       z     vdW  Elec       q    Type
REMARK                         _______ _______ _______ _____ _____    ______ ____
ROOT
ATOM      1  N   UNL     1     -28.034 -21.158 -48.014  0.00  0.00    -0.354 N 
ATOM      2  N   UNL     1     -28.005 -21.950 -50.190  0.00  0.00    -0.372 N 
ATOM      3  N   UNL     1     -27.996 -19.683 -49.835  0.00  0.00    -0.372 N 
ATOM      4  C   UNL     1     -28.012 -20.922 -49.333  0.00  0.00    +0.166 C 
ATOM      5  H   UNL     1     -28.076 -22.120 -47.698  0.00  0.00    +0.163 HD
ATOM      6  H   UNL     1     -27.985 -21.803 -51.191  0.00  0.00    +0.159 HD
ATOM      7  H   UNL     1     -28.001 -22.911 -49.871  0.00  0.00    +0.159 HD
ATOM      8  H   UNL     1     -28.006 -18.865 -49.241  0.00  0.00    +0.159 HD
ATOM      9  H   UNL     1     -27.987 -19.516 -50.833  0.00  0.00    +0.159 HD
ENDROOT
BRANCH   1  10
ATOM     10  C   UNL     1     -27.989 -20.111 -46.996  0.00  0.00    +0.151 C 
BRANCH  10  11
ATOM     11  C   UNL     1     -26.739 -20.276 -46.176  0.00  0.00    -0.028 A 
ATOM     12  C   UNL     1     -26.782 -20.150 -44.780  0.00  0.00    +0.005 A 
ATOM     13  C   UNL     1     -25.510 -20.563 -46.789  0.00  0.00    +0.005 A 
ATOM     14  C   UNL     1     -25.626 -20.333 -44.015  0.00  0.00    +0.000 A 
ATOM     15  C   UNL     1     -24.359 -20.744 -46.023  0.00  0.00    +0.000 A 
ATOM     16  C   UNL     1     -24.418 -20.631 -44.636  0.00  0.00    +0.000 A 
ENDBRANCH  10  11
ENDBRANCH   1  10
TORSDOF 2
ENDMDL
MODEL 2
REMARK VINA RESULT:    -4.658     65.442     67.151
REMARK INTER + INTRA:          -5.324
REMARK INTER:                  -5.196
REMARK INTRA:                  -0.128
REMARK UNBOUND:                -0.122
REMARK  Name = 1550473
REMARK  2 active torsions:
REMARK  status: ('A' for Active; 'I' for Inactive)
REMARK    1  A    between atoms: N_1  and  C_4
REMARK    2  A    between atoms: C_4  and  C_5
REMARK                            x       y       z     vdW  Elec       q    Type
REMARK                         _______ _______ _______ _____ _____    ______ ____
ROOT
ATOM      1  N   UNL     1      -0.028  -1.737  13.416  0.00  0.00    -0.354 N 
ATOM      2  N   UNL     1       1.399  -2.240  15.169  0.00  0.00    -0.372 N 
ATOM      3  N   UNL     1      -0.734  -3.085  15.199  0.00  0.00    -0.372 N 
ATOM      4  C   UNL     1       0.201  -2.352  14.584  0.00  0.00    +0.166 C 
ATOM      5  H   UNL     1       0.712  -1.172  13.017  0.00  0.00    +0.163 HD
ATOM      6  H   UNL     1       1.602  -2.696  16.049  0.00  0.00    +0.159 HD
ATOM      7  H   UNL     1       2.152  -1.712  14.745  0.00  0.00    +0.159 HD
ATOM      8  H   UNL     1      -1.661  -3.204  14.812  0.00  0.00    +0.159 HD
ATOM      9  H   UNL     1      -0.554  -3.539  16.085  0.00  0.00    +0.159 HD
ENDROOT
BRANCH   1  10
ATOM     10  C   UNL     1      -1.281  -1.839  12.670  0.00  0.00    +0.151 C 
BRANCH  10  11
ATOM     11  C   UNL     1      -0.969  -2.034  11.211  0.00  0.00    -0.028 A 
ATOM     12  C   UNL     1      -1.355  -1.071  10.267  0.00  0.00    +0.005 A 
ATOM     13  C   UNL     1      -0.284  -3.175  10.769  0.00  0.00    +0.005 A 
ATOM     14  C   UNL     1      -1.039  -1.237   8.916  0.00  0.00    +0.000 A 
ATOM     15  C   UNL     1       0.029  -3.337   9.419  0.00  0.00    +0.000 A 
ATOM     16  C   UNL     1      -0.347  -2.367   8.493  0.00  0.00    +0.000 A 
ENDBRANCH  10  11
ENDBRANCH   1  10
TORSDOF 2
ENDMDL
MODEL 3
REMARK VINA RESULT:    -4.619     86.727     88.524
REMARK INTER + INTRA:          -5.281
REMARK INTER:                  -5.162
REMARK INTRA:                  -0.119
REMARK UNBOUND:                -0.122
REMARK  Name = 1550473
REMARK  2 active torsions:
REMARK  status: ('A' for Active; 'I' for Inactive)
REMARK    1  A    between atoms: N_1  and  C_4
REMARK    2  A    between atoms: C_4  and  C_5
REMARK                            x       y       z     vdW  Elec       q    Type
REMARK                         _______ _______ _______ _____ _____    ______ ____
ROOT
ATOM      1  N   UNL     1      14.225  -2.576  28.320  0.00  0.00    -0.354 N 
ATOM      2  N   UNL     1      14.437  -4.199  26.681  0.00  0.00    -0.372 N 
ATOM      3  N   UNL     1      12.863  -4.483  28.326  0.00  0.00    -0.372 N 
ATOM      4  C   UNL     1      13.838  -3.743  27.788  0.00  0.00    +0.166 C 
ATOM      5  H   UNL     1      14.991  -2.078  27.881  0.00  0.00    +0.163 HD
ATOM      6  H   UNL     1      14.164  -5.074  26.254  0.00  0.00    +0.159 HD
ATOM      7  H   UNL     1      15.171  -3.676  26.218  0.00  0.00    +0.159 HD
ATOM      8  H   UNL     1      12.376  -4.198  29.165  0.00  0.00    +0.159 HD
ATOM      9  H   UNL     1      12.584  -5.368  27.921  0.00  0.00    +0.159 HD
ENDROOT
BRANCH   1  10
ATOM     10  C   UNL     1      13.602  -1.966  29.493  0.00  0.00    +0.151 C 
BRANCH  10  11
ATOM     11  C   UNL     1      14.105  -0.556  29.639  0.00  0.00    -0.028 A 
ATOM     12  C   UNL     1      14.217   0.033  30.907  0.00  0.00    +0.005 A 
ATOM     13  C   UNL     1      14.477   0.195  28.513  0.00  0.00    +0.005 A 
ATOM     14  C   UNL     1      14.712   1.331  31.045  0.00  0.00    +0.000 A 
ATOM     15  C   UNL     1      14.970   1.491  28.655  0.00  0.00    +0.000 A 
ATOM     16  C   UNL     1      15.090   2.059  29.921  0.00  0.00    +0.000 A 
ENDBRANCH  10  11
ENDBRANCH   1  10
TORSDOF 2
ENDMDL
MODEL 4
REMARK VINA RESULT:    -4.610     91.907     92.976
REMARK INTER + INTRA:          -5.272
REMARK INTER:                  -5.170
REMARK INTRA:                  -0.102
REMARK UNBOUND:                -0.122
REMARK  Name = 1550473
REMARK  2 active torsions:
REMARK  status: ('A' for Active; 'I' for Inactive)
REMARK    1  A    between atoms: N_1  and  C_4
REMARK    2  A    between atoms: C_4  and  C_5
REMARK                            x       y       z     vdW  Elec       q    Type
REMARK                         _______ _______ _______ _____ _____    ______ ____
ROOT
ATOM      1  N   UNL     1      22.151  12.482  24.096  0.00  0.00    -0.354 N 
ATOM      2  N   UNL     1      21.143  10.480  24.680  0.00  0.00    -0.372 N 
ATOM      3  N   UNL     1      21.395  12.104  26.281  0.00  0.00    -0.372 N 
ATOM      4  C   UNL     1      21.570  11.703  25.018  0.00  0.00    +0.166 C 
ATOM      5  H   UNL     1      22.282  12.108  23.163  0.00  0.00    +0.163 HD
ATOM      6  H   UNL     1      20.697   9.872  25.353  0.00  0.00    +0.159 HD
ATOM      7  H   UNL     1      21.233  10.127  23.735  0.00  0.00    +0.159 HD
ATOM      8  H   UNL     1      21.700  13.014  26.602  0.00  0.00    +0.159 HD
ATOM      9  H   UNL     1      20.961  11.505  26.973  0.00  0.00    +0.159 HD
ENDROOT
BRANCH   1  10
ATOM     10  C   UNL     1      22.602  13.849  24.347  0.00  0.00    +0.151 C 
BRANCH  10  11
ATOM     11  C   UNL     1      23.650  14.215  23.333  0.00  0.00    -0.028 A 
ATOM     12  C   UNL     1      23.370  14.137  21.960  0.00  0.00    +0.005 A 
ATOM     13  C   UNL     1      24.923  14.647  23.737  0.00  0.00    +0.005 A 
ATOM     14  C   UNL     1      24.333  14.506  21.018  0.00  0.00    +0.000 A 
ATOM     15  C   UNL     1      25.882  15.013  22.793  0.00  0.00    +0.000 A 
ATOM     16  C   UNL     1      25.586  14.945  21.433  0.00  0.00    +0.000 A 
ENDBRANCH  10  11
ENDBRANCH   1  10
TORSDOF 2
ENDMDL
MODEL 5
REMARK VINA RESULT:    -4.507     87.003     87.806
REMARK INTER + INTRA:          -5.156
REMARK INTER:                  -5.028
REMARK INTRA:                  -0.128
REMARK UNBOUND:                -0.122
REMARK  Name = 1550473
REMARK  2 active torsions:
REMARK  status: ('A' for Active; 'I' for Inactive)
REMARK    1  A    between atoms: N_1  and  C_4
REMARK    2  A    between atoms: C_4  and  C_5
REMARK                            x       y       z     vdW  Elec       q    Type
REMARK                         _______ _______ _______ _____ _____    ______ ____
ROOT
ATOM      1  N   UNL     1      -9.631  14.304  32.614  0.00  0.00    -0.354 N 
ATOM      2  N   UNL     1      -7.447  15.063  32.483  0.00  0.00    -0.372 N 
ATOM      3  N   UNL     1      -9.140  16.423  31.741  0.00  0.00    -0.372 N 
ATOM      4  C   UNL     1      -8.755  15.260  32.279  0.00  0.00    +0.166 C 
ATOM      5  H   UNL     1      -9.273  13.434  32.990  0.00  0.00    +0.163 HD
ATOM      6  H   UNL     1      -6.762  15.767  32.244  0.00  0.00    +0.159 HD
ATOM      7  H   UNL     1      -7.096  14.210  32.902  0.00  0.00    +0.159 HD
ATOM      8  H   UNL     1     -10.112  16.631  31.556  0.00  0.00    +0.159 HD
ATOM      9  H   UNL     1      -8.469  17.135  31.483  0.00  0.00    +0.159 HD
ENDROOT
BRANCH   1  10
ATOM     10  C   UNL     1     -11.081  14.441  32.483  0.00  0.00    +0.151 C 
BRANCH  10  11
ATOM     11  C   UNL     1     -11.700  13.072  32.422  0.00  0.00    -0.028 A 
ATOM     12  C   UNL     1     -10.893  11.925  32.424  0.00  0.00    +0.005 A 
ATOM     13  C   UNL     1     -13.093  12.915  32.367  0.00  0.00    +0.005 A 
ATOM     14  C   UNL     1     -11.468  10.652  32.397  0.00  0.00    +0.000 A 
ATOM     15  C   UNL     1     -13.664  11.642  32.340  0.00  0.00    +0.000 A 
ATOM     16  C   UNL     1     -12.851  10.511  32.358  0.00  0.00    +0.000 A 
ENDBRANCH  10  11
ENDBRANCH   1  10
TORSDOF 2
ENDMDL
MODEL 6
REMARK VINA RESULT:    -4.482     11.995     13.079
REMARK INTER + INTRA:          -5.128
REMARK INTER:                  -5.033
REMARK INTRA:                  -0.095
REMARK UNBOUND:                -0.122
REMARK  Name = 1550473
REMARK  2 active torsions:
REMARK  status: ('A' for Active; 'I' for Inactive)
REMARK    1  A    between atoms: N_1  and  C_4
REMARK    2  A    between atoms: C_4  and  C_5
REMARK                            x       y       z     vdW  Elec       q    Type
REMARK                         _______ _______ _______ _____ _____    ______ ____
ROOT
ATOM      1  N   UNL     1     -19.406 -13.306 -39.524  0.00  0.00    -0.354 N 
ATOM      2  N   UNL     1     -21.295 -13.002 -40.830  0.00  0.00    -0.372 N 
ATOM      3  N   UNL     1     -19.390 -11.832 -41.346  0.00  0.00    -0.372 N 
ATOM      4  C   UNL     1     -20.016 -12.714 -40.559  0.00  0.00    +0.166 C 
ATOM      5  H   UNL     1     -19.945 -13.942 -38.947  0.00  0.00    +0.163 HD
ATOM      6  H   UNL     1     -21.780 -12.574 -41.606  0.00  0.00    +0.159 HD
ATOM      7  H   UNL     1     -21.817 -13.673 -40.279  0.00  0.00    +0.159 HD
ATOM      8  H   UNL     1     -18.426 -11.567 -41.192  0.00  0.00    +0.159 HD
ATOM      9  H   UNL     1     -19.862 -11.384 -42.121  0.00  0.00    +0.159 HD
ENDROOT
BRANCH   1  10
ATOM     10  C   UNL     1     -18.001 -13.102 -39.177  0.00  0.00    +0.151 C 
BRANCH  10  11
ATOM     11  C   UNL     1     -17.169 -14.152 -39.859  0.00  0.00    -0.028 A 
ATOM     12  C   UNL     1     -17.730 -15.389 -40.210  0.00  0.00    +0.005 A 
ATOM     13  C   UNL     1     -15.819 -13.915 -40.163  0.00  0.00    +0.005 A 
ATOM     14  C   UNL     1     -16.966 -16.353 -40.870  0.00  0.00    +0.000 A 
ATOM     15  C   UNL     1     -15.059 -14.882 -40.821  0.00  0.00    +0.000 A 
ATOM     16  C   UNL     1     -15.633 -16.099 -41.177  0.00  0.00    +0.000 A 
ENDBRANCH  10  11
ENDBRANCH   1  10
TORSDOF 2
ENDMDL
MODEL 7
REMARK VINA RESULT:    -4.432     87.632     88.977
REMARK INTER + INTRA:          -5.072
REMARK INTER:                  -4.969
REMARK INTRA:                  -0.103
REMARK UNBOUND:                -0.122
REMARK  Name = 1550473
REMARK  2 active torsions:
REMARK  status: ('A' for Active; 'I' for Inactive)
REMARK    1  A    between atoms: N_1  and  C_4
REMARK    2  A    between atoms: C_4  and  C_5
REMARK                            x       y       z     vdW  Elec       q    Type
REMARK                         _______ _______ _______ _____ _____    ______ ____
ROOT
ATOM      1  N   UNL     1      11.965  -2.889  30.248  0.00  0.00    -0.354 N 
ATOM      2  N   UNL     1       9.994  -4.033  29.839  0.00  0.00    -0.372 N 
ATOM      3  N   UNL     1      11.011  -4.273  31.881  0.00  0.00    -0.372 N 
ATOM      4  C   UNL     1      11.003  -3.725  30.661  0.00  0.00    +0.166 C 
ATOM      5  H   UNL     1      11.918  -2.531  29.301  0.00  0.00    +0.163 HD
ATOM      6  H   UNL     1       9.252  -4.658  30.124  0.00  0.00    +0.159 HD
ATOM      7  H   UNL     1       9.924  -3.638  28.909  0.00  0.00    +0.159 HD
ATOM      8  H   UNL     1      11.748  -4.086  32.548  0.00  0.00    +0.159 HD
ATOM      9  H   UNL     1      10.283  -4.910  32.181  0.00  0.00    +0.159 HD
ENDROOT
BRANCH   1  10
ATOM     10  C   UNL     1      13.079  -2.447  31.085  0.00  0.00    +0.151 C 
BRANCH  10  11
ATOM     11  C   UNL     1      13.658  -1.186  30.507  0.00  0.00    -0.028 A 
ATOM     12  C   UNL     1      13.826  -0.047  31.308  0.00  0.00    +0.005 A 
ATOM     13  C   UNL     1      14.046  -1.125  29.159  0.00  0.00    +0.005 A 
ATOM     14  C   UNL     1      14.392   1.116  30.778  0.00  0.00    +0.000 A 
ATOM     15  C   UNL     1      14.610   0.038  28.634  0.00  0.00    +0.000 A 
ATOM     16  C   UNL     1      14.785   1.157  29.445  0.00  0.00    +0.000 A 
ENDBRANCH  10  11
ENDBRANCH   1  10
TORSDOF 2
ENDMDL
MODEL 8
REMARK VINA RESULT:    -4.425     12.300     13.626
REMARK INTER + INTRA:          -5.065
REMARK INTER:                  -4.930
REMARK INTRA:                  -0.135
REMARK UNBOUND:                -0.122
REMARK  Name = 1550473
REMARK  2 active torsions:
REMARK  status: ('A' for Active; 'I' for Inactive)
REMARK    1  A    between atoms: N_1  and  C_4
REMARK    2  A    between atoms: C_4  and  C_5
REMARK                            x       y       z     vdW  Elec       q    Type
REMARK                         _______ _______ _______ _____ _____    ______ ____
ROOT
ATOM      1  N   UNL     1     -16.191 -13.956 -39.808  0.00  0.00    -0.354 N 
ATOM      2  N   UNL     1     -14.171 -14.000 -40.938  0.00  0.00    -0.372 N 
ATOM      3  N   UNL     1     -15.551 -15.829 -41.061  0.00  0.00    -0.372 N 
ATOM      4  C   UNL     1     -15.318 -14.597 -40.595  0.00  0.00    +0.166 C 
ATOM      5  H   UNL     1     -15.943 -13.035 -39.463  0.00  0.00    +0.163 HD
ATOM      6  H   UNL     1     -13.494 -14.458 -41.534  0.00  0.00    +0.159 HD
ATOM      7  H   UNL     1     -13.945 -13.062 -40.630  0.00  0.00    +0.159 HD
ATOM      8  H   UNL     1     -16.395 -16.337 -40.834  0.00  0.00    +0.159 HD
ATOM      9  H   UNL     1     -14.880 -16.309 -41.649  0.00  0.00    +0.159 HD
ENDROOT
BRANCH   1  10
ATOM     10  C   UNL     1     -17.493 -14.496 -39.420  0.00  0.00    +0.151 C 
BRANCH  10  11
ATOM     11  C   UNL     1     -18.577 -13.677 -40.066  0.00  0.00    -0.028 A 
ATOM     12  C   UNL     1     -19.916 -14.088 -39.998  0.00  0.00    +0.005 A 
ATOM     13  C   UNL     1     -18.272 -12.487 -40.744  0.00  0.00    +0.005 A 
ATOM     14  C   UNL     1     -20.926 -13.313 -40.572  0.00  0.00    +0.000 A 
ATOM     15  C   UNL     1     -19.283 -11.716 -41.317  0.00  0.00    +0.000 A 
ATOM     16  C   UNL     1     -20.610 -12.128 -41.228  0.00  0.00    +0.000 A 
ENDBRANCH  10  11
ENDBRANCH   1  10
TORSDOF 2
ENDMDL
MODEL 9
REMARK VINA RESULT:    -4.362     25.227     26.495
REMARK INTER + INTRA:          -4.995
REMARK INTER:                  -4.867
REMARK INTRA:                  -0.128
REMARK UNBOUND:                -0.122
REMARK  Name = 1550473
REMARK  2 active torsions:
REMARK  status: ('A' for Active; 'I' for Inactive)
REMARK    1  A    between atoms: N_1  and  C_4
REMARK    2  A    between atoms: C_4  and  C_5
REMARK                            x       y       z     vdW  Elec       q    Type
REMARK                         _______ _______ _______ _____ _____    ______ ____
ROOT
ATOM      1  N   UNL     1       0.108 -19.376 -51.970  0.00  0.00    -0.354 N 
ATOM      2  N   UNL     1       1.882 -19.261 -53.454  0.00  0.00    -0.372 N 
ATOM      3  N   UNL     1       0.603 -21.166 -53.400  0.00  0.00    -0.372 N 
ATOM      4  C   UNL     1       0.852 -19.938 -52.932  0.00  0.00    +0.166 C 
ATOM      5  H   UNL     1       0.367 -18.455 -51.638  0.00  0.00    +0.163 HD
ATOM      6  H   UNL     1       2.459 -19.658 -54.184  0.00  0.00    +0.159 HD
ATOM      7  H   UNL     1       2.110 -18.322 -53.153  0.00  0.00    +0.159 HD
ATOM      8  H   UNL     1      -0.157 -21.731 -53.044  0.00  0.00    +0.159 HD
ATOM      9  H   UNL     1       1.176 -21.584 -54.122  0.00  0.00    +0.159 HD
ENDROOT
BRANCH   1  10
ATOM     10  C   UNL     1      -1.068 -20.007 -51.373  0.00  0.00    +0.151 C 
BRANCH  10  11
ATOM     11  C   UNL     1      -1.282 -19.443 -49.995  0.00  0.00    -0.028 A 
ATOM     12  C   UNL     1      -2.526 -19.568 -49.360  0.00  0.00    +0.005 A 
ATOM     13  C   UNL     1      -0.242 -18.788 -49.318  0.00  0.00    +0.005 A 
ATOM     14  C   UNL     1      -2.715 -19.071 -48.068  0.00  0.00    +0.000 A 
ATOM     15  C   UNL     1      -0.436 -18.293 -48.028  0.00  0.00    +0.000 A 
ATOM     16  C   UNL     1      -1.672 -18.436 -47.403  0.00  0.00    +0.000 A 
ENDBRANCH  10  11
ENDBRANCH   1  10
TORSDOF 2
ENDMDL
