MODEL 1
REMARK VINA RESULT:    -4.812      0.000      0.000
REMARK INTER + INTRA:          -5.478
REMARK INTER:                  -5.375
REMARK INTRA:                  -0.103
REMARK UNBOUND:                -0.103
REMARK  Name = 1550473
REMARK  2 active torsions:
REMARK  status: ('A' for Active; 'I' for Inactive)
REMARK    1  A    between atoms: N_1  and  C_4
REMARK    2  A    between atoms: C_4  and  C_5
REMARK                            x       y       z     vdW  Elec       q    Type
REMARK                         _______ _______ _______ _____ _____    ______ ____
ROOT
ATOM      1  N   UNL     1     -13.563  -7.339 -12.022  0.00  0.00    -0.354 N 
ATOM      2  N   UNL     1     -13.793  -5.619 -13.555  0.00  0.00    -0.372 N 
ATOM      3  N   UNL     1     -13.376  -5.098 -11.360  0.00  0.00    -0.372 N 
ATOM      4  C   UNL     1     -13.576  -6.028 -12.300  0.00  0.00    +0.166 C 
ATOM      5  H   UNL     1     -13.751  -7.992 -12.773  0.00  0.00    +0.163 HD
ATOM      6  H   UNL     1     -13.805  -4.637 -13.796  0.00  0.00    +0.159 HD
ATOM      7  H   UNL     1     -13.935  -6.276 -14.313  0.00  0.00    +0.159 HD
ATOM      8  H   UNL     1     -13.212  -5.342 -10.392  0.00  0.00    +0.159 HD
ATOM      9  H   UNL     1     -13.396  -4.110 -11.579  0.00  0.00    +0.159 HD
ENDROOT
BRANCH   1  10
ATOM     10  C   UNL     1     -13.282  -7.891 -10.698  0.00  0.00    +0.151 C 
BRANCH  10  11
ATOM     11  C   UNL     1     -12.558  -9.200 -10.854  0.00  0.00    -0.028 A 
ATOM     12  C   UNL     1     -13.274 -10.399 -10.980  0.00  0.00    +0.005 A 
ATOM     13  C   UNL     1     -11.156  -9.247 -10.884  0.00  0.00    +0.005 A 
ATOM     14  C   UNL     1     -12.603 -11.611 -11.156  0.00  0.00    +0.000 A 
ATOM     15  C   UNL     1     -10.489 -10.459 -11.059  0.00  0.00    +0.000 A 
ATOM     16  C   UNL     1     -11.213 -11.641 -11.197  0.00  0.00    +0.000 A 
ENDBRANCH  10  11
ENDBRANCH   1  10
TORSDOF 2
ENDMDL
MODEL 2
REMARK VINA RESULT:    -4.709     21.178     21.867
REMARK INTER + INTRA:          -5.363
REMARK INTER:                  -5.208
REMARK INTRA:                  -0.155
REMARK UNBOUND:                -0.103
REMARK  Name = 1550473
REMARK  2 active torsions:
REMARK  status: ('A' for Active; 'I' for Inactive)
REMARK    1  A    between atoms: N_1  and  C_4
REMARK    2  A    between atoms: C_4  and  C_5
REMARK                            x       y       z     vdW  Elec       q    Type
REMARK                         _______ _______ _______ _____ _____    ______ ____
ROOT
ATOM      1  N   UNL     1      -5.869  10.647  -1.384  0.00  0.00    -0.354 N 
ATOM      2  N   UNL     1      -4.538  11.117   0.452  0.00  0.00    -0.372 N 
ATOM      3  N   UNL     1      -5.280   8.968   0.142  0.00  0.00    -0.372 N 
ATOM      4  C   UNL     1      -5.238  10.238  -0.275  0.00  0.00    +0.166 C 
ATOM      5  H   UNL     1      -5.824  11.629  -1.630  0.00  0.00    +0.163 HD
ATOM      6  H   UNL     1      -4.048  10.837   1.291  0.00  0.00    +0.159 HD
ATOM      7  H   UNL     1      -4.456  12.089   0.179  0.00  0.00    +0.159 HD
ATOM      8  H   UNL     1      -5.797   8.257  -0.359  0.00  0.00    +0.159 HD
ATOM      9  H   UNL     1      -4.807   8.671   0.986  0.00  0.00    +0.159 HD
ENDROOT
BRANCH   1  10
ATOM     10  C   UNL     1      -6.615   9.759  -2.275  0.00  0.00    +0.151 C 
BRANCH  10  11
ATOM     11  C   UNL     1      -5.857   9.609  -3.565  0.00  0.00    -0.028 A 
ATOM     12  C   UNL     1      -6.316  10.229  -4.736  0.00  0.00    +0.005 A 
ATOM     13  C   UNL     1      -4.677   8.852  -3.622  0.00  0.00    +0.005 A 
ATOM     14  C   UNL     1      -5.596  10.114  -5.928  0.00  0.00    +0.000 A 
ATOM     15  C   UNL     1      -3.962   8.740  -4.814  0.00  0.00    +0.000 A 
ATOM     16  C   UNL     1      -4.420   9.373  -5.966  0.00  0.00    +0.000 A 
ENDBRANCH  10  11
ENDBRANCH   1  10
TORSDOF 2
ENDMDL
MODEL 3
REMARK VINA RESULT:    -4.640      1.487      2.255
REMARK INTER + INTRA:          -5.286
REMARK INTER:                  -5.144
REMARK INTRA:                  -0.141
REMARK UNBOUND:                -0.103
REMARK  Name = 1550473
REMARK  2 active torsions:
REMARK  status: ('A' for Active; 'I' for Inactive)
REMARK    1  A    between atoms: N_1  and  C_4
REMARK    2  A    between atoms: C_4  and  C_5
REMARK                            x       y       z     vdW  Elec       q    Type
REMARK                         _______ _______ _______ _____ _____    ______ ____
ROOT
ATOM      1  N   UNL     1     -12.987  -8.364 -11.925  0.00  0.00    -0.354 N 
ATOM      2  N   UNL     1     -14.159  -6.661 -12.971  0.00  0.00    -0.372 N 
ATOM      3  N   UNL     1     -13.086  -6.216 -10.992  0.00  0.00    -0.372 N 
ATOM      4  C   UNL     1     -13.402  -7.090 -11.954  0.00  0.00    +0.166 C 
ATOM      5  H   UNL     1     -13.286  -8.984 -12.669  0.00  0.00    +0.163 HD
ATOM      6  H   UNL     1     -14.484  -5.705 -13.022  0.00  0.00    +0.159 HD
ATOM      7  H   UNL     1     -14.418  -7.272 -13.737  0.00  0.00    +0.159 HD
ATOM      8  H   UNL     1     -12.523  -6.479 -10.194  0.00  0.00    +0.159 HD
ATOM      9  H   UNL     1     -13.412  -5.258 -11.019  0.00  0.00    +0.159 HD
ENDROOT
BRANCH   1  10
ATOM     10  C   UNL     1     -12.116  -8.917 -10.890  0.00  0.00    +0.151 C 
BRANCH  10  11
ATOM     11  C   UNL     1     -12.668 -10.241 -10.439  0.00  0.00    -0.028 A 
ATOM     12  C   UNL     1     -12.005 -10.991  -9.457  0.00  0.00    +0.005 A 
ATOM     13  C   UNL     1     -13.856 -10.748 -10.987  0.00  0.00    +0.005 A 
ATOM     14  C   UNL     1     -12.534 -12.207  -9.016  0.00  0.00    +0.000 A 
ATOM     15  C   UNL     1     -14.380 -11.963 -10.544  0.00  0.00    +0.000 A 
ATOM     16  C   UNL     1     -13.720 -12.691  -9.557  0.00  0.00    +0.000 A 
ENDBRANCH  10  11
ENDBRANCH   1  10
TORSDOF 2
ENDMDL
MODEL 4
REMARK VINA RESULT:    -4.550     34.907     35.797
REMARK INTER + INTRA:          -5.186
REMARK INTER:                  -5.026
REMARK INTRA:                  -0.160
REMARK UNBOUND:                -0.103
REMARK  Name = 1550473
REMARK  2 active torsions:
REMARK  status: ('A' for Active; 'I' for Inactive)
REMARK    1  A    between atoms: N_1  and  C_4
REMARK    2  A    between atoms: C_4  and  C_5
REMARK                            x       y       z     vdW  Elec       q    Type
REMARK                         _______ _______ _______ _____ _____    ______ ____
ROOT
ATOM      1  N   UNL     1      -0.377  -3.297  22.419  0.00  0.00    -0.354 N 
ATOM      2  N   UNL     1       1.350  -3.712  23.906  0.00  0.00    -0.372 N 
ATOM      3  N   UNL     1       1.606  -4.326  21.710  0.00  0.00    -0.372 N 
ATOM      4  C   UNL     1       0.849  -3.777  22.666  0.00  0.00    +0.166 C 
ATOM      5  H   UNL     1      -0.912  -2.920  23.193  0.00  0.00    +0.163 HD
ATOM      6  H   UNL     1       2.273  -4.062  24.122  0.00  0.00    +0.159 HD
ATOM      7  H   UNL     1       0.831  -3.293  24.669  0.00  0.00    +0.159 HD
ATOM      8  H   UNL     1       1.284  -4.410  20.755  0.00  0.00    +0.159 HD
ATOM      9  H   UNL     1       2.528  -4.693  21.909  0.00  0.00    +0.159 HD
ENDROOT
BRANCH   1  10
ATOM     10  C   UNL     1      -0.992  -3.271  21.093  0.00  0.00    +0.151 C 
BRANCH  10  11
ATOM     11  C   UNL     1      -0.970  -1.861  20.569  0.00  0.00    -0.028 A 
ATOM     12  C   UNL     1      -1.055  -0.773  21.450  0.00  0.00    +0.005 A 
ATOM     13  C   UNL     1      -0.859  -1.607  19.194  0.00  0.00    +0.005 A 
ATOM     14  C   UNL     1      -1.005   0.537  20.966  0.00  0.00    +0.000 A 
ATOM     15  C   UNL     1      -0.809  -0.298  18.715  0.00  0.00    +0.000 A 
ATOM     16  C   UNL     1      -0.880   0.773  19.601  0.00  0.00    +0.000 A 
ENDBRANCH  10  11
ENDBRANCH   1  10
TORSDOF 2
ENDMDL
MODEL 5
REMARK VINA RESULT:    -4.446     14.317     15.649
REMARK INTER + INTRA:          -5.069
REMARK INTER:                  -4.945
REMARK INTRA:                  -0.124
REMARK UNBOUND:                -0.103
REMARK  Name = 1550473
REMARK  2 active torsions:
REMARK  status: ('A' for Active; 'I' for Inactive)
REMARK    1  A    between atoms: N_1  and  C_4
REMARK    2  A    between atoms: C_4  and  C_5
REMARK                            x       y       z     vdW  Elec       q    Type
REMARK                         _______ _______ _______ _____ _____    ______ ____
ROOT
ATOM      1  N   UNL     1      -4.985 -14.964  -1.673  0.00  0.00    -0.354 N 
ATOM      2  N   UNL     1      -6.896 -13.911  -2.449  0.00  0.00    -0.372 N 
ATOM      3  N   UNL     1      -7.110 -15.620  -0.933  0.00  0.00    -0.372 N 
ATOM      4  C   UNL     1      -6.319 -14.841  -1.679  0.00  0.00    +0.166 C 
ATOM      5  H   UNL     1      -4.444 -14.363  -2.284  0.00  0.00    +0.163 HD
ATOM      6  H   UNL     1      -7.900 -13.792  -2.471  0.00  0.00    +0.159 HD
ATOM      7  H   UNL     1      -6.350 -13.281  -3.023  0.00  0.00    +0.159 HD
ATOM      8  H   UNL     1      -6.737 -16.345  -0.335  0.00  0.00    +0.159 HD
ATOM      9  H   UNL     1      -8.118 -15.524  -0.951  0.00  0.00    +0.159 HD
ENDROOT
BRANCH   1  10
ATOM     10  C   UNL     1      -4.255 -15.909  -0.830  0.00  0.00    +0.151 C 
BRANCH  10  11
ATOM     11  C   UNL     1      -2.917 -15.320  -0.477  0.00  0.00    -0.028 A 
ATOM     12  C   UNL     1      -2.221 -15.762   0.658  0.00  0.00    +0.005 A 
ATOM     13  C   UNL     1      -2.337 -14.323  -1.276  0.00  0.00    +0.005 A 
ATOM     14  C   UNL     1      -0.965 -15.236   0.969  0.00  0.00    +0.000 A 
ATOM     15  C   UNL     1      -1.083 -13.800  -0.961  0.00  0.00    +0.000 A 
ATOM     16  C   UNL     1      -0.396 -14.259   0.160  0.00  0.00    +0.000 A 
ENDBRANCH  10  11
ENDBRANCH   1  10
TORSDOF 2
ENDMDL
MODEL 6
REMARK VINA RESULT:    -4.413     28.563     29.502
REMARK INTER + INTRA:          -5.032
REMARK INTER:                  -4.893
REMARK INTRA:                  -0.139
REMARK UNBOUND:                -0.103
REMARK  Name = 1550473
REMARK  2 active torsions:
REMARK  status: ('A' for Active; 'I' for Inactive)
REMARK    1  A    between atoms: N_1  and  C_4
REMARK    2  A    between atoms: C_4  and  C_5
REMARK                            x       y       z     vdW  Elec       q    Type
REMARK                         _______ _______ _______ _____ _____    ______ ____
ROOT
ATOM      1  N   UNL     1       0.564 -13.286  14.308  0.00  0.00    -0.354 N 
ATOM      2  N   UNL     1       0.870 -15.145  15.655  0.00  0.00    -0.372 N 
ATOM      3  N   UNL     1      -1.223 -14.218  15.504  0.00  0.00    -0.372 N 
ATOM      4  C   UNL     1       0.066 -14.204  15.147  0.00  0.00    +0.166 C 
ATOM      5  H   UNL     1       1.556 -13.312  14.100  0.00  0.00    +0.163 HD
ATOM      6  H   UNL     1       0.522 -15.852  16.288  0.00  0.00    +0.159 HD
ATOM      7  H   UNL     1       1.852 -15.196  15.410  0.00  0.00    +0.159 HD
ATOM      8  H   UNL     1      -1.881 -13.531  15.161  0.00  0.00    +0.159 HD
ATOM      9  H   UNL     1      -1.588 -14.910  16.146  0.00  0.00    +0.159 HD
ENDROOT
BRANCH   1  10
ATOM     10  C   UNL     1      -0.239 -12.252  13.657  0.00  0.00    +0.151 C 
BRANCH  10  11
ATOM     11  C   UNL     1       0.503 -10.945  13.718  0.00  0.00    -0.028 A 
ATOM     12  C   UNL     1       0.158  -9.890  12.860  0.00  0.00    +0.005 A 
ATOM     13  C   UNL     1       1.546 -10.752  14.636  0.00  0.00    +0.005 A 
ATOM     14  C   UNL     1       0.827  -8.666  12.936  0.00  0.00    +0.000 A 
ATOM     15  C   UNL     1       2.212  -9.529  14.709  0.00  0.00    +0.000 A 
ATOM     16  C   UNL     1       1.850  -8.485  13.861  0.00  0.00    +0.000 A 
ENDBRANCH  10  11
ENDBRANCH   1  10
TORSDOF 2
ENDMDL
MODEL 7
REMARK VINA RESULT:    -4.406     15.994     17.258
REMARK INTER + INTRA:          -5.024
REMARK INTER:                  -4.896
REMARK INTRA:                  -0.129
REMARK UNBOUND:                -0.103
REMARK  Name = 1550473
REMARK  2 active torsions:
REMARK  status: ('A' for Active; 'I' for Inactive)
REMARK    1  A    between atoms: N_1  and  C_4
REMARK    2  A    between atoms: C_4  and  C_5
REMARK                            x       y       z     vdW  Elec       q    Type
REMARK                         _______ _______ _______ _____ _____    ______ ____
ROOT
ATOM      1  N   UNL     1      -1.127 -15.513  -1.575  0.00  0.00    -0.354 N 
ATOM      2  N   UNL     1      -0.128 -14.145  -3.154  0.00  0.00    -0.372 N 
ATOM      3  N   UNL     1      -2.334 -13.801  -2.624  0.00  0.00    -0.372 N 
ATOM      4  C   UNL     1      -1.205 -14.494  -2.441  0.00  0.00    +0.166 C 
ATOM      5  H   UNL     1      -0.251 -16.018  -1.505  0.00  0.00    +0.163 HD
ATOM      6  H   UNL     1      -0.156 -13.378  -3.813  0.00  0.00    +0.159 HD
ATOM      7  H   UNL     1       0.759 -14.622  -3.048  0.00  0.00    +0.159 HD
ATOM      8  H   UNL     1      -3.184 -14.018  -2.121  0.00  0.00    +0.159 HD
ATOM      9  H   UNL     1      -2.385 -13.037  -3.287  0.00  0.00    +0.159 HD
ENDROOT
BRANCH   1  10
ATOM     10  C   UNL     1      -2.226 -15.940  -0.712  0.00  0.00    +0.151 C 
BRANCH  10  11
ATOM     11  C   UNL     1      -2.129 -15.214   0.602  0.00  0.00    -0.028 A 
ATOM     12  C   UNL     1      -3.288 -14.858   1.306  0.00  0.00    +0.005 A 
ATOM     13  C   UNL     1      -0.880 -14.885   1.151  0.00  0.00    +0.005 A 
ATOM     14  C   UNL     1      -3.198 -14.211   2.541  0.00  0.00    +0.000 A 
ATOM     15  C   UNL     1      -0.794 -14.238   2.383  0.00  0.00    +0.000 A 
ATOM     16  C   UNL     1      -1.953 -13.903   3.079  0.00  0.00    +0.000 A 
ENDBRANCH  10  11
ENDBRANCH   1  10
TORSDOF 2
ENDMDL
MODEL 8
REMARK VINA RESULT:    -4.362     18.940     20.395
REMARK INTER + INTRA:          -4.976
REMARK INTER:                  -4.838
REMARK INTRA:                  -0.137
REMARK UNBOUND:                -0.103
REMARK  Name = 1550473
REMARK  2 active torsions:
REMARK  status: ('A' for Active; 'I' for Inactive)
REMARK    1  A    between atoms: N_1  and  C_4
REMARK    2  A    between atoms: C_4  and  C_5
REMARK                            x       y       z     vdW  Elec       q    Type
REMARK                         _______ _______ _______ _____ _____    ______ ____
ROOT
ATOM      1  N   UNL     1      -5.439   8.762  -7.128  0.00  0.00    -0.354 N 
ATOM      2  N   UNL     1      -4.732   7.139  -8.621  0.00  0.00    -0.372 N 
ATOM      3  N   UNL     1      -3.337   8.900  -8.154  0.00  0.00    -0.372 N 
ATOM      4  C   UNL     1      -4.505   8.279  -7.958  0.00  0.00    +0.166 C 
ATOM      5  H   UNL     1      -6.316   8.260  -7.047  0.00  0.00    +0.163 HD
ATOM      6  H   UNL     1      -4.044   6.748  -9.252  0.00  0.00    +0.159 HD
ATOM      7  H   UNL     1      -5.590   6.615  -8.503  0.00  0.00    +0.159 HD
ATOM      8  H   UNL     1      -3.107   9.768  -7.689  0.00  0.00    +0.159 HD
ATOM      9  H   UNL     1      -2.641   8.531  -8.790  0.00  0.00    +0.159 HD
ENDROOT
BRANCH   1  10
ATOM     10  C   UNL     1      -5.270   9.968  -6.319  0.00  0.00    +0.151 C 
BRANCH  10  11
ATOM     11  C   UNL     1      -5.156   9.575  -4.872  0.00  0.00    -0.028 A 
ATOM     12  C   UNL     1      -6.132   9.975  -3.947  0.00  0.00    +0.005 A 
ATOM     13  C   UNL     1      -4.078   8.799  -4.420  0.00  0.00    +0.005 A 
ATOM     14  C   UNL     1      -6.043   9.586  -2.608  0.00  0.00    +0.000 A 
ATOM     15  C   UNL     1      -3.992   8.413  -3.082  0.00  0.00    +0.000 A 
ATOM     16  C   UNL     1      -4.976   8.805  -2.177  0.00  0.00    +0.000 A 
ENDBRANCH  10  11
ENDBRANCH   1  10
TORSDOF 2
ENDMDL
MODEL 9
REMARK VINA RESULT:    -4.260     25.552     26.711
REMARK INTER + INTRA:          -4.862
REMARK INTER:                  -4.737
REMARK INTRA:                  -0.125
REMARK UNBOUND:                -0.103
REMARK  Name = 1550473
REMARK  2 active torsions:
REMARK  status: ('A' for Active; 'I' for Inactive)
REMARK    1  A    between atoms: N_1  and  C_4
REMARK    2  A    between atoms: C_4  and  C_5
REMARK                            x       y       z     vdW  Elec       q    Type
REMARK                         _______ _______ _______ _____ _____    ______ ____
ROOT
ATOM      1  N   UNL     1       6.516  -8.482   8.594  0.00  0.00    -0.354 N 
ATOM      2  N   UNL     1       7.627  -6.595   9.348  0.00  0.00    -0.372 N 
ATOM      3  N   UNL     1       6.197  -7.685  10.774  0.00  0.00    -0.372 N 
ATOM      4  C   UNL     1       6.771  -7.600   9.569  0.00  0.00    +0.166 C 
ATOM      5  H   UNL     1       6.961  -8.346   7.693  0.00  0.00    +0.163 HD
ATOM      6  H   UNL     1       7.842  -5.916  10.066  0.00  0.00    +0.159 HD
ATOM      7  H   UNL     1       8.105  -6.487   8.461  0.00  0.00    +0.159 HD
ATOM      8  H   UNL     1       5.538  -8.416  11.003  0.00  0.00    +0.159 HD
ATOM      9  H   UNL     1       6.391  -7.008  11.502  0.00  0.00    +0.159 HD
ENDROOT
BRANCH   1  10
ATOM     10  C   UNL     1       5.642  -9.644   8.749  0.00  0.00    +0.151 C 
BRANCH  10  11
ATOM     11  C   UNL     1       5.348 -10.222   7.393  0.00  0.00    -0.028 A 
ATOM     12  C   UNL     1       5.859  -9.618   6.235  0.00  0.00    +0.005 A 
ATOM     13  C   UNL     1       4.563 -11.378   7.259  0.00  0.00    +0.005 A 
ATOM     14  C   UNL     1       5.611 -10.172   4.977  0.00  0.00    +0.000 A 
ATOM     15  C   UNL     1       4.317 -11.928   6.001  0.00  0.00    +0.000 A 
ATOM     16  C   UNL     1       4.843 -11.326   4.861  0.00  0.00    +0.000 A 
ENDBRANCH  10  11
ENDBRANCH   1  10
TORSDOF 2
ENDMDL
