MODEL 1
REMARK VINA RESULT:    -5.677      0.000      0.000
REMARK INTER + INTRA:          -6.491
REMARK INTER:                  -6.341
REMARK INTRA:                  -0.150
REMARK UNBOUND:                -0.150
REMARK  Name = 1550473
REMARK  2 active torsions:
REMARK  status: ('A' for Active; 'I' for Inactive)
REMARK    1  A    between atoms: N_1  and  C_4
REMARK    2  A    between atoms: C_4  and  C_5
REMARK                            x       y       z     vdW  Elec       q    Type
REMARK                         _______ _______ _______ _____ _____    ______ ____
ROOT
ATOM      1  N   UNL     1       3.176  11.254   3.699  0.00  0.00    -0.354 N 
ATOM      2  N   UNL     1       1.381  11.285   5.162  0.00  0.00    -0.372 N 
ATOM      3  N   UNL     1       1.003  11.689   2.935  0.00  0.00    -0.372 N 
ATOM      4  C   UNL     1       1.864  11.410   3.920  0.00  0.00    +0.166 C 
ATOM      5  H   UNL     1       3.780  11.074   4.492  0.00  0.00    +0.163 HD
ATOM      6  H   UNL     1       0.395  11.394   5.359  0.00  0.00    +0.159 HD
ATOM      7  H   UNL     1       1.980  11.059   5.946  0.00  0.00    +0.159 HD
ATOM      8  H   UNL     1       1.305  11.801   1.976  0.00  0.00    +0.159 HD
ATOM      9  H   UNL     1       0.015  11.812   3.114  0.00  0.00    +0.159 HD
ENDROOT
BRANCH   1  10
ATOM     10  C   UNL     1       3.795  11.317   2.376  0.00  0.00    +0.151 C 
BRANCH  10  11
ATOM     11  C   UNL     1       4.864  12.374   2.384  0.00  0.00    -0.028 A 
ATOM     12  C   UNL     1       4.524  13.732   2.290  0.00  0.00    +0.005 A 
ATOM     13  C   UNL     1       6.219  12.026   2.490  0.00  0.00    +0.005 A 
ATOM     14  C   UNL     1       5.515  14.716   2.327  0.00  0.00    +0.000 A 
ATOM     15  C   UNL     1       7.206  13.011   2.526  0.00  0.00    +0.000 A 
ATOM     16  C   UNL     1       6.853  14.356   2.447  0.00  0.00    +0.000 A 
ENDBRANCH  10  11
ENDBRANCH   1  10
TORSDOF 2
ENDMDL
MODEL 2
REMARK VINA RESULT:    -5.550      3.306      4.713
REMARK INTER + INTRA:          -6.349
REMARK INTER:                  -6.292
REMARK INTRA:                  -0.057
REMARK UNBOUND:                -0.150
REMARK  Name = 1550473
REMARK  2 active torsions:
REMARK  status: ('A' for Active; 'I' for Inactive)
REMARK    1  A    between atoms: N_1  and  C_4
REMARK    2  A    between atoms: C_4  and  C_5
REMARK                            x       y       z     vdW  Elec       q    Type
REMARK                         _______ _______ _______ _____ _____    ______ ____
ROOT
ATOM      1  N   UNL     1       6.513  11.092   1.477  0.00  0.00    -0.354 N 
ATOM      2  N   UNL     1       7.298  10.724  -0.670  0.00  0.00    -0.372 N 
ATOM      3  N   UNL     1       5.861   9.197   0.262  0.00  0.00    -0.372 N 
ATOM      4  C   UNL     1       6.551  10.338   0.371  0.00  0.00    +0.166 C 
ATOM      5  H   UNL     1       7.082  11.930   1.508  0.00  0.00    +0.163 HD
ATOM      6  H   UNL     1       7.344  10.177  -1.520  0.00  0.00    +0.159 HD
ATOM      7  H   UNL     1       7.830  11.585  -0.654  0.00  0.00    +0.159 HD
ATOM      8  H   UNL     1       5.282   8.848   1.014  0.00  0.00    +0.159 HD
ATOM      9  H   UNL     1       5.903   8.630  -0.576  0.00  0.00    +0.159 HD
ENDROOT
BRANCH   1  10
ATOM     10  C   UNL     1       5.689  10.789   2.646  0.00  0.00    +0.151 C 
BRANCH  10  11
ATOM     11  C   UNL     1       4.340  11.431   2.476  0.00  0.00    -0.028 A 
ATOM     12  C   UNL     1       4.183  12.547   1.641  0.00  0.00    +0.005 A 
ATOM     13  C   UNL     1       3.213  10.924   3.142  0.00  0.00    +0.005 A 
ATOM     14  C   UNL     1       2.924  13.126   1.459  0.00  0.00    +0.000 A 
ATOM     15  C   UNL     1       1.958  11.506   2.958  0.00  0.00    +0.000 A 
ATOM     16  C   UNL     1       1.814  12.605   2.115  0.00  0.00    +0.000 A 
ENDBRANCH  10  11
ENDBRANCH   1  10
TORSDOF 2
ENDMDL
MODEL 3
REMARK VINA RESULT:    -5.511      1.620      2.057
REMARK INTER + INTRA:          -6.306
REMARK INTER:                  -6.144
REMARK INTRA:                  -0.162
REMARK UNBOUND:                -0.150
REMARK  Name = 1550473
REMARK  2 active torsions:
REMARK  status: ('A' for Active; 'I' for Inactive)
REMARK    1  A    between atoms: N_1  and  C_4
REMARK    2  A    between atoms: C_4  and  C_5
REMARK                            x       y       z     vdW  Elec       q    Type
REMARK                         _______ _______ _______ _____ _____    ______ ____
ROOT
ATOM      1  N   UNL     1       3.513  12.283   3.352  0.00  0.00    -0.354 N 
ATOM      2  N   UNL     1       1.287  11.756   2.987  0.00  0.00    -0.372 N 
ATOM      3  N   UNL     1       2.850  10.077   2.923  0.00  0.00    -0.372 N 
ATOM      4  C   UNL     1       2.566  11.373   3.089  0.00  0.00    +0.166 C 
ATOM      5  H   UNL     1       3.236  13.255   3.437  0.00  0.00    +0.163 HD
ATOM      6  H   UNL     1       0.550  11.091   2.793  0.00  0.00    +0.159 HD
ATOM      7  H   UNL     1       1.008  12.720   3.118  0.00  0.00    +0.159 HD
ATOM      8  H   UNL     1       3.796   9.724   2.982  0.00  0.00    +0.159 HD
ATOM      9  H   UNL     1       2.128   9.398   2.717  0.00  0.00    +0.159 HD
ENDROOT
BRANCH   1  10
ATOM     10  C   UNL     1       4.927  11.962   3.536  0.00  0.00    +0.151 C 
BRANCH  10  11
ATOM     11  C   UNL     1       5.644  12.132   2.226  0.00  0.00    -0.028 A 
ATOM     12  C   UNL     1       5.907  13.413   1.718  0.00  0.00    +0.005 A 
ATOM     13  C   UNL     1       6.068  11.015   1.488  0.00  0.00    +0.005 A 
ATOM     14  C   UNL     1       6.600  13.571   0.516  0.00  0.00    +0.000 A 
ATOM     15  C   UNL     1       6.758  11.178   0.287  0.00  0.00    +0.000 A 
ATOM     16  C   UNL     1       7.026  12.456  -0.197  0.00  0.00    +0.000 A 
ENDBRANCH  10  11
ENDBRANCH   1  10
TORSDOF 2
ENDMDL
MODEL 4
REMARK VINA RESULT:    -5.379      2.623      3.537
REMARK INTER + INTRA:          -6.159
REMARK INTER:                  -6.029
REMARK INTRA:                  -0.129
REMARK UNBOUND:                -0.150
REMARK  Name = 1550473
REMARK  2 active torsions:
REMARK  status: ('A' for Active; 'I' for Inactive)
REMARK    1  A    between atoms: N_1  and  C_4
REMARK    2  A    between atoms: C_4  and  C_5
REMARK                            x       y       z     vdW  Elec       q    Type
REMARK                         _______ _______ _______ _____ _____    ______ ____
ROOT
ATOM      1  N   UNL     1       6.298  10.432   1.808  0.00  0.00    -0.354 N 
ATOM      2  N   UNL     1       5.671   9.038   0.068  0.00  0.00    -0.372 N 
ATOM      3  N   UNL     1       4.145   9.513   1.714  0.00  0.00    -0.372 N 
ATOM      4  C   UNL     1       5.373   9.670   1.210  0.00  0.00    +0.166 C 
ATOM      5  H   UNL     1       7.220  10.486   1.391  0.00  0.00    +0.163 HD
ATOM      6  H   UNL     1       4.993   8.459  -0.408  0.00  0.00    +0.159 HD
ATOM      7  H   UNL     1       6.579   9.131  -0.371  0.00  0.00    +0.159 HD
ATOM      8  H   UNL     1       3.859   9.958   2.576  0.00  0.00    +0.159 HD
ATOM      9  H   UNL     1       3.455   8.928   1.259  0.00  0.00    +0.159 HD
ENDROOT
BRANCH   1  10
ATOM     10  C   UNL     1       6.058  11.205   3.026  0.00  0.00    +0.151 C 
BRANCH  10  11
ATOM     11  C   UNL     1       6.382  12.650   2.762  0.00  0.00    -0.028 A 
ATOM     12  C   UNL     1       7.689  13.038   2.432  0.00  0.00    +0.005 A 
ATOM     13  C   UNL     1       5.385  13.635   2.835  0.00  0.00    +0.005 A 
ATOM     14  C   UNL     1       7.984  14.375   2.158  0.00  0.00    +0.000 A 
ATOM     15  C   UNL     1       5.684  14.970   2.562  0.00  0.00    +0.000 A 
ATOM     16  C   UNL     1       6.983  15.339   2.221  0.00  0.00    +0.000 A 
ENDBRANCH  10  11
ENDBRANCH   1  10
TORSDOF 2
ENDMDL
MODEL 5
REMARK VINA RESULT:    -5.172     22.618     23.765
REMARK INTER + INTRA:          -5.927
REMARK INTER:                  -5.831
REMARK INTRA:                  -0.096
REMARK UNBOUND:                -0.150
REMARK  Name = 1550473
REMARK  2 active torsions:
REMARK  status: ('A' for Active; 'I' for Inactive)
REMARK    1  A    between atoms: N_1  and  C_4
REMARK    2  A    between atoms: C_4  and  C_5
REMARK                            x       y       z     vdW  Elec       q    Type
REMARK                         _______ _______ _______ _____ _____    ______ ____
ROOT
ATOM      1  N   UNL     1       4.914  -9.228  14.983  0.00  0.00    -0.354 N 
ATOM      2  N   UNL     1       4.417 -10.102  17.069  0.00  0.00    -0.372 N 
ATOM      3  N   UNL     1       4.003 -11.376  15.207  0.00  0.00    -0.372 N 
ATOM      4  C   UNL     1       4.447 -10.232  15.738  0.00  0.00    +0.166 C 
ATOM      5  H   UNL     1       5.207  -8.375  15.444  0.00  0.00    +0.163 HD
ATOM      6  H   UNL     1       4.074 -10.843  17.665  0.00  0.00    +0.159 HD
ATOM      7  H   UNL     1       4.754  -9.266  17.531  0.00  0.00    +0.159 HD
ATOM      8  H   UNL     1       3.993 -11.534  14.208  0.00  0.00    +0.159 HD
ATOM      9  H   UNL     1       3.645 -12.125  15.785  0.00  0.00    +0.159 HD
ENDROOT
BRANCH   1  10
ATOM     10  C   UNL     1       5.038  -9.289  13.527  0.00  0.00    +0.151 C 
BRANCH  10  11
ATOM     11  C   UNL     1       6.028  -8.252  13.075  0.00  0.00    -0.028 A 
ATOM     12  C   UNL     1       5.722  -6.886  13.171  0.00  0.00    +0.005 A 
ATOM     13  C   UNL     1       7.276  -8.627  12.555  0.00  0.00    +0.005 A 
ATOM     14  C   UNL     1       6.653  -5.921  12.779  0.00  0.00    +0.000 A 
ATOM     15  C   UNL     1       8.203  -7.661  12.164  0.00  0.00    +0.000 A 
ATOM     16  C   UNL     1       7.892  -6.308  12.278  0.00  0.00    +0.000 A 
ENDBRANCH  10  11
ENDBRANCH   1  10
TORSDOF 2
ENDMDL
MODEL 6
REMARK VINA RESULT:    -5.123     29.782     30.988
REMARK INTER + INTRA:          -5.872
REMARK INTER:                  -5.742
REMARK INTRA:                  -0.130
REMARK UNBOUND:                -0.150
REMARK  Name = 1550473
REMARK  2 active torsions:
REMARK  status: ('A' for Active; 'I' for Inactive)
REMARK    1  A    between atoms: N_1  and  C_4
REMARK    2  A    between atoms: C_4  and  C_5
REMARK                            x       y       z     vdW  Elec       q    Type
REMARK                         _______ _______ _______ _____ _____    ______ ____
ROOT
ATOM      1  N   UNL     1       2.861 -17.284  -3.481  0.00  0.00    -0.354 N 
ATOM      2  N   UNL     1       1.020 -16.785  -4.796  0.00  0.00    -0.372 N 
ATOM      3  N   UNL     1       1.942 -15.128  -3.504  0.00  0.00    -0.372 N 
ATOM      4  C   UNL     1       1.954 -16.400  -3.917  0.00  0.00    +0.166 C 
ATOM      5  H   UNL     1       2.797 -18.241  -3.810  0.00  0.00    +0.163 HD
ATOM      6  H   UNL     1       0.325 -16.140  -5.145  0.00  0.00    +0.159 HD
ATOM      7  H   UNL     1       0.987 -17.731  -5.157  0.00  0.00    +0.159 HD
ATOM      8  H   UNL     1       2.616 -14.776  -2.837  0.00  0.00    +0.159 HD
ATOM      9  H   UNL     1       1.247 -14.470  -3.833  0.00  0.00    +0.159 HD
ENDROOT
BRANCH   1  10
ATOM     10  C   UNL     1       3.952 -16.953  -2.566  0.00  0.00    +0.151 C 
BRANCH  10  11
ATOM     11  C   UNL     1       5.116 -17.864  -2.840  0.00  0.00    -0.028 A 
ATOM     12  C   UNL     1       6.103 -18.071  -1.864  0.00  0.00    +0.005 A 
ATOM     13  C   UNL     1       5.237 -18.527  -4.070  0.00  0.00    +0.005 A 
ATOM     14  C   UNL     1       7.169 -18.940  -2.106  0.00  0.00    +0.000 A 
ATOM     15  C   UNL     1       6.303 -19.393  -4.309  0.00  0.00    +0.000 A 
ATOM     16  C   UNL     1       7.268 -19.602  -3.326  0.00  0.00    +0.000 A 
ENDBRANCH  10  11
ENDBRANCH   1  10
TORSDOF 2
ENDMDL
MODEL 7
REMARK VINA RESULT:    -4.937     10.942     12.351
REMARK INTER + INTRA:          -5.665
REMARK INTER:                  -5.541
REMARK INTRA:                  -0.123
REMARK UNBOUND:                -0.150
REMARK  Name = 1550473
REMARK  2 active torsions:
REMARK  status: ('A' for Active; 'I' for Inactive)
REMARK    1  A    between atoms: N_1  and  C_4
REMARK    2  A    between atoms: C_4  and  C_5
REMARK                            x       y       z     vdW  Elec       q    Type
REMARK                         _______ _______ _______ _____ _____    ______ ____
ROOT
ATOM      1  N   UNL     1      14.416   8.981  10.013  0.00  0.00    -0.354 N 
ATOM      2  N   UNL     1      15.697   8.204  11.779  0.00  0.00    -0.372 N 
ATOM      3  N   UNL     1      16.752   8.880   9.857  0.00  0.00    -0.372 N 
ATOM      4  C   UNL     1      15.615   8.694  10.536  0.00  0.00    +0.166 C 
ATOM      5  H   UNL     1      13.590   8.789  10.568  0.00  0.00    +0.163 HD
ATOM      6  H   UNL     1      16.588   7.981  12.202  0.00  0.00    +0.159 HD
ATOM      7  H   UNL     1      14.872   8.056  12.349  0.00  0.00    +0.159 HD
ATOM      8  H   UNL     1      16.759   9.241   8.913  0.00  0.00    +0.159 HD
ATOM      9  H   UNL     1      17.653   8.652  10.259  0.00  0.00    +0.159 HD
ENDROOT
BRANCH   1  10
ATOM     10  C   UNL     1      14.221   9.568   8.688  0.00  0.00    +0.151 C 
BRANCH  10  11
ATOM     11  C   UNL     1      13.326  10.771   8.811  0.00  0.00    -0.028 A 
ATOM     12  C   UNL     1      11.936  10.616   8.911  0.00  0.00    +0.005 A 
ATOM     13  C   UNL     1      13.863  12.067   8.834  0.00  0.00    +0.005 A 
ATOM     14  C   UNL     1      11.106  11.730   9.055  0.00  0.00    +0.000 A 
ATOM     15  C   UNL     1      13.031  13.178   8.977  0.00  0.00    +0.000 A 
ATOM     16  C   UNL     1      11.653  13.009   9.090  0.00  0.00    +0.000 A 
ENDBRANCH  10  11
ENDBRANCH   1  10
TORSDOF 2
ENDMDL
MODEL 8
REMARK VINA RESULT:    -4.919      9.598     11.055
REMARK INTER + INTRA:          -5.644
REMARK INTER:                  -5.498
REMARK INTRA:                  -0.146
REMARK UNBOUND:                -0.150
REMARK  Name = 1550473
REMARK  2 active torsions:
REMARK  status: ('A' for Active; 'I' for Inactive)
REMARK    1  A    between atoms: N_1  and  C_4
REMARK    2  A    between atoms: C_4  and  C_5
REMARK                            x       y       z     vdW  Elec       q    Type
REMARK                         _______ _______ _______ _____ _____    ______ ____
ROOT
ATOM      1  N   UNL     1      12.266  12.914   9.400  0.00  0.00    -0.354 N 
ATOM      2  N   UNL     1      10.720  14.375   8.484  0.00  0.00    -0.372 N 
ATOM      3  N   UNL     1      10.058  12.238   8.999  0.00  0.00    -0.372 N 
ATOM      4  C   UNL     1      11.023  13.164   8.967  0.00  0.00    +0.166 C 
ATOM      5  H   UNL     1      12.960  13.648   9.322  0.00  0.00    +0.163 HD
ATOM      6  H   UNL     1       9.789  14.593   8.153  0.00  0.00    +0.159 HD
ATOM      7  H   UNL     1      11.403  15.121   8.449  0.00  0.00    +0.159 HD
ATOM      8  H   UNL     1      10.224  11.303   9.346  0.00  0.00    +0.159 HD
ATOM      9  H   UNL     1       9.124  12.435   8.661  0.00  0.00    +0.159 HD
ENDROOT
BRANCH   1  10
ATOM     10  C   UNL     1      12.686  11.646   9.994  0.00  0.00    +0.151 C 
BRANCH  10  11
ATOM     11  C   UNL     1      13.725  11.011   9.112  0.00  0.00    -0.028 A 
ATOM     12  C   UNL     1      13.613   9.665   8.735  0.00  0.00    +0.005 A 
ATOM     13  C   UNL     1      14.822  11.752   8.646  0.00  0.00    +0.005 A 
ATOM     14  C   UNL     1      14.562   9.083   7.891  0.00  0.00    +0.000 A 
ATOM     15  C   UNL     1      15.768  11.167   7.805  0.00  0.00    +0.000 A 
ATOM     16  C   UNL     1      15.637   9.833   7.425  0.00  0.00    +0.000 A 
ENDBRANCH  10  11
ENDBRANCH   1  10
TORSDOF 2
ENDMDL
MODEL 9
REMARK VINA RESULT:    -4.792     32.696     33.720
REMARK INTER + INTRA:          -5.503
REMARK INTER:                  -5.379
REMARK INTRA:                  -0.123
REMARK UNBOUND:                -0.150
REMARK  Name = 1550473
REMARK  2 active torsions:
REMARK  status: ('A' for Active; 'I' for Inactive)
REMARK    1  A    between atoms: N_1  and  C_4
REMARK    2  A    between atoms: C_4  and  C_5
REMARK                            x       y       z     vdW  Elec       q    Type
REMARK                         _______ _______ _______ _____ _____    ______ ____
ROOT
ATOM      1  N   UNL     1      -2.363  -5.141 -26.032  0.00  0.00    -0.354 N 
ATOM      2  N   UNL     1      -3.563  -6.938 -26.866  0.00  0.00    -0.372 N 
ATOM      3  N   UNL     1      -2.689  -7.075 -24.748  0.00  0.00    -0.372 N 
ATOM      4  C   UNL     1      -2.863  -6.374 -25.874  0.00  0.00    +0.166 C 
ATOM      5  H   UNL     1      -2.504  -4.675 -26.920  0.00  0.00    +0.163 HD
ATOM      6  H   UNL     1      -3.955  -7.866 -26.774  0.00  0.00    +0.159 HD
ATOM      7  H   UNL     1      -3.742  -6.451 -27.736  0.00  0.00    +0.159 HD
ATOM      8  H   UNL     1      -2.165  -6.708 -23.965  0.00  0.00    +0.159 HD
ATOM      9  H   UNL     1      -3.064  -8.009 -24.642  0.00  0.00    +0.159 HD
ENDROOT
BRANCH   1  10
ATOM     10  C   UNL     1      -1.633  -4.416 -24.994  0.00  0.00    +0.151 C 
BRANCH  10  11
ATOM     11  C   UNL     1      -1.085  -3.142 -25.577  0.00  0.00    -0.028 A 
ATOM     12  C   UNL     1      -0.388  -2.232 -24.769  0.00  0.00    +0.005 A 
ATOM     13  C   UNL     1      -1.256  -2.843 -26.937  0.00  0.00    +0.005 A 
ATOM     14  C   UNL     1       0.147  -1.063 -25.317  0.00  0.00    +0.000 A 
ATOM     15  C   UNL     1      -0.721  -1.675 -27.480  0.00  0.00    +0.000 A 
ATOM     16  C   UNL     1      -0.018  -0.786 -26.670  0.00  0.00    +0.000 A 
ENDBRANCH  10  11
ENDBRANCH   1  10
TORSDOF 2
ENDMDL
