MODEL 1
REMARK VINA RESULT:    -4.983      0.000      0.000
REMARK INTER + INTRA:          -5.705
REMARK INTER:                  -5.565
REMARK INTRA:                  -0.140
REMARK UNBOUND:                -0.140
REMARK  Name = 1550473
REMARK  2 active torsions:
REMARK  status: ('A' for Active; 'I' for Inactive)
REMARK    1  A    between atoms: N_1  and  C_4
REMARK    2  A    between atoms: C_4  and  C_5
REMARK                            x       y       z     vdW  Elec       q    Type
REMARK                         _______ _______ _______ _____ _____    ______ ____
ROOT
ATOM      1  N   UNL     1      10.018  -1.539   8.898  0.00  0.00    -0.354 N 
ATOM      2  N   UNL     1      12.004  -0.468   8.374  0.00  0.00    -0.372 N 
ATOM      3  N   UNL     1      10.744   0.323  10.121  0.00  0.00    -0.372 N 
ATOM      4  C   UNL     1      10.908  -0.566   9.136  0.00  0.00    +0.166 C 
ATOM      5  H   UNL     1      10.185  -2.163   8.117  0.00  0.00    +0.163 HD
ATOM      6  H   UNL     1      12.695   0.253   8.532  0.00  0.00    +0.159 HD
ATOM      7  H   UNL     1      12.191  -1.121   7.623  0.00  0.00    +0.159 HD
ATOM      8  H   UNL     1       9.936   0.307  10.729  0.00  0.00    +0.159 HD
ATOM      9  H   UNL     1      11.419   1.060  10.288  0.00  0.00    +0.159 HD
ENDROOT
BRANCH   1  10
ATOM     10  C   UNL     1       8.819  -1.766   9.703  0.00  0.00    +0.151 C 
BRANCH  10  11
ATOM     11  C   UNL     1       8.856  -3.165  10.254  0.00  0.00    -0.028 A 
ATOM     12  C   UNL     1       8.370  -3.435  11.542  0.00  0.00    +0.005 A 
ATOM     13  C   UNL     1       9.369  -4.225   9.491  0.00  0.00    +0.005 A 
ATOM     14  C   UNL     1       8.376  -4.740  12.042  0.00  0.00    +0.000 A 
ATOM     15  C   UNL     1       9.374  -5.525   9.995  0.00  0.00    +0.000 A 
ATOM     16  C   UNL     1       8.875  -5.783  11.270  0.00  0.00    +0.000 A 
ENDBRANCH  10  11
ENDBRANCH   1  10
TORSDOF 2
ENDMDL
MODEL 2
REMARK VINA RESULT:    -4.477     15.178     16.465
REMARK INTER + INTRA:          -5.140
REMARK INTER:                  -4.966
REMARK INTRA:                  -0.175
REMARK UNBOUND:                -0.140
REMARK  Name = 1550473
REMARK  2 active torsions:
REMARK  status: ('A' for Active; 'I' for Inactive)
REMARK    1  A    between atoms: N_1  and  C_4
REMARK    2  A    between atoms: C_4  and  C_5
REMARK                            x       y       z     vdW  Elec       q    Type
REMARK                         _______ _______ _______ _____ _____    ______ ____
ROOT
ATOM      1  N   UNL     1       7.678   4.235  22.294  0.00  0.00    -0.354 N 
ATOM      2  N   UNL     1       6.679   4.078  20.211  0.00  0.00    -0.372 N 
ATOM      3  N   UNL     1       5.754   2.937  21.973  0.00  0.00    -0.372 N 
ATOM      4  C   UNL     1       6.709   3.749  21.508  0.00  0.00    +0.166 C 
ATOM      5  H   UNL     1       8.390   4.822  21.874  0.00  0.00    +0.163 HD
ATOM      6  H   UNL     1       5.958   3.730  19.594  0.00  0.00    +0.159 HD
ATOM      7  H   UNL     1       7.365   4.702  19.803  0.00  0.00    +0.159 HD
ATOM      8  H   UNL     1       5.724   2.646  22.941  0.00  0.00    +0.159 HD
ATOM      9  H   UNL     1       5.030   2.568  21.369  0.00  0.00    +0.159 HD
ENDROOT
BRANCH   1  10
ATOM     10  C   UNL     1       7.770   3.982  23.731  0.00  0.00    +0.151 C 
BRANCH  10  11
ATOM     11  C   UNL     1       7.072   5.089  24.471  0.00  0.00    -0.028 A 
ATOM     12  C   UNL     1       5.945   4.819  25.260  0.00  0.00    +0.005 A 
ATOM     13  C   UNL     1       7.538   6.411  24.392  0.00  0.00    +0.005 A 
ATOM     14  C   UNL     1       5.314   5.843  25.971  0.00  0.00    +0.000 A 
ATOM     15  C   UNL     1       6.905   7.430  25.103  0.00  0.00    +0.000 A 
ATOM     16  C   UNL     1       5.795   7.145  25.895  0.00  0.00    +0.000 A 
ENDBRANCH  10  11
ENDBRANCH   1  10
TORSDOF 2
ENDMDL
MODEL 3
REMARK VINA RESULT:    -4.462      1.761      2.227
REMARK INTER + INTRA:          -5.123
REMARK INTER:                  -5.003
REMARK INTRA:                  -0.120
REMARK UNBOUND:                -0.140
REMARK  Name = 1550473
REMARK  2 active torsions:
REMARK  status: ('A' for Active; 'I' for Inactive)
REMARK    1  A    between atoms: N_1  and  C_4
REMARK    2  A    between atoms: C_4  and  C_5
REMARK                            x       y       z     vdW  Elec       q    Type
REMARK                         _______ _______ _______ _____ _____    ______ ____
ROOT
ATOM      1  N   UNL     1      12.173  -2.003   9.988  0.00  0.00    -0.354 N 
ATOM      2  N   UNL     1      13.438  -0.066   9.881  0.00  0.00    -0.372 N 
ATOM      3  N   UNL     1      11.785  -0.398   8.325  0.00  0.00    -0.372 N 
ATOM      4  C   UNL     1      12.455  -0.835   9.396  0.00  0.00    +0.166 C 
ATOM      5  H   UNL     1      12.738  -2.292  10.778  0.00  0.00    +0.163 HD
ATOM      6  H   UNL     1      13.672   0.822   9.458  0.00  0.00    +0.159 HD
ATOM      7  H   UNL     1      13.971  -0.336  10.699  0.00  0.00    +0.159 HD
ATOM      8  H   UNL     1      11.035  -0.933   7.907  0.00  0.00    +0.159 HD
ATOM      9  H   UNL     1      12.011   0.483   7.881  0.00  0.00    +0.159 HD
ENDROOT
BRANCH   1  10
ATOM     10  C   UNL     1      11.087  -2.889   9.571  0.00  0.00    +0.151 C 
BRANCH  10  11
ATOM     11  C   UNL     1      10.346  -3.364  10.790  0.00  0.00    -0.028 A 
ATOM     12  C   UNL     1       8.943  -3.368  10.814  0.00  0.00    +0.005 A 
ATOM     13  C   UNL     1      11.040  -3.817  11.922  0.00  0.00    +0.005 A 
ATOM     14  C   UNL     1       8.254  -3.837  11.935  0.00  0.00    +0.000 A 
ATOM     15  C   UNL     1      10.348  -4.284  13.040  0.00  0.00    +0.000 A 
ATOM     16  C   UNL     1       8.955  -4.296  13.045  0.00  0.00    +0.000 A 
ENDBRANCH  10  11
ENDBRANCH   1  10
TORSDOF 2
ENDMDL
MODEL 4
REMARK VINA RESULT:    -4.373     11.309     12.983
REMARK INTER + INTRA:          -5.024
REMARK INTER:                  -4.850
REMARK INTRA:                  -0.174
REMARK UNBOUND:                -0.140
REMARK  Name = 1550473
REMARK  2 active torsions:
REMARK  status: ('A' for Active; 'I' for Inactive)
REMARK    1  A    between atoms: N_1  and  C_4
REMARK    2  A    between atoms: C_4  and  C_5
REMARK                            x       y       z     vdW  Elec       q    Type
REMARK                         _______ _______ _______ _____ _____    ______ ____
ROOT
ATOM      1  N   UNL     1       9.558  -3.661  -1.644  0.00  0.00    -0.354 N 
ATOM      2  N   UNL     1       8.148  -4.069   0.148  0.00  0.00    -0.372 N 
ATOM      3  N   UNL     1      10.381  -3.726   0.549  0.00  0.00    -0.372 N 
ATOM      4  C   UNL     1       9.374  -3.816  -0.326  0.00  0.00    +0.166 C 
ATOM      5  H   UNL     1       8.758  -3.772  -2.258  0.00  0.00    +0.163 HD
ATOM      6  H   UNL     1       7.979  -4.188   1.138  0.00  0.00    +0.159 HD
ATOM      7  H   UNL     1       7.343  -4.133  -0.463  0.00  0.00    +0.159 HD
ATOM      8  H   UNL     1      11.331  -3.543   0.254  0.00  0.00    +0.159 HD
ATOM      9  H   UNL     1      10.233  -3.853   1.542  0.00  0.00    +0.159 HD
ENDROOT
BRANCH   1  10
ATOM     10  C   UNL     1      10.842  -3.330  -2.258  0.00  0.00    +0.151 C 
BRANCH  10  11
ATOM     11  C   UNL     1      10.843  -1.876  -2.641  0.00  0.00    -0.028 A 
ATOM     12  C   UNL     1      11.252  -0.898  -1.722  0.00  0.00    +0.005 A 
ATOM     13  C   UNL     1      10.443  -1.470  -3.923  0.00  0.00    +0.005 A 
ATOM     14  C   UNL     1      11.281   0.450  -2.087  0.00  0.00    +0.000 A 
ATOM     15  C   UNL     1      10.473  -0.123  -4.283  0.00  0.00    +0.000 A 
ATOM     16  C   UNL     1      10.895   0.837  -3.366  0.00  0.00    +0.000 A 
ENDBRANCH  10  11
ENDBRANCH   1  10
TORSDOF 2
ENDMDL
MODEL 5
REMARK VINA RESULT:    -4.352     23.296     24.532
REMARK INTER + INTRA:          -5.000
REMARK INTER:                  -4.862
REMARK INTRA:                  -0.138
REMARK UNBOUND:                -0.140
REMARK  Name = 1550473
REMARK  2 active torsions:
REMARK  status: ('A' for Active; 'I' for Inactive)
REMARK    1  A    between atoms: N_1  and  C_4
REMARK    2  A    between atoms: C_4  and  C_5
REMARK                            x       y       z     vdW  Elec       q    Type
REMARK                         _______ _______ _______ _____ _____    ______ ____
ROOT
ATOM      1  N   UNL     1      -5.786   9.157  22.691  0.00  0.00    -0.354 N 
ATOM      2  N   UNL     1      -6.081   7.148  21.578  0.00  0.00    -0.372 N 
ATOM      3  N   UNL     1      -7.901   8.158  22.544  0.00  0.00    -0.372 N 
ATOM      4  C   UNL     1      -6.590   8.168  22.279  0.00  0.00    +0.166 C 
ATOM      5  H   UNL     1      -4.796   9.091  22.483  0.00  0.00    +0.163 HD
ATOM      6  H   UNL     1      -6.664   6.389  21.251  0.00  0.00    +0.159 HD
ATOM      7  H   UNL     1      -5.100   7.107  21.332  0.00  0.00    +0.159 HD
ATOM      8  H   UNL     1      -8.345   8.896  23.074  0.00  0.00    +0.159 HD
ATOM      9  H   UNL     1      -8.498   7.402  22.236  0.00  0.00    +0.159 HD
ENDROOT
BRANCH   1  10
ATOM     10  C   UNL     1      -6.249  10.340  23.414  0.00  0.00    +0.151 C 
BRANCH  10  11
ATOM     11  C   UNL     1      -5.344  10.582  24.590  0.00  0.00    -0.028 A 
ATOM     12  C   UNL     1      -5.132   9.577  25.545  0.00  0.00    +0.005 A 
ATOM     13  C   UNL     1      -4.690  11.814  24.753  0.00  0.00    +0.005 A 
ATOM     14  C   UNL     1      -4.267   9.791  26.621  0.00  0.00    +0.000 A 
ATOM     15  C   UNL     1      -3.829  12.024  25.829  0.00  0.00    +0.000 A 
ATOM     16  C   UNL     1      -3.616  11.011  26.762  0.00  0.00    +0.000 A 
ENDBRANCH  10  11
ENDBRANCH   1  10
TORSDOF 2
ENDMDL
MODEL 6
REMARK VINA RESULT:    -4.303     19.245     20.511
REMARK INTER + INTRA:          -4.946
REMARK INTER:                  -4.827
REMARK INTRA:                  -0.119
REMARK UNBOUND:                -0.140
REMARK  Name = 1550473
REMARK  2 active torsions:
REMARK  status: ('A' for Active; 'I' for Inactive)
REMARK    1  A    between atoms: N_1  and  C_4
REMARK    2  A    between atoms: C_4  and  C_5
REMARK                            x       y       z     vdW  Elec       q    Type
REMARK                         _______ _______ _______ _____ _____    ______ ____
ROOT
ATOM      1  N   UNL     1      10.697  10.445  24.171  0.00  0.00    -0.354 N 
ATOM      2  N   UNL     1      12.541   9.209  24.831  0.00  0.00    -0.372 N 
ATOM      3  N   UNL     1      11.051   8.277  23.357  0.00  0.00    -0.372 N 
ATOM      4  C   UNL     1      11.416   9.317  24.114  0.00  0.00    +0.166 C 
ATOM      5  H   UNL     1      11.012  11.186  24.788  0.00  0.00    +0.163 HD
ATOM      6  H   UNL     1      13.106   8.371  24.805  0.00  0.00    +0.159 HD
ATOM      7  H   UNL     1      12.878   9.968  25.411  0.00  0.00    +0.159 HD
ATOM      8  H   UNL     1      10.209   8.292  22.797  0.00  0.00    +0.159 HD
ATOM      9  H   UNL     1      11.597   7.425  23.327  0.00  0.00    +0.159 HD
ENDROOT
BRANCH   1  10
ATOM     10  C   UNL     1       9.486  10.684  23.388  0.00  0.00    +0.151 C 
BRANCH  10  11
ATOM     11  C   UNL     1       8.696  11.790  24.031  0.00  0.00    -0.028 A 
ATOM     12  C   UNL     1       8.550  11.844  25.425  0.00  0.00    +0.005 A 
ATOM     13  C   UNL     1       8.094  12.791  23.252  0.00  0.00    +0.005 A 
ATOM     14  C   UNL     1       7.842  12.889  26.025  0.00  0.00    +0.000 A 
ATOM     15  C   UNL     1       7.387  13.831  23.854  0.00  0.00    +0.000 A 
ATOM     16  C   UNL     1       7.263  13.881  25.241  0.00  0.00    +0.000 A 
ENDBRANCH  10  11
ENDBRANCH   1  10
TORSDOF 2
ENDMDL
MODEL 7
REMARK VINA RESULT:    -4.287     23.819     24.619
REMARK INTER + INTRA:          -4.928
REMARK INTER:                  -4.797
REMARK INTRA:                  -0.130
REMARK UNBOUND:                -0.140
REMARK  Name = 1550473
REMARK  2 active torsions:
REMARK  status: ('A' for Active; 'I' for Inactive)
REMARK    1  A    between atoms: N_1  and  C_4
REMARK    2  A    between atoms: C_4  and  C_5
REMARK                            x       y       z     vdW  Elec       q    Type
REMARK                         _______ _______ _______ _____ _____    ______ ____
ROOT
ATOM      1  N   UNL     1       0.161 -13.420  -8.700  0.00  0.00    -0.354 N 
ATOM      2  N   UNL     1      -1.295 -14.195  -7.074  0.00  0.00    -0.372 N 
ATOM      3  N   UNL     1      -2.156 -13.139  -8.920  0.00  0.00    -0.372 N 
ATOM      4  C   UNL     1      -1.089 -13.578  -8.243  0.00  0.00    +0.166 C 
ATOM      5  H   UNL     1       0.928 -13.750  -8.126  0.00  0.00    +0.163 HD
ATOM      6  H   UNL     1      -2.227 -14.332  -6.705  0.00  0.00    +0.159 HD
ATOM      7  H   UNL     1      -0.529 -14.564  -6.524  0.00  0.00    +0.159 HD
ATOM      8  H   UNL     1      -2.068 -12.659  -9.806  0.00  0.00    +0.159 HD
ATOM      9  H   UNL     1      -3.095 -13.256  -8.562  0.00  0.00    +0.159 HD
ENDROOT
BRANCH   1  10
ATOM     10  C   UNL     1       0.490 -12.810  -9.987  0.00  0.00    +0.151 C 
BRANCH  10  11
ATOM     11  C   UNL     1       1.765 -13.415 -10.506  0.00  0.00    -0.028 A 
ATOM     12  C   UNL     1       2.518 -12.756 -11.488  0.00  0.00    +0.005 A 
ATOM     13  C   UNL     1       2.229 -14.645 -10.014  0.00  0.00    +0.005 A 
ATOM     14  C   UNL     1       3.718 -13.303 -11.949  0.00  0.00    +0.000 A 
ATOM     15  C   UNL     1       3.428 -15.188 -10.476  0.00  0.00    +0.000 A 
ATOM     16  C   UNL     1       4.173 -14.516 -11.442  0.00  0.00    +0.000 A 
ENDBRANCH  10  11
ENDBRANCH   1  10
TORSDOF 2
ENDMDL
MODEL 8
REMARK VINA RESULT:    -4.204     23.991     25.283
REMARK INTER + INTRA:          -4.835
REMARK INTER:                  -4.707
REMARK INTRA:                  -0.129
REMARK UNBOUND:                -0.140
REMARK  Name = 1550473
REMARK  2 active torsions:
REMARK  status: ('A' for Active; 'I' for Inactive)
REMARK    1  A    between atoms: N_1  and  C_4
REMARK    2  A    between atoms: C_4  and  C_5
REMARK                            x       y       z     vdW  Elec       q    Type
REMARK                         _______ _______ _______ _____ _____    ______ ____
ROOT
ATOM      1  N   UNL     1      -0.121   4.269 -10.992  0.00  0.00    -0.354 N 
ATOM      2  N   UNL     1       1.227   2.878 -12.262  0.00  0.00    -0.372 N 
ATOM      3  N   UNL     1       2.150   3.995 -10.483  0.00  0.00    -0.372 N 
ATOM      4  C   UNL     1       1.079   3.724 -11.236  0.00  0.00    +0.166 C 
ATOM      5  H   UNL     1      -0.886   4.047 -11.619  0.00  0.00    +0.163 HD
ATOM      6  H   UNL     1       2.119   2.449 -12.468  0.00  0.00    +0.159 HD
ATOM      7  H   UNL     1       0.450   2.622 -12.859  0.00  0.00    +0.159 HD
ATOM      8  H   UNL     1       2.106   4.630  -9.697  0.00  0.00    +0.159 HD
ATOM      9  H   UNL     1       3.054   3.584 -10.680  0.00  0.00    +0.159 HD
ENDROOT
BRANCH   1  10
ATOM     10  C   UNL     1      -0.401   5.160  -9.868  0.00  0.00    +0.151 C 
BRANCH  10  11
ATOM     11  C   UNL     1      -1.200   6.335 -10.360  0.00  0.00    -0.028 A 
ATOM     12  C   UNL     1      -2.140   6.176 -11.389  0.00  0.00    +0.005 A 
ATOM     13  C   UNL     1      -1.027   7.609  -9.797  0.00  0.00    +0.005 A 
ATOM     14  C   UNL     1      -2.904   7.261 -11.826  0.00  0.00    +0.000 A 
ATOM     15  C   UNL     1      -1.792   8.690 -10.236  0.00  0.00    +0.000 A 
ATOM     16  C   UNL     1      -2.732   8.515 -11.249  0.00  0.00    +0.000 A 
ENDBRANCH  10  11
ENDBRANCH   1  10
TORSDOF 2
ENDMDL
MODEL 9
REMARK VINA RESULT:    -4.135     21.837     22.899
REMARK INTER + INTRA:          -4.758
REMARK INTER:                  -4.652
REMARK INTRA:                  -0.106
REMARK UNBOUND:                -0.140
REMARK  Name = 1550473
REMARK  2 active torsions:
REMARK  status: ('A' for Active; 'I' for Inactive)
REMARK    1  A    between atoms: N_1  and  C_4
REMARK    2  A    between atoms: C_4  and  C_5
REMARK                            x       y       z     vdW  Elec       q    Type
REMARK                         _______ _______ _______ _____ _____    ______ ____
ROOT
ATOM      1  N   UNL     1      -7.157   7.703   0.054  0.00  0.00    -0.354 N 
ATOM      2  N   UNL     1      -4.873   8.080  -0.020  0.00  0.00    -0.372 N 
ATOM      3  N   UNL     1      -6.027   7.871  -1.992  0.00  0.00    -0.372 N 
ATOM      4  C   UNL     1      -6.034   7.882  -0.655  0.00  0.00    +0.166 C 
ATOM      5  H   UNL     1      -7.091   7.692   1.065  0.00  0.00    +0.163 HD
ATOM      6  H   UNL     1      -4.010   8.221  -0.528  0.00  0.00    +0.159 HD
ATOM      7  H   UNL     1      -4.817   8.114   0.991  0.00  0.00    +0.159 HD
ATOM      8  H   UNL     1      -6.869   7.720  -2.531  0.00  0.00    +0.159 HD
ATOM      9  H   UNL     1      -5.171   7.999  -2.518  0.00  0.00    +0.159 HD
ENDROOT
BRANCH   1  10
ATOM     10  C   UNL     1      -8.481   7.533  -0.541  0.00  0.00    +0.151 C 
BRANCH  10  11
ATOM     11  C   UNL     1      -9.414   6.964   0.492  0.00  0.00    -0.028 A 
ATOM     12  C   UNL     1     -10.572   7.661   0.866  0.00  0.00    +0.005 A 
ATOM     13  C   UNL     1      -9.149   5.725   1.096  0.00  0.00    +0.005 A 
ATOM     14  C   UNL     1     -11.455   7.119   1.804  0.00  0.00    +0.000 A 
ATOM     15  C   UNL     1     -10.032   5.188   2.032  0.00  0.00    +0.000 A 
ATOM     16  C   UNL     1     -11.186   5.883   2.384  0.00  0.00    +0.000 A 
ENDBRANCH  10  11
ENDBRANCH   1  10
TORSDOF 2
ENDMDL
