MODEL 1
REMARK VINA RESULT:    -5.444      0.000      0.000
REMARK INTER + INTRA:          -6.211
REMARK INTER:                  -6.080
REMARK INTRA:                  -0.131
REMARK UNBOUND:                -0.131
REMARK  Name = 1550473
REMARK  2 active torsions:
REMARK  status: ('A' for Active; 'I' for Inactive)
REMARK    1  A    between atoms: N_1  and  C_4
REMARK    2  A    between atoms: C_4  and  C_5
REMARK                            x       y       z     vdW  Elec       q    Type
REMARK                         _______ _______ _______ _____ _____    ______ ____
ROOT
ATOM      1  N   UNL     1     -15.298 -14.184   3.642  0.00  0.00    -0.354 N 
ATOM      2  N   UNL     1     -15.051 -14.451   1.355  0.00  0.00    -0.372 N 
ATOM      3  N   UNL     1     -16.434 -12.794   2.135  0.00  0.00    -0.372 N 
ATOM      4  C   UNL     1     -15.598 -13.806   2.392  0.00  0.00    +0.166 C 
ATOM      5  H   UNL     1     -14.682 -14.978   3.770  0.00  0.00    +0.163 HD
ATOM      6  H   UNL     1     -15.256 -14.187   0.400  0.00  0.00    +0.159 HD
ATOM      7  H   UNL     1     -14.399 -15.215   1.486  0.00  0.00    +0.159 HD
ATOM      8  H   UNL     1     -16.884 -12.271   2.873  0.00  0.00    +0.159 HD
ATOM      9  H   UNL     1     -16.660 -12.522   1.186  0.00  0.00    +0.159 HD
ENDROOT
BRANCH   1  10
ATOM     10  C   UNL     1     -15.798 -13.513   4.841  0.00  0.00    +0.151 C 
BRANCH  10  11
ATOM     11  C   UNL     1     -14.631 -13.110   5.700  0.00  0.00    -0.028 A 
ATOM     12  C   UNL     1     -14.569 -11.824   6.257  0.00  0.00    +0.005 A 
ATOM     13  C   UNL     1     -13.588 -14.010   5.965  0.00  0.00    +0.005 A 
ATOM     14  C   UNL     1     -13.500 -11.459   7.080  0.00  0.00    +0.000 A 
ATOM     15  C   UNL     1     -12.523 -13.641   6.786  0.00  0.00    +0.000 A 
ATOM     16  C   UNL     1     -12.480 -12.366   7.345  0.00  0.00    +0.000 A 
ENDBRANCH  10  11
ENDBRANCH   1  10
TORSDOF 2
ENDMDL
MODEL 2
REMARK VINA RESULT:    -4.901     16.168     17.150
REMARK INTER + INTRA:          -5.605
REMARK INTER:                  -5.500
REMARK INTRA:                  -0.105
REMARK UNBOUND:                -0.131
REMARK  Name = 1550473
REMARK  2 active torsions:
REMARK  status: ('A' for Active; 'I' for Inactive)
REMARK    1  A    between atoms: N_1  and  C_4
REMARK    2  A    between atoms: C_4  and  C_5
REMARK                            x       y       z     vdW  Elec       q    Type
REMARK                         _______ _______ _______ _____ _____    ______ ____
ROOT
ATOM      1  N   UNL     1      -3.419  -2.603   4.017  0.00  0.00    -0.354 N 
ATOM      2  N   UNL     1      -5.450  -3.244   4.927  0.00  0.00    -0.372 N 
ATOM      3  N   UNL     1      -5.443  -1.892   3.073  0.00  0.00    -0.372 N 
ATOM      4  C   UNL     1      -4.759  -2.574   3.998  0.00  0.00    +0.166 C 
ATOM      5  H   UNL     1      -2.960  -3.114   4.762  0.00  0.00    +0.163 HD
ATOM      6  H   UNL     1      -6.462  -3.242   4.936  0.00  0.00    +0.159 HD
ATOM      7  H   UNL     1      -4.989  -3.791   5.644  0.00  0.00    +0.159 HD
ATOM      8  H   UNL     1      -4.980  -1.361   2.348  0.00  0.00    +0.159 HD
ATOM      9  H   UNL     1      -6.455  -1.869   3.072  0.00  0.00    +0.159 HD
ENDROOT
BRANCH   1  10
ATOM     10  C   UNL     1      -2.573  -1.952   3.019  0.00  0.00    +0.151 C 
BRANCH  10  11
ATOM     11  C   UNL     1      -1.300  -1.495   3.677  0.00  0.00    -0.028 A 
ATOM     12  C   UNL     1      -0.941  -0.139   3.666  0.00  0.00    +0.005 A 
ATOM     13  C   UNL     1      -0.453  -2.411   4.319  0.00  0.00    +0.005 A 
ATOM     14  C   UNL     1       0.226   0.291   4.303  0.00  0.00    +0.000 A 
ATOM     15  C   UNL     1       0.711  -1.978   4.954  0.00  0.00    +0.000 A 
ATOM     16  C   UNL     1       1.049  -0.627   4.947  0.00  0.00    +0.000 A 
ENDBRANCH  10  11
ENDBRANCH   1  10
TORSDOF 2
ENDMDL
MODEL 3
REMARK VINA RESULT:    -4.603     35.380     37.160
REMARK INTER + INTRA:          -5.273
REMARK INTER:                  -5.160
REMARK INTRA:                  -0.113
REMARK UNBOUND:                -0.131
REMARK  Name = 1550473
REMARK  2 active torsions:
REMARK  status: ('A' for Active; 'I' for Inactive)
REMARK    1  A    between atoms: N_1  and  C_4
REMARK    2  A    between atoms: C_4  and  C_5
REMARK                            x       y       z     vdW  Elec       q    Type
REMARK                         _______ _______ _______ _____ _____    ______ ____
ROOT
ATOM      1  N   UNL     1      -5.672   0.345 -27.552  0.00  0.00    -0.354 N 
ATOM      2  N   UNL     1      -7.381   0.687 -26.026  0.00  0.00    -0.372 N 
ATOM      3  N   UNL     1      -7.795  -0.592 -27.886  0.00  0.00    -0.372 N 
ATOM      4  C   UNL     1      -6.940   0.143 -27.166  0.00  0.00    +0.166 C 
ATOM      5  H   UNL     1      -5.083   0.936 -26.977  0.00  0.00    +0.163 HD
ATOM      6  H   UNL     1      -8.331   0.550 -25.708  0.00  0.00    +0.159 HD
ATOM      7  H   UNL     1      -6.776   1.240 -25.431  0.00  0.00    +0.159 HD
ATOM      8  H   UNL     1      -7.526  -1.025 -28.759  0.00  0.00    +0.159 HD
ATOM      9  H   UNL     1      -8.753  -0.731 -27.590  0.00  0.00    +0.159 HD
ENDROOT
BRANCH   1  10
ATOM     10  C   UNL     1      -5.078  -0.247 -28.749  0.00  0.00    +0.151 C 
BRANCH  10  11
ATOM     11  C   UNL     1      -3.582  -0.110 -28.674  0.00  0.00    -0.028 A 
ATOM     12  C   UNL     1      -2.748  -1.100 -29.212  0.00  0.00    +0.005 A 
ATOM     13  C   UNL     1      -2.993   1.012 -28.071  0.00  0.00    +0.005 A 
ATOM     14  C   UNL     1      -1.359  -0.959 -29.170  0.00  0.00    +0.000 A 
ATOM     15  C   UNL     1      -1.606   1.150 -28.030  0.00  0.00    +0.000 A 
ATOM     16  C   UNL     1      -0.789   0.165 -28.581  0.00  0.00    +0.000 A 
ENDBRANCH  10  11
ENDBRANCH   1  10
TORSDOF 2
ENDMDL
MODEL 4
REMARK VINA RESULT:    -4.592      1.054      1.982
REMARK INTER + INTRA:          -5.260
REMARK INTER:                  -5.128
REMARK INTRA:                  -0.132
REMARK UNBOUND:                -0.131
REMARK  Name = 1550473
REMARK  2 active torsions:
REMARK  status: ('A' for Active; 'I' for Inactive)
REMARK    1  A    between atoms: N_1  and  C_4
REMARK    2  A    between atoms: C_4  and  C_5
REMARK                            x       y       z     vdW  Elec       q    Type
REMARK                         _______ _______ _______ _____ _____    ______ ____
ROOT
ATOM      1  N   UNL     1     -15.699 -14.835   4.337  0.00  0.00    -0.354 N 
ATOM      2  N   UNL     1     -17.349 -14.766   2.713  0.00  0.00    -0.372 N 
ATOM      3  N   UNL     1     -15.149 -14.763   2.060  0.00  0.00    -0.372 N 
ATOM      4  C   UNL     1     -16.052 -14.788   3.046  0.00  0.00    +0.166 C 
ATOM      5  H   UNL     1     -16.431 -14.821   5.038  0.00  0.00    +0.163 HD
ATOM      6  H   UNL     1     -17.646 -14.734   1.747  0.00  0.00    +0.159 HD
ATOM      7  H   UNL     1     -18.079 -14.799   3.414  0.00  0.00    +0.159 HD
ATOM      8  H   UNL     1     -14.155 -14.772   2.245  0.00  0.00    +0.159 HD
ATOM      9  H   UNL     1     -15.427 -14.720   1.088  0.00  0.00    +0.159 HD
ENDROOT
BRANCH   1  10
ATOM     10  C   UNL     1     -14.316 -14.916   4.804  0.00  0.00    +0.151 C 
BRANCH  10  11
ATOM     11  C   UNL     1     -14.033 -13.748   5.708  0.00  0.00    -0.028 A 
ATOM     12  C   UNL     1     -12.872 -13.722   6.495  0.00  0.00    +0.005 A 
ATOM     13  C   UNL     1     -14.919 -12.662   5.779  0.00  0.00    +0.005 A 
ATOM     14  C   UNL     1     -12.594 -12.624   7.313  0.00  0.00    +0.000 A 
ATOM     15  C   UNL     1     -14.638 -11.568   6.597  0.00  0.00    +0.000 A 
ATOM     16  C   UNL     1     -13.474 -11.549   7.362  0.00  0.00    +0.000 A 
ENDBRANCH  10  11
ENDBRANCH   1  10
TORSDOF 2
ENDMDL
MODEL 5
REMARK VINA RESULT:    -4.588     29.102     30.657
REMARK INTER + INTRA:          -5.255
REMARK INTER:                  -5.146
REMARK INTRA:                  -0.109
REMARK UNBOUND:                -0.131
REMARK  Name = 1550473
REMARK  2 active torsions:
REMARK  status: ('A' for Active; 'I' for Inactive)
REMARK    1  A    between atoms: N_1  and  C_4
REMARK    2  A    between atoms: C_4  and  C_5
REMARK                            x       y       z     vdW  Elec       q    Type
REMARK                         _______ _______ _______ _____ _____    ______ ____
ROOT
ATOM      1  N   UNL     1       2.588 -13.214 -21.693  0.00  0.00    -0.354 N 
ATOM      2  N   UNL     1       1.336 -13.705 -23.579  0.00  0.00    -0.372 N 
ATOM      3  N   UNL     1       3.576 -13.268 -23.818  0.00  0.00    -0.372 N 
ATOM      4  C   UNL     1       2.510 -13.392 -23.019  0.00  0.00    +0.166 C 
ATOM      5  H   UNL     1       1.738 -13.292 -21.146  0.00  0.00    +0.163 HD
ATOM      6  H   UNL     1       1.247 -13.848 -24.576  0.00  0.00    +0.159 HD
ATOM      7  H   UNL     1       0.497 -13.828 -23.024  0.00  0.00    +0.159 HD
ATOM      8  H   UNL     1       4.490 -13.027 -23.458  0.00  0.00    +0.159 HD
ATOM      9  H   UNL     1       3.505 -13.396 -24.819  0.00  0.00    +0.159 HD
ENDROOT
BRANCH   1  10
ATOM     10  C   UNL     1       3.830 -12.923 -20.978  0.00  0.00    +0.151 C 
BRANCH  10  11
ATOM     11  C   UNL     1       3.502 -12.531 -19.564  0.00  0.00    -0.028 A 
ATOM     12  C   UNL     1       2.525 -13.229 -18.840  0.00  0.00    +0.005 A 
ATOM     13  C   UNL     1       4.169 -11.465 -18.941  0.00  0.00    +0.005 A 
ATOM     14  C   UNL     1       2.242 -12.884 -17.516  0.00  0.00    +0.000 A 
ATOM     15  C   UNL     1       3.883 -11.123 -17.620  0.00  0.00    +0.000 A 
ATOM     16  C   UNL     1       2.921 -11.834 -16.907  0.00  0.00    +0.000 A 
ENDBRANCH  10  11
ENDBRANCH   1  10
TORSDOF 2
ENDMDL
MODEL 6
REMARK VINA RESULT:    -4.584     29.229     30.162
REMARK INTER + INTRA:          -5.251
REMARK INTER:                  -5.118
REMARK INTRA:                  -0.133
REMARK UNBOUND:                -0.131
REMARK  Name = 1550473
REMARK  2 active torsions:
REMARK  status: ('A' for Active; 'I' for Inactive)
REMARK    1  A    between atoms: N_1  and  C_4
REMARK    2  A    between atoms: C_4  and  C_5
REMARK                            x       y       z     vdW  Elec       q    Type
REMARK                         _______ _______ _______ _____ _____    ______ ____
ROOT
ATOM      1  N   UNL     1       7.350   6.164   0.179  0.00  0.00    -0.354 N 
ATOM      2  N   UNL     1       6.937   3.925  -0.245  0.00  0.00    -0.372 N 
ATOM      3  N   UNL     1       6.008   5.504  -1.626  0.00  0.00    -0.372 N 
ATOM      4  C   UNL     1       6.766   5.213  -0.563  0.00  0.00    +0.166 C 
ATOM      5  H   UNL     1       7.888   5.879   0.990  0.00  0.00    +0.163 HD
ATOM      6  H   UNL     1       6.512   3.185  -0.788  0.00  0.00    +0.159 HD
ATOM      7  H   UNL     1       7.512   3.641   0.539  0.00  0.00    +0.159 HD
ATOM      8  H   UNL     1       5.835   6.458  -1.915  0.00  0.00    +0.159 HD
ATOM      9  H   UNL     1       5.565   4.779  -2.175  0.00  0.00    +0.159 HD
ENDROOT
BRANCH   1  10
ATOM     10  C   UNL     1       7.271   7.594  -0.114  0.00  0.00    +0.151 C 
BRANCH  10  11
ATOM     11  C   UNL     1       7.189   8.357   1.179  0.00  0.00    -0.028 A 
ATOM     12  C   UNL     1       6.905   9.730   1.179  0.00  0.00    +0.005 A 
ATOM     13  C   UNL     1       7.388   7.710   2.409  0.00  0.00    +0.005 A 
ATOM     14  C   UNL     1       6.799  10.433   2.381  0.00  0.00    +0.000 A 
ATOM     15  C   UNL     1       7.282   8.416   3.607  0.00  0.00    +0.000 A 
ATOM     16  C   UNL     1       6.985   9.776   3.593  0.00  0.00    +0.000 A 
ENDBRANCH  10  11
ENDBRANCH   1  10
TORSDOF 2
ENDMDL
MODEL 7
REMARK VINA RESULT:    -4.573     26.538     27.782
REMARK INTER + INTRA:          -5.239
REMARK INTER:                  -5.093
REMARK INTRA:                  -0.146
REMARK UNBOUND:                -0.131
REMARK  Name = 1550473
REMARK  2 active torsions:
REMARK  status: ('A' for Active; 'I' for Inactive)
REMARK    1  A    between atoms: N_1  and  C_4
REMARK    2  A    between atoms: C_4  and  C_5
REMARK                            x       y       z     vdW  Elec       q    Type
REMARK                         _______ _______ _______ _____ _____    ______ ____
ROOT
ATOM      1  N   UNL     1       2.643  -2.390 -13.742  0.00  0.00    -0.354 N 
ATOM      2  N   UNL     1       3.136  -0.137 -13.530  0.00  0.00    -0.372 N 
ATOM      3  N   UNL     1       4.384  -1.414 -14.970  0.00  0.00    -0.372 N 
ATOM      4  C   UNL     1       3.387  -1.329 -14.084  0.00  0.00    +0.166 C 
ATOM      5  H   UNL     1       1.921  -2.266 -13.041  0.00  0.00    +0.163 HD
ATOM      6  H   UNL     1       3.677   0.682 -13.771  0.00  0.00    +0.159 HD
ATOM      7  H   UNL     1       2.384  -0.006 -12.864  0.00  0.00    +0.159 HD
ATOM      8  H   UNL     1       4.628  -2.287 -15.419  0.00  0.00    +0.159 HD
ATOM      9  H   UNL     1       4.945  -0.608 -15.215  0.00  0.00    +0.159 HD
ENDROOT
BRANCH   1  10
ATOM     10  C   UNL     1       2.800  -3.721 -14.326  0.00  0.00    +0.151 C 
BRANCH  10  11
ATOM     11  C   UNL     1       1.503  -4.131 -14.969  0.00  0.00    -0.028 A 
ATOM     12  C   UNL     1       1.234  -3.798 -16.304  0.00  0.00    +0.005 A 
ATOM     13  C   UNL     1       0.542  -4.857 -14.249  0.00  0.00    +0.005 A 
ATOM     14  C   UNL     1       0.043  -4.205 -16.911  0.00  0.00    +0.000 A 
ATOM     15  C   UNL     1      -0.646  -5.261 -14.857  0.00  0.00    +0.000 A 
ATOM     16  C   UNL     1      -0.894  -4.936 -16.189  0.00  0.00    +0.000 A 
ENDBRANCH  10  11
ENDBRANCH   1  10
TORSDOF 2
ENDMDL
MODEL 8
REMARK VINA RESULT:    -4.392     13.875     15.307
REMARK INTER + INTRA:          -5.037
REMARK INTER:                  -4.909
REMARK INTRA:                  -0.128
REMARK UNBOUND:                -0.131
REMARK  Name = 1550473
REMARK  2 active torsions:
REMARK  status: ('A' for Active; 'I' for Inactive)
REMARK    1  A    between atoms: N_1  and  C_4
REMARK    2  A    between atoms: C_4  and  C_5
REMARK                            x       y       z     vdW  Elec       q    Type
REMARK                         _______ _______ _______ _____ _____    ______ ____
ROOT
ATOM      1  N   UNL     1     -14.438  -0.473   8.331  0.00  0.00    -0.354 N 
ATOM      2  N   UNL     1     -13.001  -1.168  10.009  0.00  0.00    -0.372 N 
ATOM      3  N   UNL     1     -12.114  -0.375   8.047  0.00  0.00    -0.372 N 
ATOM      4  C   UNL     1     -13.192  -0.667   8.783  0.00  0.00    +0.166 C 
ATOM      5  H   UNL     1     -15.213  -0.743   8.926  0.00  0.00    +0.163 HD
ATOM      6  H   UNL     1     -12.072  -1.322  10.378  0.00  0.00    +0.159 HD
ATOM      7  H   UNL     1     -13.777  -1.394  10.619  0.00  0.00    +0.159 HD
ATOM      8  H   UNL     1     -12.190   0.000   7.111  0.00  0.00    +0.159 HD
ATOM      9  H   UNL     1     -11.176  -0.533   8.394  0.00  0.00    +0.159 HD
ENDROOT
BRANCH   1  10
ATOM     10  C   UNL     1     -14.754   0.117   7.032  0.00  0.00    +0.151 C 
BRANCH  10  11
ATOM     11  C   UNL     1     -15.448   1.435   7.246  0.00  0.00    -0.028 A 
ATOM     12  C   UNL     1     -14.865   2.423   8.054  0.00  0.00    +0.005 A 
ATOM     13  C   UNL     1     -16.685   1.703   6.640  0.00  0.00    +0.005 A 
ATOM     14  C   UNL     1     -15.495   3.657   8.229  0.00  0.00    +0.000 A 
ATOM     15  C   UNL     1     -17.310   2.937   6.818  0.00  0.00    +0.000 A 
ATOM     16  C   UNL     1     -16.714   3.915   7.611  0.00  0.00    +0.000 A 
ENDBRANCH  10  11
ENDBRANCH   1  10
TORSDOF 2
ENDMDL
MODEL 9
REMARK VINA RESULT:    -4.361     13.468     14.720
REMARK INTER + INTRA:          -5.002
REMARK INTER:                  -4.853
REMARK INTRA:                  -0.149
REMARK UNBOUND:                -0.131
REMARK  Name = 1550473
REMARK  2 active torsions:
REMARK  status: ('A' for Active; 'I' for Inactive)
REMARK    1  A    between atoms: N_1  and  C_4
REMARK    2  A    between atoms: C_4  and  C_5
REMARK                            x       y       z     vdW  Elec       q    Type
REMARK                         _______ _______ _______ _____ _____    ______ ____
ROOT
ATOM      1  N   UNL     1     -14.799   2.779   5.137  0.00  0.00    -0.354 N 
ATOM      2  N   UNL     1     -14.427   3.334   2.920  0.00  0.00    -0.372 N 
ATOM      3  N   UNL     1     -16.323   2.163   3.467  0.00  0.00    -0.372 N 
ATOM      4  C   UNL     1     -15.188   2.753   3.856  0.00  0.00    +0.166 C 
ATOM      5  H   UNL     1     -13.913   3.216   5.363  0.00  0.00    +0.163 HD
ATOM      6  H   UNL     1     -14.697   3.334   1.945  0.00  0.00    +0.159 HD
ATOM      7  H   UNL     1     -13.565   3.810   3.154  0.00  0.00    +0.159 HD
ATOM      8  H   UNL     1     -16.939   1.701   4.124  0.00  0.00    +0.159 HD
ATOM      9  H   UNL     1     -16.604   2.141   2.495  0.00  0.00    +0.159 HD
ENDROOT
BRANCH   1  10
ATOM     10  C   UNL     1     -15.581   2.223   6.240  0.00  0.00    +0.151 C 
BRANCH  10  11
ATOM     11  C   UNL     1     -14.759   1.183   6.950  0.00  0.00    -0.028 A 
ATOM     12  C   UNL     1     -14.546   1.266   8.334  0.00  0.00    +0.005 A 
ATOM     13  C   UNL     1     -14.196   0.108   6.245  0.00  0.00    +0.005 A 
ATOM     14  C   UNL     1     -13.807   0.284   8.998  0.00  0.00    +0.000 A 
ATOM     15  C   UNL     1     -13.458  -0.870   6.912  0.00  0.00    +0.000 A 
ATOM     16  C   UNL     1     -13.266  -0.783   8.289  0.00  0.00    +0.000 A 
ENDBRANCH  10  11
ENDBRANCH   1  10
TORSDOF 2
ENDMDL
