MODEL 1
REMARK VINA RESULT:    -5.967      0.000      0.000
REMARK INTER + INTRA:          -6.797
REMARK INTER:                  -6.664
REMARK INTRA:                  -0.133
REMARK UNBOUND:                -0.133
REMARK  Name = 1550473
REMARK  2 active torsions:
REMARK  status: ('A' for Active; 'I' for Inactive)
REMARK    1  A    between atoms: N_1  and  C_4
REMARK    2  A    between atoms: C_4  and  C_5
REMARK                            x       y       z     vdW  Elec       q    Type
REMARK                         _______ _______ _______ _____ _____    ______ ____
ROOT
ATOM      1  N   UNL     1      -4.233  14.583  -4.414  0.00  0.00    -0.354 N 
ATOM      2  N   UNL     1      -2.917  12.678  -4.366  0.00  0.00    -0.372 N 
ATOM      3  N   UNL     1      -2.872  14.010  -6.233  0.00  0.00    -0.372 N 
ATOM      4  C   UNL     1      -3.349  13.770  -5.007  0.00  0.00    +0.166 C 
ATOM      5  H   UNL     1      -4.579  14.330  -3.495  0.00  0.00    +0.163 HD
ATOM      6  H   UNL     1      -2.248  12.048  -4.787  0.00  0.00    +0.159 HD
ATOM      7  H   UNL     1      -3.230  12.451  -3.429  0.00  0.00    +0.159 HD
ATOM      8  H   UNL     1      -3.162  14.815  -6.773  0.00  0.00    +0.159 HD
ATOM      9  H   UNL     1      -2.210  13.385  -6.676  0.00  0.00    +0.159 HD
ENDROOT
BRANCH   1  10
ATOM     10  C   UNL     1      -4.725  15.827  -5.004  0.00  0.00    +0.151 C 
BRANCH  10  11
ATOM     11  C   UNL     1      -4.982  16.823  -3.908  0.00  0.00    -0.028 A 
ATOM     12  C   UNL     1      -4.636  16.527  -2.581  0.00  0.00    +0.005 A 
ATOM     13  C   UNL     1      -5.565  18.068  -4.190  0.00  0.00    +0.005 A 
ATOM     14  C   UNL     1      -4.847  17.464  -1.567  0.00  0.00    +0.000 A 
ATOM     15  C   UNL     1      -5.775  19.001  -3.174  0.00  0.00    +0.000 A 
ATOM     16  C   UNL     1      -5.414  18.699  -1.863  0.00  0.00    +0.000 A 
ENDBRANCH  10  11
ENDBRANCH   1  10
TORSDOF 2
ENDMDL
MODEL 2
REMARK VINA RESULT:    -4.906     33.427     34.749
REMARK INTER + INTRA:          -5.612
REMARK INTER:                  -5.441
REMARK INTRA:                  -0.171
REMARK UNBOUND:                -0.133
REMARK  Name = 1550473
REMARK  2 active torsions:
REMARK  status: ('A' for Active; 'I' for Inactive)
REMARK    1  A    between atoms: N_1  and  C_4
REMARK    2  A    between atoms: C_4  and  C_5
REMARK                            x       y       z     vdW  Elec       q    Type
REMARK                         _______ _______ _______ _____ _____    ______ ____
ROOT
ATOM      1  N   UNL     1      11.548   6.500  23.038  0.00  0.00    -0.354 N 
ATOM      2  N   UNL     1       9.609   7.522  22.290  0.00  0.00    -0.372 N 
ATOM      3  N   UNL     1      11.244   8.814  23.249  0.00  0.00    -0.372 N 
ATOM      4  C   UNL     1      10.814   7.607  22.865  0.00  0.00    +0.166 C 
ATOM      5  H   UNL     1      11.153   5.611  22.753  0.00  0.00    +0.163 HD
ATOM      6  H   UNL     1       9.034   8.340  22.144  0.00  0.00    +0.159 HD
ATOM      7  H   UNL     1       9.236   6.638  21.965  0.00  0.00    +0.159 HD
ATOM      8  H   UNL     1      12.143   8.946  23.695  0.00  0.00    +0.159 HD
ATOM      9  H   UNL     1      10.678   9.644  23.122  0.00  0.00    +0.159 HD
ENDROOT
BRANCH   1  10
ATOM     10  C   UNL     1      12.896   6.492  23.604  0.00  0.00    +0.151 C 
BRANCH  10  11
ATOM     11  C   UNL     1      12.852   5.858  24.967  0.00  0.00    -0.028 A 
ATOM     12  C   UNL     1      12.439   6.599  26.084  0.00  0.00    +0.005 A 
ATOM     13  C   UNL     1      13.217   4.515  25.147  0.00  0.00    +0.005 A 
ATOM     14  C   UNL     1      12.370   6.001  27.345  0.00  0.00    +0.000 A 
ATOM     15  C   UNL     1      13.147   3.923  26.408  0.00  0.00    +0.000 A 
ATOM     16  C   UNL     1      12.721   4.665  27.506  0.00  0.00    +0.000 A 
ENDBRANCH  10  11
ENDBRANCH   1  10
TORSDOF 2
ENDMDL
MODEL 3
REMARK VINA RESULT:    -4.871      1.324      2.603
REMARK INTER + INTRA:          -5.574
REMARK INTER:                  -5.453
REMARK INTRA:                  -0.121
REMARK UNBOUND:                -0.133
REMARK  Name = 1550473
REMARK  2 active torsions:
REMARK  status: ('A' for Active; 'I' for Inactive)
REMARK    1  A    between atoms: N_1  and  C_4
REMARK    2  A    between atoms: C_4  and  C_5
REMARK                            x       y       z     vdW  Elec       q    Type
REMARK                         _______ _______ _______ _____ _____    ______ ____
ROOT
ATOM      1  N   UNL     1      -4.962  16.485  -4.406  0.00  0.00    -0.354 N 
ATOM      2  N   UNL     1      -4.972  15.391  -6.447  0.00  0.00    -0.372 N 
ATOM      3  N   UNL     1      -4.244  14.262  -4.587  0.00  0.00    -0.372 N 
ATOM      4  C   UNL     1      -4.725  15.384  -5.132  0.00  0.00    +0.166 C 
ATOM      5  H   UNL     1      -5.298  17.313  -4.884  0.00  0.00    +0.163 HD
ATOM      6  H   UNL     1      -4.806  14.574  -7.020  0.00  0.00    +0.159 HD
ATOM      7  H   UNL     1      -5.351  16.206  -6.914  0.00  0.00    +0.159 HD
ATOM      8  H   UNL     1      -4.031  14.194  -3.601  0.00  0.00    +0.159 HD
ATOM      9  H   UNL     1      -4.061  13.438  -5.146  0.00  0.00    +0.159 HD
ENDROOT
BRANCH   1  10
ATOM     10  C   UNL     1      -4.778  16.565  -2.958  0.00  0.00    +0.151 C 
BRANCH  10  11
ATOM     11  C   UNL     1      -5.215  17.923  -2.482  0.00  0.00    -0.028 A 
ATOM     12  C   UNL     1      -6.052  18.721  -3.275  0.00  0.00    +0.005 A 
ATOM     13  C   UNL     1      -4.800  18.415  -1.235  0.00  0.00    +0.005 A 
ATOM     14  C   UNL     1      -6.483  19.969  -2.820  0.00  0.00    +0.000 A 
ATOM     15  C   UNL     1      -5.231  19.663  -0.784  0.00  0.00    +0.000 A 
ATOM     16  C   UNL     1      -6.075  20.438  -1.576  0.00  0.00    +0.000 A 
ENDBRANCH  10  11
ENDBRANCH   1  10
TORSDOF 2
ENDMDL
MODEL 4
REMARK VINA RESULT:    -4.817     29.531     30.871
REMARK INTER + INTRA:          -5.513
REMARK INTER:                  -5.396
REMARK INTRA:                  -0.117
REMARK UNBOUND:                -0.133
REMARK  Name = 1550473
REMARK  2 active torsions:
REMARK  status: ('A' for Active; 'I' for Inactive)
REMARK    1  A    between atoms: N_1  and  C_4
REMARK    2  A    between atoms: C_4  and  C_5
REMARK                            x       y       z     vdW  Elec       q    Type
REMARK                         _______ _______ _______ _____ _____    ______ ____
ROOT
ATOM      1  N   UNL     1       1.929  -7.510  15.791  0.00  0.00    -0.354 N 
ATOM      2  N   UNL     1       3.925  -6.793  16.722  0.00  0.00    -0.372 N 
ATOM      3  N   UNL     1       2.255  -7.530  18.112  0.00  0.00    -0.372 N 
ATOM      4  C   UNL     1       2.689  -7.283  16.871  0.00  0.00    +0.166 C 
ATOM      5  H   UNL     1       2.305  -7.273  14.880  0.00  0.00    +0.163 HD
ATOM      6  H   UNL     1       4.523  -6.615  17.518  0.00  0.00    +0.159 HD
ATOM      7  H   UNL     1       4.315  -6.601  15.807  0.00  0.00    +0.159 HD
ATOM      8  H   UNL     1       1.329  -7.895  18.293  0.00  0.00    +0.159 HD
ATOM      9  H   UNL     1       2.834  -7.348  18.922  0.00  0.00    +0.159 HD
ENDROOT
BRANCH   1  10
ATOM     10  C   UNL     1       0.589  -8.091  15.841  0.00  0.00    +0.151 C 
BRANCH  10  11
ATOM     11  C   UNL     1      -0.082  -7.895  14.510  0.00  0.00    -0.028 A 
ATOM     12  C   UNL     1      -1.480  -7.825  14.420  0.00  0.00    +0.005 A 
ATOM     13  C   UNL     1       0.675  -7.774  13.334  0.00  0.00    +0.005 A 
ATOM     14  C   UNL     1      -2.102  -7.612  13.188  0.00  0.00    +0.000 A 
ATOM     15  C   UNL     1       0.050  -7.563  12.105  0.00  0.00    +0.000 A 
ATOM     16  C   UNL     1      -1.338  -7.480  12.033  0.00  0.00    +0.000 A 
ENDBRANCH  10  11
ENDBRANCH   1  10
TORSDOF 2
ENDMDL
MODEL 5
REMARK VINA RESULT:    -4.788      3.306      4.816
REMARK INTER + INTRA:          -5.481
REMARK INTER:                  -5.346
REMARK INTRA:                  -0.136
REMARK UNBOUND:                -0.133
REMARK  Name = 1550473
REMARK  2 active torsions:
REMARK  status: ('A' for Active; 'I' for Inactive)
REMARK    1  A    between atoms: N_1  and  C_4
REMARK    2  A    between atoms: C_4  and  C_5
REMARK                            x       y       z     vdW  Elec       q    Type
REMARK                         _______ _______ _______ _____ _____    ______ ____
ROOT
ATOM      1  N   UNL     1      -6.026  18.190  -2.484  0.00  0.00    -0.354 N 
ATOM      2  N   UNL     1      -7.512  19.002  -4.064  0.00  0.00    -0.372 N 
ATOM      3  N   UNL     1      -5.550  18.048  -4.775  0.00  0.00    -0.372 N 
ATOM      4  C   UNL     1      -6.351  18.407  -3.766  0.00  0.00    +0.166 C 
ATOM      5  H   UNL     1      -6.663  18.513  -1.765  0.00  0.00    +0.163 HD
ATOM      6  H   UNL     1      -7.786  19.176  -5.022  0.00  0.00    +0.159 HD
ATOM      7  H   UNL     1      -8.168  19.282  -3.345  0.00  0.00    +0.159 HD
ATOM      8  H   UNL     1      -4.657  17.601  -4.616  0.00  0.00    +0.159 HD
ATOM      9  H   UNL     1      -5.801  18.225  -5.739  0.00  0.00    +0.159 HD
ENDROOT
BRANCH   1  10
ATOM     10  C   UNL     1      -4.810  17.501  -2.055  0.00  0.00    +0.151 C 
BRANCH  10  11
ATOM     11  C   UNL     1      -4.280  18.169  -0.816  0.00  0.00    -0.028 A 
ATOM     12  C   UNL     1      -4.587  19.509  -0.542  0.00  0.00    +0.005 A 
ATOM     13  C   UNL     1      -3.474  17.463   0.092  0.00  0.00    +0.005 A 
ATOM     14  C   UNL     1      -4.120  20.121   0.624  0.00  0.00    +0.000 A 
ATOM     15  C   UNL     1      -3.009  18.078   1.254  0.00  0.00    +0.000 A 
ATOM     16  C   UNL     1      -3.334  19.405   1.521  0.00  0.00    +0.000 A 
ENDBRANCH  10  11
ENDBRANCH   1  10
TORSDOF 2
ENDMDL
MODEL 6
REMARK VINA RESULT:    -4.707     24.855     25.878
REMARK INTER + INTRA:          -5.391
REMARK INTER:                  -5.287
REMARK INTRA:                  -0.104
REMARK UNBOUND:                -0.133
REMARK  Name = 1550473
REMARK  2 active torsions:
REMARK  status: ('A' for Active; 'I' for Inactive)
REMARK    1  A    between atoms: N_1  and  C_4
REMARK    2  A    between atoms: C_4  and  C_5
REMARK                            x       y       z     vdW  Elec       q    Type
REMARK                         _______ _______ _______ _____ _____    ______ ____
ROOT
ATOM      1  N   UNL     1      11.374  12.714  15.179  0.00  0.00    -0.354 N 
ATOM      2  N   UNL     1      11.450  15.028  15.219  0.00  0.00    -0.372 N 
ATOM      3  N   UNL     1      10.513  13.918  16.995  0.00  0.00    -0.372 N 
ATOM      4  C   UNL     1      11.110  13.871  15.800  0.00  0.00    +0.166 C 
ATOM      5  H   UNL     1      11.802  12.747  14.261  0.00  0.00    +0.163 HD
ATOM      6  H   UNL     1      11.267  15.917  15.665  0.00  0.00    +0.159 HD
ATOM      7  H   UNL     1      11.919  15.057  14.322  0.00  0.00    +0.159 HD
ATOM      8  H   UNL     1      10.226  13.081  17.484  0.00  0.00    +0.159 HD
ATOM      9  H   UNL     1      10.310  14.799  17.452  0.00  0.00    +0.159 HD
ENDROOT
BRANCH   1  10
ATOM     10  C   UNL     1      11.093  11.397  15.749  0.00  0.00    +0.151 C 
BRANCH  10  11
ATOM     11  C   UNL     1      11.823  10.351  14.953  0.00  0.00    -0.028 A 
ATOM     12  C   UNL     1      12.603   9.380  15.598  0.00  0.00    +0.005 A 
ATOM     13  C   UNL     1      11.735  10.322  13.553  0.00  0.00    +0.005 A 
ATOM     14  C   UNL     1      13.257   8.390  14.861  0.00  0.00    +0.000 A 
ATOM     15  C   UNL     1      12.390   9.333  12.820  0.00  0.00    +0.000 A 
ATOM     16  C   UNL     1      13.149   8.365  13.475  0.00  0.00    +0.000 A 
ENDBRANCH  10  11
ENDBRANCH   1  10
TORSDOF 2
ENDMDL
MODEL 7
REMARK VINA RESULT:    -4.648      9.274     10.255
REMARK INTER + INTRA:          -5.324
REMARK INTER:                  -5.172
REMARK INTRA:                  -0.152
REMARK UNBOUND:                -0.133
REMARK  Name = 1550473
REMARK  2 active torsions:
REMARK  status: ('A' for Active; 'I' for Inactive)
REMARK    1  A    between atoms: N_1  and  C_4
REMARK    2  A    between atoms: C_4  and  C_5
REMARK                            x       y       z     vdW  Elec       q    Type
REMARK                         _______ _______ _______ _____ _____    ______ ____
ROOT
ATOM      1  N   UNL     1     -13.100  14.260   0.029  0.00  0.00    -0.354 N 
ATOM      2  N   UNL     1     -15.196  15.059   0.608  0.00  0.00    -0.372 N 
ATOM      3  N   UNL     1     -14.790  12.805   0.750  0.00  0.00    -0.372 N 
ATOM      4  C   UNL     1     -14.349  14.033   0.459  0.00  0.00    +0.166 C 
ATOM      5  H   UNL     1     -12.837  15.211  -0.203  0.00  0.00    +0.163 HD
ATOM      6  H   UNL     1     -16.143  14.919   0.934  0.00  0.00    +0.159 HD
ATOM      7  H   UNL     1     -14.915  16.014   0.419  0.00  0.00    +0.159 HD
ATOM      8  H   UNL     1     -14.202  11.988   0.653  0.00  0.00    +0.159 HD
ATOM      9  H   UNL     1     -15.738  12.643   1.066  0.00  0.00    +0.159 HD
ENDROOT
BRANCH   1  10
ATOM     10  C   UNL     1     -12.084  13.220  -0.116  0.00  0.00    +0.151 C 
BRANCH  10  11
ATOM     11  C   UNL     1     -11.143  13.286   1.056  0.00  0.00    -0.028 A 
ATOM     12  C   UNL     1     -10.926  14.498   1.727  0.00  0.00    +0.005 A 
ATOM     13  C   UNL     1     -10.470  12.138   1.503  0.00  0.00    +0.005 A 
ATOM     14  C   UNL     1     -10.075  14.553   2.834  0.00  0.00    +0.000 A 
ATOM     15  C   UNL     1      -9.621  12.198   2.608  0.00  0.00    +0.000 A 
ATOM     16  C   UNL     1      -9.426  13.405   3.275  0.00  0.00    +0.000 A 
ENDBRANCH  10  11
ENDBRANCH   1  10
TORSDOF 2
ENDMDL
MODEL 8
REMARK VINA RESULT:    -4.567     24.960     26.263
REMARK INTER + INTRA:          -5.234
REMARK INTER:                  -5.165
REMARK INTRA:                  -0.069
REMARK UNBOUND:                -0.133
REMARK  Name = 1550473
REMARK  2 active torsions:
REMARK  status: ('A' for Active; 'I' for Inactive)
REMARK    1  A    between atoms: N_1  and  C_4
REMARK    2  A    between atoms: C_4  and  C_5
REMARK                            x       y       z     vdW  Elec       q    Type
REMARK                         _______ _______ _______ _____ _____    ______ ____
ROOT
ATOM      1  N   UNL     1      10.619  13.451  16.946  0.00  0.00    -0.354 N 
ATOM      2  N   UNL     1       9.954  15.557  16.248  0.00  0.00    -0.372 N 
ATOM      3  N   UNL     1      12.152  15.220  16.815  0.00  0.00    -0.372 N 
ATOM      4  C   UNL     1      10.915  14.730  16.675  0.00  0.00    +0.166 C 
ATOM      5  H   UNL     1       9.657  13.149  16.848  0.00  0.00    +0.163 HD
ATOM      6  H   UNL     1      10.148  16.526  16.033  0.00  0.00    +0.159 HD
ATOM      7  H   UNL     1       9.002  15.241  16.108  0.00  0.00    +0.159 HD
ATOM      8  H   UNL     1      12.921  14.648  17.139  0.00  0.00    +0.159 HD
ATOM      9  H   UNL     1      12.363  16.189  16.616  0.00  0.00    +0.159 HD
ENDROOT
BRANCH   1  10
ATOM     10  C   UNL     1      11.604  12.455  17.365  0.00  0.00    +0.151 C 
BRANCH  10  11
ATOM     11  C   UNL     1      11.799  11.460  16.254  0.00  0.00    -0.028 A 
ATOM     12  C   UNL     1      11.539  11.819  14.923  0.00  0.00    +0.005 A 
ATOM     13  C   UNL     1      12.248  10.159  16.526  0.00  0.00    +0.005 A 
ATOM     14  C   UNL     1      11.749  10.905  13.888  0.00  0.00    +0.000 A 
ATOM     15  C   UNL     1      12.456   9.249  15.489  0.00  0.00    +0.000 A 
ATOM     16  C   UNL     1      12.208   9.623  14.171  0.00  0.00    +0.000 A 
ENDBRANCH  10  11
ENDBRANCH   1  10
TORSDOF 2
ENDMDL
MODEL 9
REMARK VINA RESULT:    -4.553     25.622     27.795
REMARK INTER + INTRA:          -5.218
REMARK INTER:                  -5.067
REMARK INTRA:                  -0.151
REMARK UNBOUND:                -0.133
REMARK  Name = 1550473
REMARK  2 active torsions:
REMARK  status: ('A' for Active; 'I' for Inactive)
REMARK    1  A    between atoms: N_1  and  C_4
REMARK    2  A    between atoms: C_4  and  C_5
REMARK                            x       y       z     vdW  Elec       q    Type
REMARK                         _______ _______ _______ _____ _____    ______ ____
ROOT
ATOM      1  N   UNL     1      -9.182  -5.200 -17.729  0.00  0.00    -0.354 N 
ATOM      2  N   UNL     1     -10.488  -5.576 -15.854  0.00  0.00    -0.372 N 
ATOM      3  N   UNL     1     -11.220  -4.083 -17.435  0.00  0.00    -0.372 N 
ATOM      4  C   UNL     1     -10.290  -4.949 -17.019  0.00  0.00    +0.166 C 
ATOM      5  H   UNL     1      -8.500  -5.845 -17.345  0.00  0.00    +0.163 HD
ATOM      6  H   UNL     1     -11.317  -5.409 -15.298  0.00  0.00    +0.159 HD
ATOM      7  H   UNL     1      -9.827  -6.254 -15.494  0.00  0.00    +0.159 HD
ATOM      8  H   UNL     1     -11.127  -3.572 -18.303  0.00  0.00    +0.159 HD
ATOM      9  H   UNL     1     -12.051  -3.894 -16.887  0.00  0.00    +0.159 HD
ENDROOT
BRANCH   1  10
ATOM     10  C   UNL     1      -8.896  -4.611 -19.036  0.00  0.00    +0.151 C 
BRANCH  10  11
ATOM     11  C   UNL     1      -8.933  -5.691 -20.081  0.00  0.00    -0.028 A 
ATOM     12  C   UNL     1      -8.186  -6.867 -19.916  0.00  0.00    +0.005 A 
ATOM     13  C   UNL     1      -9.717  -5.548 -21.236  0.00  0.00    +0.005 A 
ATOM     14  C   UNL     1      -8.244  -7.884 -20.872  0.00  0.00    +0.000 A 
ATOM     15  C   UNL     1      -9.771  -6.565 -22.188  0.00  0.00    +0.000 A 
ATOM     16  C   UNL     1      -9.036  -7.734 -22.005  0.00  0.00    +0.000 A 
ENDBRANCH  10  11
ENDBRANCH   1  10
TORSDOF 2
ENDMDL
