MODEL 1
REMARK VINA RESULT:    -5.240      0.000      0.000
REMARK INTER + INTRA:          -6.030
REMARK INTER:                  -5.853
REMARK INTRA:                  -0.177
REMARK UNBOUND:                -0.177
REMARK  Name = 1550473
REMARK  2 active torsions:
REMARK  status: ('A' for Active; 'I' for Inactive)
REMARK    1  A    between atoms: N_1  and  C_4
REMARK    2  A    between atoms: C_4  and  C_5
REMARK                            x       y       z     vdW  Elec       q    Type
REMARK                         _______ _______ _______ _____ _____    ______ ____
ROOT
ATOM      1  N   UNL     1      13.190  -2.783   8.485  0.00  0.00    -0.354 N 
ATOM      2  N   UNL     1      12.358  -4.884   8.995  0.00  0.00    -0.372 N 
ATOM      3  N   UNL     1      11.321  -3.645   7.365  0.00  0.00    -0.372 N 
ATOM      4  C   UNL     1      12.293  -3.756   8.276  0.00  0.00    +0.166 C 
ATOM      5  H   UNL     1      13.884  -2.916   9.212  0.00  0.00    +0.163 HD
ATOM      6  H   UNL     1      11.697  -5.637   8.857  0.00  0.00    +0.159 HD
ATOM      7  H   UNL     1      13.081  -5.033   9.688  0.00  0.00    +0.159 HD
ATOM      8  H   UNL     1      11.214  -2.817   6.794  0.00  0.00    +0.159 HD
ATOM      9  H   UNL     1      10.643  -4.383   7.221  0.00  0.00    +0.159 HD
ENDROOT
BRANCH   1  10
ATOM     10  C   UNL     1      13.240  -1.539   7.720  0.00  0.00    +0.151 C 
BRANCH  10  11
ATOM     11  C   UNL     1      12.741  -0.412   8.582  0.00  0.00    -0.028 A 
ATOM     12  C   UNL     1      11.426   0.058   8.448  0.00  0.00    +0.005 A 
ATOM     13  C   UNL     1      13.576   0.186   9.538  0.00  0.00    +0.005 A 
ATOM     14  C   UNL     1      10.953   1.085   9.268  0.00  0.00    +0.000 A 
ATOM     15  C   UNL     1      13.100   1.212  10.355  0.00  0.00    +0.000 A 
ATOM     16  C   UNL     1      11.788   1.659  10.221  0.00  0.00    +0.000 A 
ENDBRANCH  10  11
ENDBRANCH   1  10
TORSDOF 2
ENDMDL
MODEL 2
REMARK VINA RESULT:    -5.196     17.703     18.601
REMARK INTER + INTRA:          -5.980
REMARK INTER:                  -5.855
REMARK INTRA:                  -0.125
REMARK UNBOUND:                -0.177
REMARK  Name = 1550473
REMARK  2 active torsions:
REMARK  status: ('A' for Active; 'I' for Inactive)
REMARK    1  A    between atoms: N_1  and  C_4
REMARK    2  A    between atoms: C_4  and  C_5
REMARK                            x       y       z     vdW  Elec       q    Type
REMARK                         _______ _______ _______ _____ _____    ______ ____
ROOT
ATOM      1  N   UNL     1       6.295 -10.683  -4.759  0.00  0.00    -0.354 N 
ATOM      2  N   UNL     1       6.467  -9.099  -6.441  0.00  0.00    -0.372 N 
ATOM      3  N   UNL     1       8.362 -10.193  -5.749  0.00  0.00    -0.372 N 
ATOM      4  C   UNL     1       7.043 -10.003  -5.638  0.00  0.00    +0.166 C 
ATOM      5  H   UNL     1       5.305 -10.471  -4.704  0.00  0.00    +0.163 HD
ATOM      6  H   UNL     1       7.005  -8.574  -7.116  0.00  0.00    +0.159 HD
ATOM      7  H   UNL     1       5.470  -8.922  -6.415  0.00  0.00    +0.159 HD
ATOM      8  H   UNL     1       8.858 -10.856  -5.169  0.00  0.00    +0.159 HD
ATOM      9  H   UNL     1       8.919  -9.668  -6.411  0.00  0.00    +0.159 HD
ENDROOT
BRANCH   1  10
ATOM     10  C   UNL     1       6.815 -11.726  -3.878  0.00  0.00    +0.151 C 
BRANCH  10  11
ATOM     11  C   UNL     1       5.671 -12.569  -3.385  0.00  0.00    -0.028 A 
ATOM     12  C   UNL     1       5.832 -13.407  -2.272  0.00  0.00    +0.005 A 
ATOM     13  C   UNL     1       4.422 -12.528  -4.023  0.00  0.00    +0.005 A 
ATOM     14  C   UNL     1       4.761 -14.167  -1.796  0.00  0.00    +0.000 A 
ATOM     15  C   UNL     1       3.355 -13.290  -3.545  0.00  0.00    +0.000 A 
ATOM     16  C   UNL     1       3.525 -14.107  -2.430  0.00  0.00    +0.000 A 
ENDBRANCH  10  11
ENDBRANCH   1  10
TORSDOF 2
ENDMDL
MODEL 3
REMARK VINA RESULT:    -5.136     35.369     36.727
REMARK INTER + INTRA:          -5.914
REMARK INTER:                  -5.800
REMARK INTRA:                  -0.113
REMARK UNBOUND:                -0.177
REMARK  Name = 1550473
REMARK  2 active torsions:
REMARK  status: ('A' for Active; 'I' for Inactive)
REMARK    1  A    between atoms: N_1  and  C_4
REMARK    2  A    between atoms: C_4  and  C_5
REMARK                            x       y       z     vdW  Elec       q    Type
REMARK                         _______ _______ _______ _____ _____    ______ ____
ROOT
ATOM      1  N   UNL     1     -20.669  -8.079  -4.573  0.00  0.00    -0.354 N 
ATOM      2  N   UNL     1     -22.057  -6.400  -3.784  0.00  0.00    -0.372 N 
ATOM      3  N   UNL     1     -19.786  -6.166  -3.547  0.00  0.00    -0.372 N 
ATOM      4  C   UNL     1     -20.826  -6.892  -3.972  0.00  0.00    +0.166 C 
ATOM      5  H   UNL     1     -21.499  -8.594  -4.845  0.00  0.00    +0.163 HD
ATOM      6  H   UNL     1     -22.206  -5.506  -3.337  0.00  0.00    +0.159 HD
ATOM      7  H   UNL     1     -22.882  -6.896  -4.098  0.00  0.00    +0.159 HD
ATOM      8  H   UNL     1     -18.832  -6.483  -3.654  0.00  0.00    +0.159 HD
ATOM      9  H   UNL     1     -19.916  -5.273  -3.087  0.00  0.00    +0.159 HD
ENDROOT
BRANCH   1  10
ATOM     10  C   UNL     1     -19.370  -8.678  -4.874  0.00  0.00    +0.151 C 
BRANCH  10  11
ATOM     11  C   UNL     1     -19.584  -9.953  -5.642  0.00  0.00    -0.028 A 
ATOM     12  C   UNL     1     -18.670 -10.351  -6.629  0.00  0.00    +0.005 A 
ATOM     13  C   UNL     1     -20.695 -10.770  -5.384  0.00  0.00    +0.005 A 
ATOM     14  C   UNL     1     -18.852 -11.550  -7.322  0.00  0.00    +0.000 A 
ATOM     15  C   UNL     1     -20.873 -11.967  -6.079  0.00  0.00    +0.000 A 
ATOM     16  C   UNL     1     -19.950 -12.358  -7.046  0.00  0.00    +0.000 A 
ENDBRANCH  10  11
ENDBRANCH   1  10
TORSDOF 2
ENDMDL
MODEL 4
REMARK VINA RESULT:    -5.108      6.906     10.153
REMARK INTER + INTRA:          -5.882
REMARK INTER:                  -5.742
REMARK INTRA:                  -0.139
REMARK UNBOUND:                -0.177
REMARK  Name = 1550473
REMARK  2 active torsions:
REMARK  status: ('A' for Active; 'I' for Inactive)
REMARK    1  A    between atoms: N_1  and  C_4
REMARK    2  A    between atoms: C_4  and  C_5
REMARK                            x       y       z     vdW  Elec       q    Type
REMARK                         _______ _______ _______ _____ _____    ______ ____
ROOT
ATOM      1  N   UNL     1      12.267  -8.752   9.068  0.00  0.00    -0.354 N 
ATOM      2  N   UNL     1      12.058  -6.466   9.378  0.00  0.00    -0.372 N 
ATOM      3  N   UNL     1      10.457  -7.855  10.257  0.00  0.00    -0.372 N 
ATOM      4  C   UNL     1      11.593  -7.707   9.567  0.00  0.00    +0.166 C 
ATOM      5  H   UNL     1      13.105  -8.571   8.528  0.00  0.00    +0.163 HD
ATOM      6  H   UNL     1      11.574  -5.658   9.745  0.00  0.00    +0.159 HD
ATOM      7  H   UNL     1      12.921  -6.291   8.878  0.00  0.00    +0.159 HD
ATOM      8  H   UNL     1      10.050  -8.764  10.429  0.00  0.00    +0.159 HD
ATOM      9  H   UNL     1       9.951  -7.058  10.622  0.00  0.00    +0.159 HD
ENDROOT
BRANCH   1  10
ATOM     10  C   UNL     1      11.874 -10.146   9.263  0.00  0.00    +0.151 C 
BRANCH  10  11
ATOM     11  C   UNL     1      11.826 -10.835   7.927  0.00  0.00    -0.028 A 
ATOM     12  C   UNL     1      12.819 -11.757   7.565  0.00  0.00    +0.005 A 
ATOM     13  C   UNL     1      10.787 -10.574   7.021  0.00  0.00    +0.005 A 
ATOM     14  C   UNL     1      12.759 -12.419   6.337  0.00  0.00    +0.000 A 
ATOM     15  C   UNL     1      10.731 -11.236   5.795  0.00  0.00    +0.000 A 
ATOM     16  C   UNL     1      11.716 -12.160   5.454  0.00  0.00    +0.000 A 
ENDBRANCH  10  11
ENDBRANCH   1  10
TORSDOF 2
ENDMDL
MODEL 5
REMARK VINA RESULT:    -5.102      1.180      2.048
REMARK INTER + INTRA:          -5.875
REMARK INTER:                  -5.736
REMARK INTRA:                  -0.139
REMARK UNBOUND:                -0.177
REMARK  Name = 1550473
REMARK  2 active torsions:
REMARK  status: ('A' for Active; 'I' for Inactive)
REMARK    1  A    between atoms: N_1  and  C_4
REMARK    2  A    between atoms: C_4  and  C_5
REMARK                            x       y       z     vdW  Elec       q    Type
REMARK                         _______ _______ _______ _____ _____    ______ ____
ROOT
ATOM      1  N   UNL     1      12.194  -1.976   7.068  0.00  0.00    -0.354 N 
ATOM      2  N   UNL     1      11.039  -3.983   7.108  0.00  0.00    -0.372 N 
ATOM      3  N   UNL     1      12.835  -3.708   8.510  0.00  0.00    -0.372 N 
ATOM      4  C   UNL     1      12.032  -3.210   7.563  0.00  0.00    +0.166 C 
ATOM      5  H   UNL     1      11.571  -1.668   6.330  0.00  0.00    +0.163 HD
ATOM      6  H   UNL     1      10.891  -4.917   7.465  0.00  0.00    +0.159 HD
ATOM      7  H   UNL     1      10.390  -3.656   6.403  0.00  0.00    +0.159 HD
ATOM      8  H   UNL     1      13.606  -3.178   8.892  0.00  0.00    +0.159 HD
ATOM      9  H   UNL     1      12.709  -4.645   8.872  0.00  0.00    +0.159 HD
ENDROOT
BRANCH   1  10
ATOM     10  C   UNL     1      13.211  -1.034   7.534  0.00  0.00    +0.151 C 
BRANCH  10  11
ATOM     11  C   UNL     1      12.533   0.208   8.044  0.00  0.00    -0.028 A 
ATOM     12  C   UNL     1      12.977   0.829   9.221  0.00  0.00    +0.005 A 
ATOM     13  C   UNL     1      11.450   0.771   7.353  0.00  0.00    +0.005 A 
ATOM     14  C   UNL     1      12.367   1.999   9.679  0.00  0.00    +0.000 A 
ATOM     15  C   UNL     1      10.843   1.939   7.814  0.00  0.00    +0.000 A 
ATOM     16  C   UNL     1      11.304   2.554   8.976  0.00  0.00    +0.000 A 
ENDBRANCH  10  11
ENDBRANCH   1  10
TORSDOF 2
ENDMDL
MODEL 6
REMARK VINA RESULT:    -5.081     10.305     11.607
REMARK INTER + INTRA:          -5.852
REMARK INTER:                  -5.736
REMARK INTRA:                  -0.116
REMARK UNBOUND:                -0.177
REMARK  Name = 1550473
REMARK  2 active torsions:
REMARK  status: ('A' for Active; 'I' for Inactive)
REMARK    1  A    between atoms: N_1  and  C_4
REMARK    2  A    between atoms: C_4  and  C_5
REMARK                            x       y       z     vdW  Elec       q    Type
REMARK                         _______ _______ _______ _____ _____    ______ ____
ROOT
ATOM      1  N   UNL     1       3.369   4.994  12.184  0.00  0.00    -0.354 N 
ATOM      2  N   UNL     1       3.932   2.747  12.153  0.00  0.00    -0.372 N 
ATOM      3  N   UNL     1       4.613   4.086  10.417  0.00  0.00    -0.372 N 
ATOM      4  C   UNL     1       3.969   3.958  11.582  0.00  0.00    +0.166 C 
ATOM      5  H   UNL     1       2.872   4.825  13.051  0.00  0.00    +0.163 HD
ATOM      6  H   UNL     1       4.378   1.948  11.724  0.00  0.00    +0.159 HD
ATOM      7  H   UNL     1       3.474   2.591  13.042  0.00  0.00    +0.159 HD
ATOM      8  H   UNL     1       4.671   4.971   9.933  0.00  0.00    +0.159 HD
ATOM      9  H   UNL     1       5.055   3.295   9.967  0.00  0.00    +0.159 HD
ENDROOT
BRANCH   1  10
ATOM     10  C   UNL     1       3.397   6.363  11.674  0.00  0.00    +0.151 C 
BRANCH  10  11
ATOM     11  C   UNL     1       4.276   7.201  12.561  0.00  0.00    -0.028 A 
ATOM     12  C   UNL     1       4.556   8.535  12.231  0.00  0.00    +0.005 A 
ATOM     13  C   UNL     1       4.828   6.667  13.736  0.00  0.00    +0.005 A 
ATOM     14  C   UNL     1       5.349   9.322  13.070  0.00  0.00    +0.000 A 
ATOM     15  C   UNL     1       5.619   7.456  14.571  0.00  0.00    +0.000 A 
ATOM     16  C   UNL     1       5.878   8.784  14.239  0.00  0.00    +0.000 A 
ENDBRANCH  10  11
ENDBRANCH   1  10
TORSDOF 2
ENDMDL
MODEL 7
REMARK VINA RESULT:    -4.831      2.123      3.001
REMARK INTER + INTRA:          -5.572
REMARK INTER:                  -5.456
REMARK INTRA:                  -0.116
REMARK UNBOUND:                -0.177
REMARK  Name = 1550473
REMARK  2 active torsions:
REMARK  status: ('A' for Active; 'I' for Inactive)
REMARK    1  A    between atoms: N_1  and  C_4
REMARK    2  A    between atoms: C_4  and  C_5
REMARK                            x       y       z     vdW  Elec       q    Type
REMARK                         _______ _______ _______ _____ _____    ______ ____
ROOT
ATOM      1  N   UNL     1      12.609  -2.144   7.683  0.00  0.00    -0.354 N 
ATOM      2  N   UNL     1      11.161  -3.868   7.143  0.00  0.00    -0.372 N 
ATOM      3  N   UNL     1      12.949  -4.309   8.512  0.00  0.00    -0.372 N 
ATOM      4  C   UNL     1      12.251  -3.431   7.784  0.00  0.00    +0.166 C 
ATOM      5  H   UNL     1      12.056  -1.535   7.091  0.00  0.00    +0.163 HD
ATOM      6  H   UNL     1      10.864  -4.833   7.204  0.00  0.00    +0.159 HD
ATOM      7  H   UNL     1      10.583  -3.248   6.589  0.00  0.00    +0.159 HD
ATOM      8  H   UNL     1      13.785  -4.043   9.016  0.00  0.00    +0.159 HD
ATOM      9  H   UNL     1      12.674  -5.281   8.576  0.00  0.00    +0.159 HD
ENDROOT
BRANCH   1  10
ATOM     10  C   UNL     1      13.748  -1.554   8.385  0.00  0.00    +0.151 C 
BRANCH  10  11
ATOM     11  C   UNL     1      14.050  -0.208   7.787  0.00  0.00    -0.028 A 
ATOM     12  C   UNL     1      15.359   0.296   7.791  0.00  0.00    +0.005 A 
ATOM     13  C   UNL     1      13.032   0.567   7.209  0.00  0.00    +0.005 A 
ATOM     14  C   UNL     1      15.645   1.534   7.209  0.00  0.00    +0.000 A 
ATOM     15  C   UNL     1      13.322   1.802   6.630  0.00  0.00    +0.000 A 
ATOM     16  C   UNL     1      14.628   2.284   6.628  0.00  0.00    +0.000 A 
ENDBRANCH  10  11
ENDBRANCH   1  10
TORSDOF 2
ENDMDL
MODEL 8
REMARK VINA RESULT:    -4.747     24.885     26.225
REMARK INTER + INTRA:          -5.479
REMARK INTER:                  -5.368
REMARK INTRA:                  -0.111
REMARK UNBOUND:                -0.177
REMARK  Name = 1550473
REMARK  2 active torsions:
REMARK  status: ('A' for Active; 'I' for Inactive)
REMARK    1  A    between atoms: N_1  and  C_4
REMARK    2  A    between atoms: C_4  and  C_5
REMARK                            x       y       z     vdW  Elec       q    Type
REMARK                         _______ _______ _______ _____ _____    ______ ____
ROOT
ATOM      1  N   UNL     1      32.054  13.774  19.470  0.00  0.00    -0.354 N 
ATOM      2  N   UNL     1      33.911  13.516  18.110  0.00  0.00    -0.372 N 
ATOM      3  N   UNL     1      31.898  14.054  17.149  0.00  0.00    -0.372 N 
ATOM      4  C   UNL     1      32.607  13.783  18.250  0.00  0.00    +0.166 C 
ATOM      5  H   UNL     1      32.639  13.531  20.262  0.00  0.00    +0.163 HD
ATOM      6  H   UNL     1      34.357  13.520  17.202  0.00  0.00    +0.159 HD
ATOM      7  H   UNL     1      34.503  13.319  18.908  0.00  0.00    +0.159 HD
ATOM      8  H   UNL     1      30.908  14.258  17.186  0.00  0.00    +0.159 HD
ATOM      9  H   UNL     1      32.324  14.051  16.230  0.00  0.00    +0.159 HD
ENDROOT
BRANCH   1  10
ATOM     10  C   UNL     1      30.655  14.103  19.737  0.00  0.00    +0.151 C 
BRANCH  10  11
ATOM     11  C   UNL     1      30.126  13.178  20.797  0.00  0.00    -0.028 A 
ATOM     12  C   UNL     1      30.783  13.059  22.031  0.00  0.00    +0.005 A 
ATOM     13  C   UNL     1      28.964  12.422  20.577  0.00  0.00    +0.005 A 
ATOM     14  C   UNL     1      30.274  12.222  23.027  0.00  0.00    +0.000 A 
ATOM     15  C   UNL     1      28.461  11.587  21.574  0.00  0.00    +0.000 A 
ATOM     16  C   UNL     1      29.114  11.489  22.800  0.00  0.00    +0.000 A 
ENDBRANCH  10  11
ENDBRANCH   1  10
TORSDOF 2
ENDMDL
MODEL 9
REMARK VINA RESULT:    -4.712     35.662     36.580
REMARK INTER + INTRA:          -5.441
REMARK INTER:                  -5.277
REMARK INTRA:                  -0.164
REMARK UNBOUND:                -0.177
REMARK  Name = 1550473
REMARK  2 active torsions:
REMARK  status: ('A' for Active; 'I' for Inactive)
REMARK    1  A    between atoms: N_1  and  C_4
REMARK    2  A    between atoms: C_4  and  C_5
REMARK                            x       y       z     vdW  Elec       q    Type
REMARK                         _______ _______ _______ _____ _____    ______ ____
ROOT
ATOM      1  N   UNL     1     -20.224  -9.660  -2.781  0.00  0.00    -0.354 N 
ATOM      2  N   UNL     1     -19.894 -10.543  -0.666  0.00  0.00    -0.372 N 
ATOM      3  N   UNL     1     -21.910 -10.884  -1.708  0.00  0.00    -0.372 N 
ATOM      4  C   UNL     1     -20.681 -10.357  -1.732  0.00  0.00    +0.166 C 
ATOM      5  H   UNL     1     -19.294  -9.260  -2.725  0.00  0.00    +0.163 HD
ATOM      6  H   UNL     1     -20.210 -11.068   0.139  0.00  0.00    +0.159 HD
ATOM      7  H   UNL     1     -18.949 -10.182  -0.631  0.00  0.00    +0.159 HD
ATOM      8  H   UNL     1     -22.554 -10.775  -2.479  0.00  0.00    +0.159 HD
ATOM      9  H   UNL     1     -22.248 -11.403  -0.907  0.00  0.00    +0.159 HD
ENDROOT
BRANCH   1  10
ATOM     10  C   UNL     1     -20.981  -9.446  -4.013  0.00  0.00    +0.151 C 
BRANCH  10  11
ATOM     11  C   UNL     1     -20.320 -10.201  -5.133  0.00  0.00    -0.028 A 
ATOM     12  C   UNL     1     -20.807 -11.454  -5.532  0.00  0.00    +0.005 A 
ATOM     13  C   UNL     1     -19.209  -9.666  -5.803  0.00  0.00    +0.005 A 
ATOM     14  C   UNL     1     -20.212 -12.142  -6.592  0.00  0.00    +0.000 A 
ATOM     15  C   UNL     1     -18.617 -10.357  -6.861  0.00  0.00    +0.000 A 
ATOM     16  C   UNL     1     -19.121 -11.594  -7.256  0.00  0.00    +0.000 A 
ENDBRANCH  10  11
ENDBRANCH   1  10
TORSDOF 2
ENDMDL
