MODEL 1
REMARK VINA RESULT:    -5.474      0.000      0.000
REMARK INTER + INTRA:          -6.247
REMARK INTER:                  -6.114
REMARK INTRA:                  -0.133
REMARK UNBOUND:                -0.133
REMARK  Name = 1550473
REMARK  2 active torsions:
REMARK  status: ('A' for Active; 'I' for Inactive)
REMARK    1  A    between atoms: N_1  and  C_4
REMARK    2  A    between atoms: C_4  and  C_5
REMARK                            x       y       z     vdW  Elec       q    Type
REMARK                         _______ _______ _______ _____ _____    ______ ____
ROOT
ATOM      1  N   UNL     1       1.311  -7.418 -18.674  0.00  0.00    -0.354 N 
ATOM      2  N   UNL     1       2.891  -8.863 -19.557  0.00  0.00    -0.372 N 
ATOM      3  N   UNL     1       3.123  -6.609 -19.920  0.00  0.00    -0.372 N 
ATOM      4  C   UNL     1       2.432  -7.618 -19.379  0.00  0.00    +0.166 C 
ATOM      5  H   UNL     1       0.817  -8.227 -18.315  0.00  0.00    +0.163 HD
ATOM      6  H   UNL     1       3.736  -9.045 -20.082  0.00  0.00    +0.159 HD
ATOM      7  H   UNL     1       2.421  -9.666 -19.159  0.00  0.00    +0.159 HD
ATOM      8  H   UNL     1       2.827  -5.647 -19.827  0.00  0.00    +0.159 HD
ATOM      9  H   UNL     1       3.965  -6.772 -20.458  0.00  0.00    +0.159 HD
ENDROOT
BRANCH   1  10
ATOM     10  C   UNL     1       0.757  -6.099 -18.376  0.00  0.00    +0.151 C 
BRANCH  10  11
ATOM     11  C   UNL     1       0.856  -5.846 -16.897  0.00  0.00    -0.028 A 
ATOM     12  C   UNL     1       2.103  -5.861 -16.255  0.00  0.00    +0.005 A 
ATOM     13  C   UNL     1      -0.292  -5.586 -16.133  0.00  0.00    +0.005 A 
ATOM     14  C   UNL     1       2.199  -5.597 -14.886  0.00  0.00    +0.000 A 
ATOM     15  C   UNL     1      -0.192  -5.323 -14.767  0.00  0.00    +0.000 A 
ATOM     16  C   UNL     1       1.054  -5.326 -14.144  0.00  0.00    +0.000 A 
ENDBRANCH  10  11
ENDBRANCH   1  10
TORSDOF 2
ENDMDL
MODEL 2
REMARK VINA RESULT:    -5.470     14.292     15.240
REMARK INTER + INTRA:          -6.242
REMARK INTER:                  -6.065
REMARK INTRA:                  -0.178
REMARK UNBOUND:                -0.133
REMARK  Name = 1550473
REMARK  2 active torsions:
REMARK  status: ('A' for Active; 'I' for Inactive)
REMARK    1  A    between atoms: N_1  and  C_4
REMARK    2  A    between atoms: C_4  and  C_5
REMARK                            x       y       z     vdW  Elec       q    Type
REMARK                         _______ _______ _______ _____ _____    ______ ____
ROOT
ATOM      1  N   UNL     1      10.524   3.376 -13.223  0.00  0.00    -0.354 N 
ATOM      2  N   UNL     1      11.906   2.302 -14.740  0.00  0.00    -0.372 N 
ATOM      3  N   UNL     1      12.285   4.516 -14.268  0.00  0.00    -0.372 N 
ATOM      4  C   UNL     1      11.564   3.408 -14.067  0.00  0.00    +0.166 C 
ATOM      5  H   UNL     1       9.999   2.513 -13.139  0.00  0.00    +0.163 HD
ATOM      6  H   UNL     1      12.688   2.295 -15.381  0.00  0.00    +0.159 HD
ATOM      7  H   UNL     1      11.408   1.429 -14.619  0.00  0.00    +0.159 HD
ATOM      8  H   UNL     1      12.074   5.385 -13.795  0.00  0.00    +0.159 HD
ATOM      9  H   UNL     1      13.064   4.531 -14.914  0.00  0.00    +0.159 HD
ENDROOT
BRANCH   1  10
ATOM     10  C   UNL     1      10.102   4.510 -12.403  0.00  0.00    +0.151 C 
BRANCH  10  11
ATOM     11  C   UNL     1      10.590   4.306 -10.995  0.00  0.00    -0.028 A 
ATOM     12  C   UNL     1      11.831   4.820 -10.591  0.00  0.00    +0.005 A 
ATOM     13  C   UNL     1       9.814   3.606 -10.059  0.00  0.00    +0.005 A 
ATOM     14  C   UNL     1      12.272   4.657  -9.276  0.00  0.00    +0.000 A 
ATOM     15  C   UNL     1      10.258   3.445  -8.747  0.00  0.00    +0.000 A 
ATOM     16  C   UNL     1      11.486   3.973  -8.355  0.00  0.00    +0.000 A 
ENDBRANCH  10  11
ENDBRANCH   1  10
TORSDOF 2
ENDMDL
MODEL 3
REMARK VINA RESULT:    -5.453     20.141     21.568
REMARK INTER + INTRA:          -6.223
REMARK INTER:                  -6.099
REMARK INTRA:                  -0.123
REMARK UNBOUND:                -0.133
REMARK  Name = 1550473
REMARK  2 active torsions:
REMARK  status: ('A' for Active; 'I' for Inactive)
REMARK    1  A    between atoms: N_1  and  C_4
REMARK    2  A    between atoms: C_4  and  C_5
REMARK                            x       y       z     vdW  Elec       q    Type
REMARK                         _______ _______ _______ _____ _____    ______ ____
ROOT
ATOM      1  N   UNL     1      -6.977 -13.709  -0.517  0.00  0.00    -0.354 N 
ATOM      2  N   UNL     1      -5.944 -13.296  -2.548  0.00  0.00    -0.372 N 
ATOM      3  N   UNL     1      -6.870 -15.362  -2.174  0.00  0.00    -0.372 N 
ATOM      4  C   UNL     1      -6.605 -14.128  -1.733  0.00  0.00    +0.166 C 
ATOM      5  H   UNL     1      -6.719 -12.772  -0.230  0.00  0.00    +0.163 HD
ATOM      6  H   UNL     1      -5.653 -13.583  -3.473  0.00  0.00    +0.159 HD
ATOM      7  H   UNL     1      -5.728 -12.345  -2.277  0.00  0.00    +0.159 HD
ATOM      8  H   UNL     1      -7.360 -16.040  -1.606  0.00  0.00    +0.159 HD
ATOM      9  H   UNL     1      -6.577 -15.672  -3.092  0.00  0.00    +0.159 HD
ENDROOT
BRANCH   1  10
ATOM     10  C   UNL     1      -7.747 -14.518   0.427  0.00  0.00    +0.151 C 
BRANCH  10  11
ATOM     11  C   UNL     1      -7.860 -13.778   1.731  0.00  0.00    -0.028 A 
ATOM     12  C   UNL     1      -7.381 -12.465   1.848  0.00  0.00    +0.005 A 
ATOM     13  C   UNL     1      -8.451 -14.382   2.851  0.00  0.00    +0.005 A 
ATOM     14  C   UNL     1      -7.512 -11.767   3.051  0.00  0.00    +0.000 A 
ATOM     15  C   UNL     1      -8.580 -13.682   4.050  0.00  0.00    +0.000 A 
ATOM     16  C   UNL     1      -8.113 -12.373   4.149  0.00  0.00    +0.000 A 
ENDBRANCH  10  11
ENDBRANCH   1  10
TORSDOF 2
ENDMDL
MODEL 4
REMARK VINA RESULT:    -5.432     15.289     16.372
REMARK INTER + INTRA:          -6.199
REMARK INTER:                  -6.096
REMARK INTRA:                  -0.103
REMARK UNBOUND:                -0.133
REMARK  Name = 1550473
REMARK  2 active torsions:
REMARK  status: ('A' for Active; 'I' for Inactive)
REMARK    1  A    between atoms: N_1  and  C_4
REMARK    2  A    between atoms: C_4  and  C_5
REMARK                            x       y       z     vdW  Elec       q    Type
REMARK                         _______ _______ _______ _____ _____    ______ ____
ROOT
ATOM      1  N   UNL     1      15.712  -0.050 -21.367  0.00  0.00    -0.354 N 
ATOM      2  N   UNL     1      17.197  -1.805 -21.645  0.00  0.00    -0.372 N 
ATOM      3  N   UNL     1      15.078  -2.254 -20.888  0.00  0.00    -0.372 N 
ATOM      4  C   UNL     1      15.984  -1.359 -21.297  0.00  0.00    +0.166 C 
ATOM      5  H   UNL     1      16.451   0.581 -21.656  0.00  0.00    +0.163 HD
ATOM      6  H   UNL     1      17.430  -2.788 -21.606  0.00  0.00    +0.159 HD
ATOM      7  H   UNL     1      17.920  -1.178 -21.978  0.00  0.00    +0.159 HD
ATOM      8  H   UNL     1      14.146  -1.982 -20.606  0.00  0.00    +0.159 HD
ATOM      9  H   UNL     1      15.296  -3.241 -20.831  0.00  0.00    +0.159 HD
ENDROOT
BRANCH   1  10
ATOM     10  C   UNL     1      14.406   0.532 -21.062  0.00  0.00    +0.151 C 
BRANCH  10  11
ATOM     11  C   UNL     1      14.198   1.750 -21.920  0.00  0.00    -0.028 A 
ATOM     12  C   UNL     1      14.538   3.024 -21.442  0.00  0.00    +0.005 A 
ATOM     13  C   UNL     1      13.667   1.635 -23.214  0.00  0.00    +0.005 A 
ATOM     14  C   UNL     1      14.373   4.152 -22.250  0.00  0.00    +0.000 A 
ATOM     15  C   UNL     1      13.503   2.764 -24.017  0.00  0.00    +0.000 A 
ATOM     16  C   UNL     1      13.859   4.021 -23.535  0.00  0.00    +0.000 A 
ENDBRANCH  10  11
ENDBRANCH   1  10
TORSDOF 2
ENDMDL
MODEL 5
REMARK VINA RESULT:    -5.166     22.702     23.966
REMARK INTER + INTRA:          -5.903
REMARK INTER:                  -5.795
REMARK INTRA:                  -0.108
REMARK UNBOUND:                -0.133
REMARK  Name = 1550473
REMARK  2 active torsions:
REMARK  status: ('A' for Active; 'I' for Inactive)
REMARK    1  A    between atoms: N_1  and  C_4
REMARK    2  A    between atoms: C_4  and  C_5
REMARK                            x       y       z     vdW  Elec       q    Type
REMARK                         _______ _______ _______ _____ _____    ______ ____
ROOT
ATOM      1  N   UNL     1      19.720   2.049 -30.875  0.00  0.00    -0.354 N 
ATOM      2  N   UNL     1      21.947   2.418 -31.393  0.00  0.00    -0.372 N 
ATOM      3  N   UNL     1      20.511   1.780 -33.065  0.00  0.00    -0.372 N 
ATOM      4  C   UNL     1      20.711   2.079 -31.777  0.00  0.00    +0.166 C 
ATOM      5  H   UNL     1      19.943   2.257 -29.909  0.00  0.00    +0.163 HD
ATOM      6  H   UNL     1      22.714   2.452 -32.052  0.00  0.00    +0.159 HD
ATOM      7  H   UNL     1      22.158   2.670 -30.435  0.00  0.00    +0.159 HD
ATOM      8  H   UNL     1      19.602   1.511 -33.417  0.00  0.00    +0.159 HD
ATOM      9  H   UNL     1      21.268   1.798 -33.737  0.00  0.00    +0.159 HD
ENDROOT
BRANCH   1  10
ATOM     10  C   UNL     1      18.328   1.745 -31.200  0.00  0.00    +0.151 C 
BRANCH  10  11
ATOM     11  C   UNL     1      17.485   2.962 -30.936  0.00  0.00    -0.028 A 
ATOM     12  C   UNL     1      18.087   4.200 -30.666  0.00  0.00    +0.005 A 
ATOM     13  C   UNL     1      16.084   2.886 -30.960  0.00  0.00    +0.005 A 
ATOM     14  C   UNL     1      17.305   5.337 -30.450  0.00  0.00    +0.000 A 
ATOM     15  C   UNL     1      15.306   4.023 -30.743  0.00  0.00    +0.000 A 
ATOM     16  C   UNL     1      15.917   5.249 -30.491  0.00  0.00    +0.000 A 
ENDBRANCH  10  11
ENDBRANCH   1  10
TORSDOF 2
ENDMDL
MODEL 6
REMARK VINA RESULT:    -5.016      9.471     10.072
REMARK INTER + INTRA:          -5.736
REMARK INTER:                  -5.641
REMARK INTRA:                  -0.095
REMARK UNBOUND:                -0.133
REMARK  Name = 1550473
REMARK  2 active torsions:
REMARK  status: ('A' for Active; 'I' for Inactive)
REMARK    1  A    between atoms: N_1  and  C_4
REMARK    2  A    between atoms: C_4  and  C_5
REMARK                            x       y       z     vdW  Elec       q    Type
REMARK                         _______ _______ _______ _____ _____    ______ ____
ROOT
ATOM      1  N   UNL     1      -1.143 -14.240 -14.231  0.00  0.00    -0.354 N 
ATOM      2  N   UNL     1       1.035 -15.023 -14.320  0.00  0.00    -0.372 N 
ATOM      3  N   UNL     1       0.511 -13.371 -12.816  0.00  0.00    -0.372 N 
ATOM      4  C   UNL     1       0.120 -14.204 -13.786  0.00  0.00    +0.166 C 
ATOM      5  H   UNL     1      -1.369 -14.873 -14.990  0.00  0.00    +0.163 HD
ATOM      6  H   UNL     1       1.995 -15.022 -14.002  0.00  0.00    +0.159 HD
ATOM      7  H   UNL     1       0.796 -15.687 -15.046  0.00  0.00    +0.159 HD
ATOM      8  H   UNL     1      -0.129 -12.724 -12.376  0.00  0.00    +0.159 HD
ATOM      9  H   UNL     1       1.470 -13.346 -12.493  0.00  0.00    +0.159 HD
ENDROOT
BRANCH   1  10
ATOM     10  C   UNL     1      -2.227 -13.428 -13.681  0.00  0.00    +0.151 C 
BRANCH  10  11
ATOM     11  C   UNL     1      -3.544 -13.986 -14.145  0.00  0.00    -0.028 A 
ATOM     12  C   UNL     1      -4.124 -15.081 -13.487  0.00  0.00    +0.005 A 
ATOM     13  C   UNL     1      -4.218 -13.422 -15.238  0.00  0.00    +0.005 A 
ATOM     14  C   UNL     1      -5.362 -15.581 -13.899  0.00  0.00    +0.000 A 
ATOM     15  C   UNL     1      -5.454 -13.925 -15.647  0.00  0.00    +0.000 A 
ATOM     16  C   UNL     1      -6.026 -15.002 -14.976  0.00  0.00    +0.000 A 
ENDBRANCH  10  11
ENDBRANCH   1  10
TORSDOF 2
ENDMDL
MODEL 7
REMARK VINA RESULT:    -4.977     22.680     23.726
REMARK INTER + INTRA:          -5.692
REMARK INTER:                  -5.581
REMARK INTRA:                  -0.111
REMARK UNBOUND:                -0.133
REMARK  Name = 1550473
REMARK  2 active torsions:
REMARK  status: ('A' for Active; 'I' for Inactive)
REMARK    1  A    between atoms: N_1  and  C_4
REMARK    2  A    between atoms: C_4  and  C_5
REMARK                            x       y       z     vdW  Elec       q    Type
REMARK                         _______ _______ _______ _____ _____    ______ ____
ROOT
ATOM      1  N   UNL     1       9.015  -7.034 -40.081  0.00  0.00    -0.354 N 
ATOM      2  N   UNL     1       7.902  -9.016 -40.527  0.00  0.00    -0.372 N 
ATOM      3  N   UNL     1       7.982  -7.399 -42.153  0.00  0.00    -0.372 N 
ATOM      4  C   UNL     1       8.307  -7.802 -40.920  0.00  0.00    +0.166 C 
ATOM      5  H   UNL     1       9.203  -7.386 -39.149  0.00  0.00    +0.163 HD
ATOM      6  H   UNL     1       7.369  -9.619 -41.139  0.00  0.00    +0.159 HD
ATOM      7  H   UNL     1       8.130  -9.383 -39.611  0.00  0.00    +0.159 HD
ATOM      8  H   UNL     1       8.252  -6.491 -42.508  0.00  0.00    +0.159 HD
ATOM      9  H   UNL     1       7.439  -7.983 -42.776  0.00  0.00    +0.159 HD
ENDROOT
BRANCH   1  10
ATOM     10  C   UNL     1       9.549  -5.719 -40.430  0.00  0.00    +0.151 C 
BRANCH  10  11
ATOM     11  C   UNL     1      10.119  -5.077 -39.195  0.00  0.00    -0.028 A 
ATOM     12  C   UNL     1       9.954  -3.703 -38.967  0.00  0.00    +0.005 A 
ATOM     13  C   UNL     1      10.819  -5.838 -38.246  0.00  0.00    +0.005 A 
ATOM     14  C   UNL     1      10.457  -3.111 -37.805  0.00  0.00    +0.000 A 
ATOM     15  C   UNL     1      11.320  -5.244 -37.088  0.00  0.00    +0.000 A 
ATOM     16  C   UNL     1      11.136  -3.881 -36.867  0.00  0.00    +0.000 A 
ENDBRANCH  10  11
ENDBRANCH   1  10
TORSDOF 2
ENDMDL
MODEL 8
REMARK VINA RESULT:    -4.973     13.838     14.915
REMARK INTER + INTRA:          -5.687
REMARK INTER:                  -5.510
REMARK INTRA:                  -0.178
REMARK UNBOUND:                -0.133
REMARK  Name = 1550473
REMARK  2 active torsions:
REMARK  status: ('A' for Active; 'I' for Inactive)
REMARK    1  A    between atoms: N_1  and  C_4
REMARK    2  A    between atoms: C_4  and  C_5
REMARK                            x       y       z     vdW  Elec       q    Type
REMARK                         _______ _______ _______ _____ _____    ______ ____
ROOT
ATOM      1  N   UNL     1      10.132   4.821 -13.835  0.00  0.00    -0.354 N 
ATOM      2  N   UNL     1      11.485   3.811 -15.420  0.00  0.00    -0.372 N 
ATOM      3  N   UNL     1      12.446   5.193 -13.861  0.00  0.00    -0.372 N 
ATOM      4  C   UNL     1      11.347   4.617 -14.360  0.00  0.00    +0.166 C 
ATOM      5  H   UNL     1       9.335   4.379 -14.278  0.00  0.00    +0.163 HD
ATOM      6  H   UNL     1      12.390   3.635 -15.836  0.00  0.00    +0.159 HD
ATOM      7  H   UNL     1      10.693   3.334 -15.833  0.00  0.00    +0.159 HD
ATOM      8  H   UNL     1      12.409   5.817 -13.066  0.00  0.00    +0.159 HD
ATOM      9  H   UNL     1      13.359   5.039 -14.270  0.00  0.00    +0.159 HD
ENDROOT
BRANCH   1  10
ATOM     10  C   UNL     1       9.881   5.638 -12.648  0.00  0.00    +0.151 C 
BRANCH  10  11
ATOM     11  C   UNL     1       9.800   4.741 -11.444  0.00  0.00    -0.028 A 
ATOM     12  C   UNL     1      10.598   4.989 -10.317  0.00  0.00    +0.005 A 
ATOM     13  C   UNL     1       8.923   3.646 -11.420  0.00  0.00    +0.005 A 
ATOM     14  C   UNL     1      10.501   4.174  -9.186  0.00  0.00    +0.000 A 
ATOM     15  C   UNL     1       8.830   2.835 -10.290  0.00  0.00    +0.000 A 
ATOM     16  C   UNL     1       9.617   3.100  -9.172  0.00  0.00    +0.000 A 
ENDBRANCH  10  11
ENDBRANCH   1  10
TORSDOF 2
ENDMDL
MODEL 9
REMARK VINA RESULT:    -4.904     14.925     16.009
REMARK INTER + INTRA:          -5.610
REMARK INTER:                  -5.460
REMARK INTRA:                  -0.150
REMARK UNBOUND:                -0.133
REMARK  Name = 1550473
REMARK  2 active torsions:
REMARK  status: ('A' for Active; 'I' for Inactive)
REMARK    1  A    between atoms: N_1  and  C_4
REMARK    2  A    between atoms: C_4  and  C_5
REMARK                            x       y       z     vdW  Elec       q    Type
REMARK                         _______ _______ _______ _____ _____    ______ ____
ROOT
ATOM      1  N   UNL     1       9.424   3.970 -10.236  0.00  0.00    -0.354 N 
ATOM      2  N   UNL     1       9.509   2.275  -8.660  0.00  0.00    -0.372 N 
ATOM      3  N   UNL     1      10.546   4.270  -8.201  0.00  0.00    -0.372 N 
ATOM      4  C   UNL     1       9.828   3.518  -9.042  0.00  0.00    +0.166 C 
ATOM      5  H   UNL     1       8.908   3.340 -10.840  0.00  0.00    +0.163 HD
ATOM      6  H   UNL     1       9.797   1.908  -7.763  0.00  0.00    +0.159 HD
ATOM      7  H   UNL     1       8.954   1.664  -9.246  0.00  0.00    +0.159 HD
ATOM      8  H   UNL     1      10.825   5.214  -8.432  0.00  0.00    +0.159 HD
ATOM      9  H   UNL     1      10.854   3.916  -7.304  0.00  0.00    +0.159 HD
ENDROOT
BRANCH   1  10
ATOM     10  C   UNL     1       9.672   5.326 -10.724  0.00  0.00    +0.151 C 
BRANCH  10  11
ATOM     11  C   UNL     1      10.493   5.253 -11.982  0.00  0.00    -0.028 A 
ATOM     12  C   UNL     1      11.141   6.394 -12.477  0.00  0.00    +0.005 A 
ATOM     13  C   UNL     1      10.633   4.043 -12.680  0.00  0.00    +0.005 A 
ATOM     14  C   UNL     1      11.928   6.320 -13.628  0.00  0.00    +0.000 A 
ATOM     15  C   UNL     1      11.419   3.974 -13.830  0.00  0.00    +0.000 A 
ATOM     16  C   UNL     1      12.068   5.112 -14.302  0.00  0.00    +0.000 A 
ENDBRANCH  10  11
ENDBRANCH   1  10
TORSDOF 2
ENDMDL
