MODEL 1
REMARK VINA RESULT:    -5.069      0.000      0.000
REMARK INTER + INTRA:          -5.777
REMARK INTER:                  -5.662
REMARK INTRA:                  -0.115
REMARK UNBOUND:                -0.115
REMARK  Name = 1550473
REMARK  2 active torsions:
REMARK  status: ('A' for Active; 'I' for Inactive)
REMARK    1  A    between atoms: N_1  and  C_4
REMARK    2  A    between atoms: C_4  and  C_5
REMARK                            x       y       z     vdW  Elec       q    Type
REMARK                         _______ _______ _______ _____ _____    ______ ____
ROOT
ATOM      1  N   UNL     1      -4.631   7.711  10.914  0.00  0.00    -0.354 N 
ATOM      2  N   UNL     1      -3.691   8.335   8.891  0.00  0.00    -0.372 N 
ATOM      3  N   UNL     1      -3.141   6.295   9.787  0.00  0.00    -0.372 N 
ATOM      4  C   UNL     1      -3.826   7.441   9.877  0.00  0.00    +0.166 C 
ATOM      5  H   UNL     1      -5.098   8.610  10.938  0.00  0.00    +0.163 HD
ATOM      6  H   UNL     1      -3.093   8.158   8.095  0.00  0.00    +0.159 HD
ATOM      7  H   UNL     1      -4.195   9.213   8.895  0.00  0.00    +0.159 HD
ATOM      8  H   UNL     1      -3.195   5.581  10.501  0.00  0.00    +0.159 HD
ATOM      9  H   UNL     1      -2.529   6.104   9.003  0.00  0.00    +0.159 HD
ENDROOT
BRANCH   1  10
ATOM     10  C   UNL     1      -4.889   6.782  12.012  0.00  0.00    +0.151 C 
BRANCH  10  11
ATOM     11  C   UNL     1      -5.839   7.424  12.985  0.00  0.00    -0.028 A 
ATOM     12  C   UNL     1      -6.750   6.643  13.711  0.00  0.00    +0.005 A 
ATOM     13  C   UNL     1      -5.829   8.812  13.190  0.00  0.00    +0.005 A 
ATOM     14  C   UNL     1      -7.613   7.235  14.637  0.00  0.00    +0.000 A 
ATOM     15  C   UNL     1      -6.692   9.400  14.115  0.00  0.00    +0.000 A 
ATOM     16  C   UNL     1      -7.582   8.611  14.840  0.00  0.00    +0.000 A 
ENDBRANCH  10  11
ENDBRANCH   1  10
TORSDOF 2
ENDMDL
MODEL 2
REMARK VINA RESULT:    -4.759      1.697      2.487
REMARK INTER + INTRA:          -5.430
REMARK INTER:                  -5.336
REMARK INTRA:                  -0.094
REMARK UNBOUND:                -0.115
REMARK  Name = 1550473
REMARK  2 active torsions:
REMARK  status: ('A' for Active; 'I' for Inactive)
REMARK    1  A    between atoms: N_1  and  C_4
REMARK    2  A    between atoms: C_4  and  C_5
REMARK                            x       y       z     vdW  Elec       q    Type
REMARK                         _______ _______ _______ _____ _____    ______ ____
ROOT
ATOM      1  N   UNL     1      -2.626   6.090  10.672  0.00  0.00    -0.354 N 
ATOM      2  N   UNL     1      -0.367   5.709  10.327  0.00  0.00    -0.372 N 
ATOM      3  N   UNL     1      -1.876   4.882   8.809  0.00  0.00    -0.372 N 
ATOM      4  C   UNL     1      -1.639   5.562   9.936  0.00  0.00    +0.166 C 
ATOM      5  H   UNL     1      -2.382   6.567  11.532  0.00  0.00    +0.163 HD
ATOM      6  H   UNL     1       0.398   5.325   9.790  0.00  0.00    +0.159 HD
ATOM      7  H   UNL     1      -0.123   6.227  11.163  0.00  0.00    +0.159 HD
ATOM      8  H   UNL     1      -2.814   4.730   8.463  0.00  0.00    +0.159 HD
ATOM      9  H   UNL     1      -1.124   4.480   8.264  0.00  0.00    +0.159 HD
ENDROOT
BRANCH   1  10
ATOM     10  C   UNL     1      -4.040   6.032  10.307  0.00  0.00    +0.151 C 
BRANCH  10  11
ATOM     11  C   UNL     1      -4.862   6.590  11.435  0.00  0.00    -0.028 A 
ATOM     12  C   UNL     1      -5.662   5.745  12.218  0.00  0.00    +0.005 A 
ATOM     13  C   UNL     1      -4.842   7.962  11.730  0.00  0.00    +0.005 A 
ATOM     14  C   UNL     1      -6.403   6.259  13.286  0.00  0.00    +0.000 A 
ATOM     15  C   UNL     1      -5.583   8.471  12.795  0.00  0.00    +0.000 A 
ATOM     16  C   UNL     1      -6.362   7.619  13.575  0.00  0.00    +0.000 A 
ENDBRANCH  10  11
ENDBRANCH   1  10
TORSDOF 2
ENDMDL
MODEL 3
REMARK VINA RESULT:    -4.743     29.013     30.018
REMARK INTER + INTRA:          -5.412
REMARK INTER:                  -5.290
REMARK INTRA:                  -0.123
REMARK UNBOUND:                -0.115
REMARK  Name = 1550473
REMARK  2 active torsions:
REMARK  status: ('A' for Active; 'I' for Inactive)
REMARK    1  A    between atoms: N_1  and  C_4
REMARK    2  A    between atoms: C_4  and  C_5
REMARK                            x       y       z     vdW  Elec       q    Type
REMARK                         _______ _______ _______ _____ _____    ______ ____
ROOT
ATOM      1  N   UNL     1       3.804  12.702  38.563  0.00  0.00    -0.354 N 
ATOM      2  N   UNL     1       2.646  12.595  36.560  0.00  0.00    -0.372 N 
ATOM      3  N   UNL     1       4.690  11.564  36.715  0.00  0.00    -0.372 N 
ATOM      4  C   UNL     1       3.723  12.286  37.292  0.00  0.00    +0.166 C 
ATOM      5  H   UNL     1       3.052  13.272  38.931  0.00  0.00    +0.163 HD
ATOM      6  H   UNL     1       2.555  12.293  35.599  0.00  0.00    +0.159 HD
ATOM      7  H   UNL     1       1.875  13.126  36.945  0.00  0.00    +0.159 HD
ATOM      8  H   UNL     1       5.531  11.302  37.212  0.00  0.00    +0.159 HD
ATOM      9  H   UNL     1       4.623  11.261  35.752  0.00  0.00    +0.159 HD
ENDROOT
BRANCH   1  10
ATOM     10  C   UNL     1       4.910  12.374  39.461  0.00  0.00    +0.151 C 
BRANCH  10  11
ATOM     11  C   UNL     1       4.735  13.129  40.750  0.00  0.00    -0.028 A 
ATOM     12  C   UNL     1       5.747  13.124  41.721  0.00  0.00    +0.005 A 
ATOM     13  C   UNL     1       3.562  13.855  41.005  0.00  0.00    +0.005 A 
ATOM     14  C   UNL     1       5.598  13.849  42.906  0.00  0.00    +0.000 A 
ATOM     15  C   UNL     1       3.416  14.578  42.189  0.00  0.00    +0.000 A 
ATOM     16  C   UNL     1       4.436  14.576  43.138  0.00  0.00    +0.000 A 
ENDBRANCH  10  11
ENDBRANCH   1  10
TORSDOF 2
ENDMDL
MODEL 4
REMARK VINA RESULT:    -4.708     28.100     29.103
REMARK INTER + INTRA:          -5.373
REMARK INTER:                  -5.266
REMARK INTRA:                  -0.107
REMARK UNBOUND:                -0.115
REMARK  Name = 1550473
REMARK  2 active torsions:
REMARK  status: ('A' for Active; 'I' for Inactive)
REMARK    1  A    between atoms: N_1  and  C_4
REMARK    2  A    between atoms: C_4  and  C_5
REMARK                            x       y       z     vdW  Elec       q    Type
REMARK                         _______ _______ _______ _____ _____    ______ ____
ROOT
ATOM      1  N   UNL     1       3.488  13.170  37.805  0.00  0.00    -0.354 N 
ATOM      2  N   UNL     1       1.898  13.942  36.308  0.00  0.00    -0.372 N 
ATOM      3  N   UNL     1       2.755  11.832  36.026  0.00  0.00    -0.372 N 
ATOM      4  C   UNL     1       2.725  12.974  36.722  0.00  0.00    +0.166 C 
ATOM      5  H   UNL     1       3.441  14.069  38.271  0.00  0.00    +0.163 HD
ATOM      6  H   UNL     1       1.308  13.822  35.496  0.00  0.00    +0.159 HD
ATOM      7  H   UNL     1       1.820  14.823  36.802  0.00  0.00    +0.159 HD
ATOM      8  H   UNL     1       3.361  11.065  36.283  0.00  0.00    +0.159 HD
ATOM      9  H   UNL     1       2.180  11.697  35.204  0.00  0.00    +0.159 HD
ENDROOT
BRANCH   1  10
ATOM     10  C   UNL     1       4.381  12.160  38.370  0.00  0.00    +0.151 C 
BRANCH  10  11
ATOM     11  C   UNL     1       4.301  12.217  39.871  0.00  0.00    -0.028 A 
ATOM     12  C   UNL     1       3.789  11.132  40.598  0.00  0.00    +0.005 A 
ATOM     13  C   UNL     1       4.740  13.350  40.572  0.00  0.00    +0.005 A 
ATOM     14  C   UNL     1       3.742  11.172  41.993  0.00  0.00    +0.000 A 
ATOM     15  C   UNL     1       4.691  13.387  41.965  0.00  0.00    +0.000 A 
ATOM     16  C   UNL     1       4.194  12.297  42.676  0.00  0.00    +0.000 A 
ENDBRANCH  10  11
ENDBRANCH   1  10
TORSDOF 2
ENDMDL
MODEL 5
REMARK VINA RESULT:    -4.669     28.557     29.617
REMARK INTER + INTRA:          -5.330
REMARK INTER:                  -5.151
REMARK INTRA:                  -0.178
REMARK UNBOUND:                -0.115
REMARK  Name = 1550473
REMARK  2 active torsions:
REMARK  status: ('A' for Active; 'I' for Inactive)
REMARK    1  A    between atoms: N_1  and  C_4
REMARK    2  A    between atoms: C_4  and  C_5
REMARK                            x       y       z     vdW  Elec       q    Type
REMARK                         _______ _______ _______ _____ _____    ______ ____
ROOT
ATOM      1  N   UNL     1       3.809  12.742  38.505  0.00  0.00    -0.354 N 
ATOM      2  N   UNL     1       2.816  12.037  36.535  0.00  0.00    -0.372 N 
ATOM      3  N   UNL     1       4.116  10.559  37.713  0.00  0.00    -0.372 N 
ATOM      4  C   UNL     1       3.588  11.782  37.598  0.00  0.00    +0.166 C 
ATOM      5  H   UNL     1       3.404  13.658  38.345  0.00  0.00    +0.163 HD
ATOM      6  H   UNL     1       2.629  11.331  35.835  0.00  0.00    +0.159 HD
ATOM      7  H   UNL     1       2.376  12.940  36.401  0.00  0.00    +0.159 HD
ATOM      8  H   UNL     1       4.713  10.303  38.488  0.00  0.00    +0.159 HD
ATOM      9  H   UNL     1       3.950   9.842  37.017  0.00  0.00    +0.159 HD
ENDROOT
BRANCH   1  10
ATOM     10  C   UNL     1       4.590  12.551  39.725  0.00  0.00    +0.151 C 
BRANCH  10  11
ATOM     11  C   UNL     1       3.652  12.364  40.885  0.00  0.00    -0.028 A 
ATOM     12  C   UNL     1       3.171  13.472  41.598  0.00  0.00    +0.005 A 
ATOM     13  C   UNL     1       3.235  11.081  41.273  0.00  0.00    +0.005 A 
ATOM     14  C   UNL     1       2.276  13.301  42.657  0.00  0.00    +0.000 A 
ATOM     15  C   UNL     1       2.341  10.914  42.331  0.00  0.00    +0.000 A 
ATOM     16  C   UNL     1       1.860  12.024  43.021  0.00  0.00    +0.000 A 
ENDBRANCH  10  11
ENDBRANCH   1  10
TORSDOF 2
ENDMDL
MODEL 6
REMARK VINA RESULT:    -4.472     38.915     40.592
REMARK INTER + INTRA:          -5.110
REMARK INTER:                  -5.000
REMARK INTRA:                  -0.110
REMARK UNBOUND:                -0.115
REMARK  Name = 1550473
REMARK  2 active torsions:
REMARK  status: ('A' for Active; 'I' for Inactive)
REMARK    1  A    between atoms: N_1  and  C_4
REMARK    2  A    between atoms: C_4  and  C_5
REMARK                            x       y       z     vdW  Elec       q    Type
REMARK                         _______ _______ _______ _____ _____    ______ ____
ROOT
ATOM      1  N   UNL     1     -20.099 -10.049 -22.170  0.00  0.00    -0.354 N 
ATOM      2  N   UNL     1     -22.033  -8.952 -22.819  0.00  0.00    -0.372 N 
ATOM      3  N   UNL     1     -20.801 -10.061 -24.405  0.00  0.00    -0.372 N 
ATOM      4  C   UNL     1     -20.964  -9.695 -23.130  0.00  0.00    +0.166 C 
ATOM      5  H   UNL     1     -20.263  -9.714 -21.227  0.00  0.00    +0.163 HD
ATOM      6  H   UNL     1     -22.704  -8.673 -23.521  0.00  0.00    +0.159 HD
ATOM      7  H   UNL     1     -22.218  -8.657 -21.868  0.00  0.00    +0.159 HD
ATOM      8  H   UNL     1     -20.012 -10.618 -24.706  0.00  0.00    +0.159 HD
ATOM      9  H   UNL     1     -21.456  -9.782 -25.125  0.00  0.00    +0.159 HD
ENDROOT
BRANCH   1  10
ATOM     10  C   UNL     1     -18.933 -10.902 -22.393  0.00  0.00    +0.151 C 
BRANCH  10  11
ATOM     11  C   UNL     1     -17.954 -10.700 -21.270  0.00  0.00    -0.028 A 
ATOM     12  C   UNL     1     -17.439  -9.425 -20.995  0.00  0.00    +0.005 A 
ATOM     13  C   UNL     1     -17.542 -11.779 -20.473  0.00  0.00    +0.005 A 
ATOM     14  C   UNL     1     -16.552  -9.231 -19.933  0.00  0.00    +0.000 A 
ATOM     15  C   UNL     1     -16.656 -11.582 -19.413  0.00  0.00    +0.000 A 
ATOM     16  C   UNL     1     -16.164 -10.307 -19.142  0.00  0.00    +0.000 A 
ENDBRANCH  10  11
ENDBRANCH   1  10
TORSDOF 2
ENDMDL
MODEL 7
REMARK VINA RESULT:    -4.430     28.089     29.007
REMARK INTER + INTRA:          -5.062
REMARK INTER:                  -4.972
REMARK INTRA:                  -0.091
REMARK UNBOUND:                -0.115
REMARK  Name = 1550473
REMARK  2 active torsions:
REMARK  status: ('A' for Active; 'I' for Inactive)
REMARK    1  A    between atoms: N_1  and  C_4
REMARK    2  A    between atoms: C_4  and  C_5
REMARK                            x       y       z     vdW  Elec       q    Type
REMARK                         _______ _______ _______ _____ _____    ______ ____
ROOT
ATOM      1  N   UNL     1       4.373  12.721  37.638  0.00  0.00    -0.354 N 
ATOM      2  N   UNL     1       2.537  13.991  37.020  0.00  0.00    -0.372 N 
ATOM      3  N   UNL     1       2.752  11.869  36.175  0.00  0.00    -0.372 N 
ATOM      4  C   UNL     1       3.232  12.850  36.947  0.00  0.00    +0.166 C 
ATOM      5  H   UNL     1       4.698  13.513  38.181  0.00  0.00    +0.163 HD
ATOM      6  H   UNL     1       1.671  14.116  36.513  0.00  0.00    +0.159 HD
ATOM      7  H   UNL     1       2.841  14.764  37.599  0.00  0.00    +0.159 HD
ATOM      8  H   UNL     1       3.232  10.985  36.072  0.00  0.00    +0.159 HD
ATOM      9  H   UNL     1       1.894  11.979  35.650  0.00  0.00    +0.159 HD
ENDROOT
BRANCH   1  10
ATOM     10  C   UNL     1       5.177  11.501  37.669  0.00  0.00    +0.151 C 
BRANCH  10  11
ATOM     11  C   UNL     1       6.363  11.717  38.568  0.00  0.00    -0.028 A 
ATOM     12  C   UNL     1       6.249  11.531  39.954  0.00  0.00    +0.005 A 
ATOM     13  C   UNL     1       7.604  12.102  38.040  0.00  0.00    +0.005 A 
ATOM     14  C   UNL     1       7.358  11.702  40.786  0.00  0.00    +0.000 A 
ATOM     15  C   UNL     1       8.709  12.273  38.875  0.00  0.00    +0.000 A 
ATOM     16  C   UNL     1       8.586  12.071  40.247  0.00  0.00    +0.000 A 
ENDBRANCH  10  11
ENDBRANCH   1  10
TORSDOF 2
ENDMDL
MODEL 8
REMARK VINA RESULT:    -4.384     28.635     29.570
REMARK INTER + INTRA:          -5.012
REMARK INTER:                  -4.888
REMARK INTRA:                  -0.124
REMARK UNBOUND:                -0.115
REMARK  Name = 1550473
REMARK  2 active torsions:
REMARK  status: ('A' for Active; 'I' for Inactive)
REMARK    1  A    between atoms: N_1  and  C_4
REMARK    2  A    between atoms: C_4  and  C_5
REMARK                            x       y       z     vdW  Elec       q    Type
REMARK                         _______ _______ _______ _____ _____    ______ ____
ROOT
ATOM      1  N   UNL     1       4.104  13.257  39.933  0.00  0.00    -0.354 N 
ATOM      2  N   UNL     1       3.712  15.340  40.865  0.00  0.00    -0.372 N 
ATOM      3  N   UNL     1       2.431  13.561  41.545  0.00  0.00    -0.372 N 
ATOM      4  C   UNL     1       3.416  14.038  40.776  0.00  0.00    +0.166 C 
ATOM      5  H   UNL     1       4.819  13.684  39.355  0.00  0.00    +0.163 HD
ATOM      6  H   UNL     1       3.212  15.953  41.495  0.00  0.00    +0.159 HD
ATOM      7  H   UNL     1       4.457  15.756  40.320  0.00  0.00    +0.159 HD
ATOM      8  H   UNL     1       2.155  12.589  41.521  0.00  0.00    +0.159 HD
ATOM      9  H   UNL     1       1.911  14.162  42.173  0.00  0.00    +0.159 HD
ENDROOT
BRANCH   1  10
ATOM     10  C   UNL     1       3.897  11.816  39.800  0.00  0.00    +0.151 C 
BRANCH  10  11
ATOM     11  C   UNL     1       4.927  11.256  38.857  0.00  0.00    -0.028 A 
ATOM     12  C   UNL     1       5.909  12.089  38.300  0.00  0.00    +0.005 A 
ATOM     13  C   UNL     1       4.931   9.894  38.523  0.00  0.00    +0.005 A 
ATOM     14  C   UNL     1       6.884  11.565  37.449  0.00  0.00    +0.000 A 
ATOM     15  C   UNL     1       5.906   9.374  37.671  0.00  0.00    +0.000 A 
ATOM     16  C   UNL     1       6.884  10.209  37.137  0.00  0.00    +0.000 A 
ENDBRANCH  10  11
ENDBRANCH   1  10
TORSDOF 2
ENDMDL
MODEL 9
REMARK VINA RESULT:    -4.305     29.306     30.872
REMARK INTER + INTRA:          -4.923
REMARK INTER:                  -4.742
REMARK INTRA:                  -0.181
REMARK UNBOUND:                -0.115
REMARK  Name = 1550473
REMARK  2 active torsions:
REMARK  status: ('A' for Active; 'I' for Inactive)
REMARK    1  A    between atoms: N_1  and  C_4
REMARK    2  A    between atoms: C_4  and  C_5
REMARK                            x       y       z     vdW  Elec       q    Type
REMARK                         _______ _______ _______ _____ _____    ______ ____
ROOT
ATOM      1  N   UNL     1      -7.105  13.444  41.442  0.00  0.00    -0.354 N 
ATOM      2  N   UNL     1      -5.785  14.957  40.286  0.00  0.00    -0.372 N 
ATOM      3  N   UNL     1      -5.456  12.712  39.946  0.00  0.00    -0.372 N 
ATOM      4  C   UNL     1      -6.122  13.692  40.565  0.00  0.00    +0.166 C 
ATOM      5  H   UNL     1      -7.551  14.231  41.899  0.00  0.00    +0.163 HD
ATOM      6  H   UNL     1      -5.050  15.175  39.627  0.00  0.00    +0.159 HD
ATOM      7  H   UNL     1      -6.264  15.742  40.711  0.00  0.00    +0.159 HD
ATOM      8  H   UNL     1      -5.658  11.736  40.117  0.00  0.00    +0.159 HD
ATOM      9  H   UNL     1      -4.709  12.910  39.291  0.00  0.00    +0.159 HD
ENDROOT
BRANCH   1  10
ATOM     10  C   UNL     1      -7.585  12.104  41.774  0.00  0.00    +0.151 C 
BRANCH  10  11
ATOM     11  C   UNL     1      -6.961  11.666  43.070  0.00  0.00    -0.028 A 
ATOM     12  C   UNL     1      -5.987  10.656  43.086  0.00  0.00    +0.005 A 
ATOM     13  C   UNL     1      -7.334  12.261  44.285  0.00  0.00    +0.005 A 
ATOM     14  C   UNL     1      -5.386  10.270  44.286  0.00  0.00    +0.000 A 
ATOM     15  C   UNL     1      -6.731  11.871  45.481  0.00  0.00    +0.000 A 
ATOM     16  C   UNL     1      -5.755  10.878  45.481  0.00  0.00    +0.000 A 
ENDBRANCH  10  11
ENDBRANCH   1  10
TORSDOF 2
ENDMDL
