MODEL 1
REMARK VINA RESULT:    -6.042      0.000      0.000
REMARK INTER + INTRA:          -6.857
REMARK INTER:                  -6.749
REMARK INTRA:                  -0.109
REMARK UNBOUND:                -0.109
REMARK  Name = 1550473
REMARK  2 active torsions:
REMARK  status: ('A' for Active; 'I' for Inactive)
REMARK    1  A    between atoms: N_1  and  C_4
REMARK    2  A    between atoms: C_4  and  C_5
REMARK                            x       y       z     vdW  Elec       q    Type
REMARK                         _______ _______ _______ _____ _____    ______ ____
ROOT
ATOM      1  N   UNL     1       1.899  -6.287  -3.871  0.00  0.00    -0.354 N 
ATOM      2  N   UNL     1       2.028  -8.586  -3.621  0.00  0.00    -0.372 N 
ATOM      3  N   UNL     1      -0.020  -7.565  -3.451  0.00  0.00    -0.372 N 
ATOM      4  C   UNL     1       1.299  -7.464  -3.649  0.00  0.00    +0.166 C 
ATOM      5  H   UNL     1       2.906  -6.274  -3.984  0.00  0.00    +0.163 HD
ATOM      6  H   UNL     1       1.602  -9.489  -3.459  0.00  0.00    +0.159 HD
ATOM      7  H   UNL     1       3.028  -8.575  -3.780  0.00  0.00    +0.159 HD
ATOM      8  H   UNL     1      -0.626  -6.756  -3.453  0.00  0.00    +0.159 HD
ATOM      9  H   UNL     1      -0.463  -8.459  -3.275  0.00  0.00    +0.159 HD
ENDROOT
BRANCH   1  10
ATOM     10  C   UNL     1       1.188  -5.014  -3.974  0.00  0.00    +0.151 C 
BRANCH  10  11
ATOM     11  C   UNL     1       2.149  -3.951  -4.432  0.00  0.00    -0.028 A 
ATOM     12  C   UNL     1       2.236  -2.728  -3.750  0.00  0.00    +0.005 A 
ATOM     13  C   UNL     1       2.979  -4.163  -5.543  0.00  0.00    +0.005 A 
ATOM     14  C   UNL     1       3.149  -1.753  -4.156  0.00  0.00    +0.000 A 
ATOM     15  C   UNL     1       3.889  -3.186  -5.946  0.00  0.00    +0.000 A 
ATOM     16  C   UNL     1       3.976  -1.982  -5.251  0.00  0.00    +0.000 A 
ENDBRANCH  10  11
ENDBRANCH   1  10
TORSDOF 2
ENDMDL
MODEL 2
REMARK VINA RESULT:    -5.882      2.835      4.874
REMARK INTER + INTRA:          -6.679
REMARK INTER:                  -6.568
REMARK INTRA:                  -0.111
REMARK UNBOUND:                -0.109
REMARK  Name = 1550473
REMARK  2 active torsions:
REMARK  status: ('A' for Active; 'I' for Inactive)
REMARK    1  A    between atoms: N_1  and  C_4
REMARK    2  A    between atoms: C_4  and  C_5
REMARK                            x       y       z     vdW  Elec       q    Type
REMARK                         _______ _______ _______ _____ _____    ______ ____
ROOT
ATOM      1  N   UNL     1       2.925  -3.018  -3.502  0.00  0.00    -0.354 N 
ATOM      2  N   UNL     1       2.510  -1.237  -2.080  0.00  0.00    -0.372 N 
ATOM      3  N   UNL     1       2.049  -1.002  -4.315  0.00  0.00    -0.372 N 
ATOM      4  C   UNL     1       2.497  -1.763  -3.311  0.00  0.00    +0.166 C 
ATOM      5  H   UNL     1       3.281  -3.532  -2.704  0.00  0.00    +0.163 HD
ATOM      6  H   UNL     1       2.190  -0.294  -1.904  0.00  0.00    +0.159 HD
ATOM      7  H   UNL     1       2.823  -1.769  -1.277  0.00  0.00    +0.159 HD
ATOM      8  H   UNL     1       2.019  -1.338  -5.269  0.00  0.00    +0.159 HD
ATOM      9  H   UNL     1       1.735  -0.052  -4.161  0.00  0.00    +0.159 HD
ENDROOT
BRANCH   1  10
ATOM     10  C   UNL     1       2.902  -3.702  -4.793  0.00  0.00    +0.151 C 
BRANCH  10  11
ATOM     11  C   UNL     1       2.825  -5.186  -4.561  0.00  0.00    -0.028 A 
ATOM     12  C   UNL     1       1.714  -5.750  -3.917  0.00  0.00    +0.005 A 
ATOM     13  C   UNL     1       3.858  -6.035  -4.989  0.00  0.00    +0.005 A 
ATOM     14  C   UNL     1       1.629  -7.131  -3.728  0.00  0.00    +0.000 A 
ATOM     15  C   UNL     1       3.769  -7.413  -4.798  0.00  0.00    +0.000 A 
ATOM     16  C   UNL     1       2.653  -7.961  -4.170  0.00  0.00    +0.000 A 
ENDBRANCH  10  11
ENDBRANCH   1  10
TORSDOF 2
ENDMDL
MODEL 3
REMARK VINA RESULT:    -5.651      1.099      2.063
REMARK INTER + INTRA:          -6.421
REMARK INTER:                  -6.299
REMARK INTRA:                  -0.121
REMARK UNBOUND:                -0.109
REMARK  Name = 1550473
REMARK  2 active torsions:
REMARK  status: ('A' for Active; 'I' for Inactive)
REMARK    1  A    between atoms: N_1  and  C_4
REMARK    2  A    between atoms: C_4  and  C_5
REMARK                            x       y       z     vdW  Elec       q    Type
REMARK                         _______ _______ _______ _____ _____    ______ ____
ROOT
ATOM      1  N   UNL     1       1.801  -5.763  -4.031  0.00  0.00    -0.354 N 
ATOM      2  N   UNL     1       0.753  -7.732  -3.407  0.00  0.00    -0.372 N 
ATOM      3  N   UNL     1       2.782  -7.845  -4.473  0.00  0.00    -0.372 N 
ATOM      4  C   UNL     1       1.788  -7.102  -3.976  0.00  0.00    +0.166 C 
ATOM      5  H   UNL     1       1.003  -5.258  -3.663  0.00  0.00    +0.163 HD
ATOM      6  H   UNL     1       0.717  -8.741  -3.347  0.00  0.00    +0.159 HD
ATOM      7  H   UNL     1      -0.021  -7.223  -2.999  0.00  0.00    +0.159 HD
ATOM      8  H   UNL     1       3.589  -7.430  -4.921  0.00  0.00    +0.159 HD
ATOM      9  H   UNL     1       2.759  -8.856  -4.434  0.00  0.00    +0.159 HD
ENDROOT
BRANCH   1  10
ATOM     10  C   UNL     1       2.905  -4.978  -4.581  0.00  0.00    +0.151 C 
BRANCH  10  11
ATOM     11  C   UNL     1       2.646  -3.519  -4.325  0.00  0.00    -0.028 A 
ATOM     12  C   UNL     1       3.659  -2.570  -4.526  0.00  0.00    +0.005 A 
ATOM     13  C   UNL     1       1.388  -3.079  -3.886  0.00  0.00    +0.005 A 
ATOM     14  C   UNL     1       3.410  -1.212  -4.316  0.00  0.00    +0.000 A 
ATOM     15  C   UNL     1       1.143  -1.721  -3.677  0.00  0.00    +0.000 A 
ATOM     16  C   UNL     1       2.154  -0.788  -3.895  0.00  0.00    +0.000 A 
ENDBRANCH  10  11
ENDBRANCH   1  10
TORSDOF 2
ENDMDL
MODEL 4
REMARK VINA RESULT:    -5.453      3.162      5.220
REMARK INTER + INTRA:          -6.199
REMARK INTER:                  -6.030
REMARK INTRA:                  -0.169
REMARK UNBOUND:                -0.109
REMARK  Name = 1550473
REMARK  2 active torsions:
REMARK  status: ('A' for Active; 'I' for Inactive)
REMARK    1  A    between atoms: N_1  and  C_4
REMARK    2  A    between atoms: C_4  and  C_5
REMARK                            x       y       z     vdW  Elec       q    Type
REMARK                         _______ _______ _______ _____ _____    ______ ____
ROOT
ATOM      1  N   UNL     1       3.951  -4.326  -6.413  0.00  0.00    -0.354 N 
ATOM      2  N   UNL     1       2.925  -2.844  -7.868  0.00  0.00    -0.372 N 
ATOM      3  N   UNL     1       3.000  -2.331  -5.633  0.00  0.00    -0.372 N 
ATOM      4  C   UNL     1       3.298  -3.176  -6.626  0.00  0.00    +0.166 C 
ATOM      5  H   UNL     1       4.120  -4.937  -7.204  0.00  0.00    +0.163 HD
ATOM      6  H   UNL     1       2.434  -1.981  -8.060  0.00  0.00    +0.159 HD
ATOM      7  H   UNL     1       3.136  -3.435  -8.663  0.00  0.00    +0.159 HD
ATOM      8  H   UNL     1       3.249  -2.525  -4.672  0.00  0.00    +0.159 HD
ATOM      9  H   UNL     1       2.499  -1.468  -5.803  0.00  0.00    +0.159 HD
ENDROOT
BRANCH   1  10
ATOM     10  C   UNL     1       4.449  -4.754  -5.107  0.00  0.00    +0.151 C 
BRANCH  10  11
ATOM     11  C   UNL     1       3.670  -5.959  -4.656  0.00  0.00    -0.028 A 
ATOM     12  C   UNL     1       4.220  -7.244  -4.764  0.00  0.00    +0.005 A 
ATOM     13  C   UNL     1       2.383  -5.820  -4.113  0.00  0.00    +0.005 A 
ATOM     14  C   UNL     1       3.509  -8.360  -4.317  0.00  0.00    +0.000 A 
ATOM     15  C   UNL     1       1.676  -6.938  -3.669  0.00  0.00    +0.000 A 
ATOM     16  C   UNL     1       2.240  -8.207  -3.768  0.00  0.00    +0.000 A 
ENDBRANCH  10  11
ENDBRANCH   1  10
TORSDOF 2
ENDMDL
MODEL 5
REMARK VINA RESULT:    -5.367      3.969      6.346
REMARK INTER + INTRA:          -6.103
REMARK INTER:                  -5.940
REMARK INTRA:                  -0.163
REMARK UNBOUND:                -0.109
REMARK  Name = 1550473
REMARK  2 active torsions:
REMARK  status: ('A' for Active; 'I' for Inactive)
REMARK    1  A    between atoms: N_1  and  C_4
REMARK    2  A    between atoms: C_4  and  C_5
REMARK                            x       y       z     vdW  Elec       q    Type
REMARK                         _______ _______ _______ _____ _____    ______ ____
ROOT
ATOM      1  N   UNL     1       2.017  -8.733  -3.276  0.00  0.00    -0.354 N 
ATOM      2  N   UNL     1       0.065  -7.527  -3.585  0.00  0.00    -0.372 N 
ATOM      3  N   UNL     1       2.078  -6.435  -3.732  0.00  0.00    -0.372 N 
ATOM      4  C   UNL     1       1.401  -7.571  -3.529  0.00  0.00    +0.166 C 
ATOM      5  H   UNL     1       1.447  -9.552  -3.101  0.00  0.00    +0.163 HD
ATOM      6  H   UNL     1      -0.428  -6.665  -3.778  0.00  0.00    +0.159 HD
ATOM      7  H   UNL     1      -0.502  -8.356  -3.456  0.00  0.00    +0.159 HD
ATOM      8  H   UNL     1       3.088  -6.400  -3.698  0.00  0.00    +0.159 HD
ATOM      9  H   UNL     1       1.602  -5.560  -3.915  0.00  0.00    +0.159 HD
ENDROOT
BRANCH   1  10
ATOM     10  C   UNL     1       3.469  -8.899  -3.247  0.00  0.00    +0.151 C 
BRANCH  10  11
ATOM     11  C   UNL     1       3.907  -9.150  -1.830  0.00  0.00    -0.028 A 
ATOM     12  C   UNL     1       4.302 -10.433  -1.423  0.00  0.00    +0.005 A 
ATOM     13  C   UNL     1       3.934  -8.108  -0.891  0.00  0.00    +0.005 A 
ATOM     14  C   UNL     1       4.737 -10.660  -0.115  0.00  0.00    +0.000 A 
ATOM     15  C   UNL     1       4.368  -8.339   0.415  0.00  0.00    +0.000 A 
ATOM     16  C   UNL     1       4.771  -9.614   0.801  0.00  0.00    +0.000 A 
ENDBRANCH  10  11
ENDBRANCH   1  10
TORSDOF 2
ENDMDL
MODEL 6
REMARK VINA RESULT:    -5.319      3.335      4.940
REMARK INTER + INTRA:          -6.049
REMARK INTER:                  -5.930
REMARK INTRA:                  -0.119
REMARK UNBOUND:                -0.109
REMARK  Name = 1550473
REMARK  2 active torsions:
REMARK  status: ('A' for Active; 'I' for Inactive)
REMARK    1  A    between atoms: N_1  and  C_4
REMARK    2  A    between atoms: C_4  and  C_5
REMARK                            x       y       z     vdW  Elec       q    Type
REMARK                         _______ _______ _______ _____ _____    ______ ____
ROOT
ATOM      1  N   UNL     1       5.891  -6.066  -4.084  0.00  0.00    -0.354 N 
ATOM      2  N   UNL     1       7.859  -7.273  -4.268  0.00  0.00    -0.372 N 
ATOM      3  N   UNL     1       6.848  -6.503  -6.178  0.00  0.00    -0.372 N 
ATOM      4  C   UNL     1       6.853  -6.606  -4.845  0.00  0.00    +0.166 C 
ATOM      5  H   UNL     1       5.936  -6.205  -3.081  0.00  0.00    +0.163 HD
ATOM      6  H   UNL     1       8.601  -7.689  -4.816  0.00  0.00    +0.159 HD
ATOM      7  H   UNL     1       7.926  -7.372  -3.262  0.00  0.00    +0.159 HD
ATOM      8  H   UNL     1       6.113  -6.017  -6.675  0.00  0.00    +0.159 HD
ATOM      9  H   UNL     1       7.575  -6.922  -6.744  0.00  0.00    +0.159 HD
ENDROOT
BRANCH   1  10
ATOM     10  C   UNL     1       4.781  -5.274  -4.609  0.00  0.00    +0.151 C 
BRANCH  10  11
ATOM     11  C   UNL     1       3.487  -5.971  -4.291  0.00  0.00    -0.028 A 
ATOM     12  C   UNL     1       2.333  -5.231  -3.994  0.00  0.00    +0.005 A 
ATOM     13  C   UNL     1       3.406  -7.372  -4.291  0.00  0.00    +0.005 A 
ATOM     14  C   UNL     1       1.124  -5.877  -3.728  0.00  0.00    +0.000 A 
ATOM     15  C   UNL     1       2.197  -8.014  -4.024  0.00  0.00    +0.000 A 
ATOM     16  C   UNL     1       1.055  -7.266  -3.745  0.00  0.00    +0.000 A 
ENDBRANCH  10  11
ENDBRANCH   1  10
TORSDOF 2
ENDMDL
MODEL 7
REMARK VINA RESULT:    -5.227      1.807      2.415
REMARK INTER + INTRA:          -5.947
REMARK INTER:                  -5.795
REMARK INTRA:                  -0.152
REMARK UNBOUND:                -0.109
REMARK  Name = 1550473
REMARK  2 active torsions:
REMARK  status: ('A' for Active; 'I' for Inactive)
REMARK    1  A    between atoms: N_1  and  C_4
REMARK    2  A    between atoms: C_4  and  C_5
REMARK                            x       y       z     vdW  Elec       q    Type
REMARK                         _______ _______ _______ _____ _____    ______ ____
ROOT
ATOM      1  N   UNL     1       2.627  -3.680  -2.669  0.00  0.00    -0.354 N 
ATOM      2  N   UNL     1       2.941  -5.744  -1.668  0.00  0.00    -0.372 N 
ATOM      3  N   UNL     1       1.283  -5.514  -3.236  0.00  0.00    -0.372 N 
ATOM      4  C   UNL     1       2.279  -4.966  -2.533  0.00  0.00    +0.166 C 
ATOM      5  H   UNL     1       3.371  -3.317  -2.084  0.00  0.00    +0.163 HD
ATOM      6  H   UNL     1       2.704  -6.719  -1.546  0.00  0.00    +0.159 HD
ATOM      7  H   UNL     1       3.715  -5.391  -1.118  0.00  0.00    +0.159 HD
ATOM      8  H   UNL     1       0.740  -4.979  -3.901  0.00  0.00    +0.159 HD
ATOM      9  H   UNL     1       1.023  -6.485  -3.120  0.00  0.00    +0.159 HD
ENDROOT
BRANCH   1  10
ATOM     10  C   UNL     1       2.005  -2.761  -3.621  0.00  0.00    +0.151 C 
BRANCH  10  11
ATOM     11  C   UNL     1       2.788  -2.780  -4.905  0.00  0.00    -0.028 A 
ATOM     12  C   UNL     1       3.999  -2.081  -5.011  0.00  0.00    +0.005 A 
ATOM     13  C   UNL     1       2.327  -3.500  -6.018  0.00  0.00    +0.005 A 
ATOM     14  C   UNL     1       4.742  -2.123  -6.193  0.00  0.00    +0.000 A 
ATOM     15  C   UNL     1       3.071  -3.539  -7.197  0.00  0.00    +0.000 A 
ATOM     16  C   UNL     1       4.279  -2.853  -7.283  0.00  0.00    +0.000 A 
ENDBRANCH  10  11
ENDBRANCH   1  10
TORSDOF 2
ENDMDL
MODEL 8
REMARK VINA RESULT:    -5.162      2.273      2.877
REMARK INTER + INTRA:          -5.874
REMARK INTER:                  -5.699
REMARK INTRA:                  -0.175
REMARK UNBOUND:                -0.109
REMARK  Name = 1550473
REMARK  2 active torsions:
REMARK  status: ('A' for Active; 'I' for Inactive)
REMARK    1  A    between atoms: N_1  and  C_4
REMARK    2  A    between atoms: C_4  and  C_5
REMARK                            x       y       z     vdW  Elec       q    Type
REMARK                         _______ _______ _______ _____ _____    ______ ____
ROOT
ATOM      1  N   UNL     1       3.678  -5.999  -3.272  0.00  0.00    -0.354 N 
ATOM      2  N   UNL     1       5.364  -6.716  -1.856  0.00  0.00    -0.372 N 
ATOM      3  N   UNL     1       5.913  -6.036  -3.977  0.00  0.00    -0.372 N 
ATOM      4  C   UNL     1       4.976  -6.245  -3.047  0.00  0.00    +0.166 C 
ATOM      5  H   UNL     1       3.014  -6.207  -2.536  0.00  0.00    +0.163 HD
ATOM      6  H   UNL     1       6.337  -6.908  -1.655  0.00  0.00    +0.159 HD
ATOM      7  H   UNL     1       4.703  -6.880  -1.106  0.00  0.00    +0.159 HD
ATOM      8  H   UNL     1       5.685  -5.687  -4.898  0.00  0.00    +0.159 HD
ATOM      9  H   UNL     1       6.890  -6.233  -3.799  0.00  0.00    +0.159 HD
ENDROOT
BRANCH   1  10
ATOM     10  C   UNL     1       3.158  -5.434  -4.516  0.00  0.00    +0.151 C 
BRANCH  10  11
ATOM     11  C   UNL     1       3.057  -3.941  -4.373  0.00  0.00    -0.028 A 
ATOM     12  C   UNL     1       2.074  -3.369  -3.552  0.00  0.00    +0.005 A 
ATOM     13  C   UNL     1       3.944  -3.092  -5.052  0.00  0.00    +0.005 A 
ATOM     14  C   UNL     1       1.998  -1.983  -3.395  0.00  0.00    +0.000 A 
ATOM     15  C   UNL     1       3.865  -1.708  -4.893  0.00  0.00    +0.000 A 
ATOM     16  C   UNL     1       2.894  -1.154  -4.063  0.00  0.00    +0.000 A 
ENDBRANCH  10  11
ENDBRANCH   1  10
TORSDOF 2
ENDMDL
MODEL 9
REMARK VINA RESULT:    -5.086      3.232      5.818
REMARK INTER + INTRA:          -5.789
REMARK INTER:                  -5.611
REMARK INTRA:                  -0.178
REMARK UNBOUND:                -0.109
REMARK  Name = 1550473
REMARK  2 active torsions:
REMARK  status: ('A' for Active; 'I' for Inactive)
REMARK    1  A    between atoms: N_1  and  C_4
REMARK    2  A    between atoms: C_4  and  C_5
REMARK                            x       y       z     vdW  Elec       q    Type
REMARK                         _______ _______ _______ _____ _____    ______ ____
ROOT
ATOM      1  N   UNL     1       2.392  -6.378  -2.970  0.00  0.00    -0.354 N 
ATOM      2  N   UNL     1       2.552  -4.739  -1.342  0.00  0.00    -0.372 N 
ATOM      3  N   UNL     1       4.177  -4.860  -2.957  0.00  0.00    -0.372 N 
ATOM      4  C   UNL     1       3.042  -5.336  -2.435  0.00  0.00    +0.166 C 
ATOM      5  H   UNL     1       1.552  -6.710  -2.509  0.00  0.00    +0.163 HD
ATOM      6  H   UNL     1       3.018  -3.948  -0.918  0.00  0.00    +0.159 HD
ATOM      7  H   UNL     1       1.688  -5.043  -0.910  0.00  0.00    +0.159 HD
ATOM      8  H   UNL     1       4.602  -5.271  -3.778  0.00  0.00    +0.159 HD
ATOM      9  H   UNL     1       4.665  -4.077  -2.541  0.00  0.00    +0.159 HD
ENDROOT
BRANCH   1  10
ATOM     10  C   UNL     1       2.812  -7.065  -4.190  0.00  0.00    +0.151 C 
BRANCH  10  11
ATOM     11  C   UNL     1       3.526  -8.336  -3.817  0.00  0.00    -0.028 A 
ATOM     12  C   UNL     1       4.847  -8.557  -4.231  0.00  0.00    +0.005 A 
ATOM     13  C   UNL     1       2.888  -9.319  -3.045  0.00  0.00    +0.005 A 
ATOM     14  C   UNL     1       5.521  -9.724  -3.860  0.00  0.00    +0.000 A 
ATOM     15  C   UNL     1       3.563 -10.482  -2.678  0.00  0.00    +0.000 A 
ATOM     16  C   UNL     1       4.881 -10.683  -3.083  0.00  0.00    +0.000 A 
ENDBRANCH  10  11
ENDBRANCH   1  10
TORSDOF 2
ENDMDL
