MODEL 1
REMARK VINA RESULT:    -6.137      0.000      0.000
REMARK INTER + INTRA:          -6.986
REMARK INTER:                  -6.855
REMARK INTRA:                  -0.131
REMARK UNBOUND:                -0.131
REMARK  Name = 1550473
REMARK  2 active torsions:
REMARK  status: ('A' for Active; 'I' for Inactive)
REMARK    1  A    between atoms: N_1  and  C_4
REMARK    2  A    between atoms: C_4  and  C_5
REMARK                            x       y       z     vdW  Elec       q    Type
REMARK                         _______ _______ _______ _____ _____    ______ ____
ROOT
ATOM      1  N   UNL     1      -2.302  -0.378  -3.580  0.00  0.00    -0.354 N 
ATOM      2  N   UNL     1      -0.876  -0.247  -1.760  0.00  0.00    -0.372 N 
ATOM      3  N   UNL     1      -0.183   0.602  -3.775  0.00  0.00    -0.372 N 
ATOM      4  C   UNL     1      -1.128  -0.008  -3.052  0.00  0.00    +0.166 C 
ATOM      5  H   UNL     1      -2.965  -0.863  -2.986  0.00  0.00    +0.163 HD
ATOM      6  H   UNL     1      -0.001   0.024  -1.333  0.00  0.00    +0.159 HD
ATOM      7  H   UNL     1      -1.559  -0.691  -1.157  0.00  0.00    +0.159 HD
ATOM      8  H   UNL     1      -0.309   0.806  -4.758  0.00  0.00    +0.159 HD
ATOM      9  H   UNL     1       0.705   0.871  -3.369  0.00  0.00    +0.159 HD
ENDROOT
BRANCH   1  10
ATOM     10  C   UNL     1      -2.697  -0.115  -4.963  0.00  0.00    +0.151 C 
BRANCH  10  11
ATOM     11  C   UNL     1      -3.050  -1.417  -5.629  0.00  0.00    -0.028 A 
ATOM     12  C   UNL     1      -2.584  -2.633  -5.107  0.00  0.00    +0.005 A 
ATOM     13  C   UNL     1      -3.855  -1.441  -6.778  0.00  0.00    +0.005 A 
ATOM     14  C   UNL     1      -2.937  -3.844  -5.708  0.00  0.00    +0.000 A 
ATOM     15  C   UNL     1      -4.204  -2.652  -7.375  0.00  0.00    +0.000 A 
ATOM     16  C   UNL     1      -3.747  -3.853  -6.838  0.00  0.00    +0.000 A 
ENDBRANCH  10  11
ENDBRANCH   1  10
TORSDOF 2
ENDMDL
MODEL 2
REMARK VINA RESULT:    -5.985      3.426      5.075
REMARK INTER + INTRA:          -6.816
REMARK INTER:                  -6.656
REMARK INTRA:                  -0.160
REMARK UNBOUND:                -0.131
REMARK  Name = 1550473
REMARK  2 active torsions:
REMARK  status: ('A' for Active; 'I' for Inactive)
REMARK    1  A    between atoms: N_1  and  C_4
REMARK    2  A    between atoms: C_4  and  C_5
REMARK                            x       y       z     vdW  Elec       q    Type
REMARK                         _______ _______ _______ _____ _____    ______ ____
ROOT
ATOM      1  N   UNL     1      -2.948  -2.739  -6.034  0.00  0.00    -0.354 N 
ATOM      2  N   UNL     1      -4.747  -2.224  -7.400  0.00  0.00    -0.372 N 
ATOM      3  N   UNL     1      -3.832  -4.325  -7.515  0.00  0.00    -0.372 N 
ATOM      4  C   UNL     1      -3.830  -3.102  -6.975  0.00  0.00    +0.166 C 
ATOM      5  H   UNL     1      -2.980  -1.788  -5.686  0.00  0.00    +0.163 HD
ATOM      6  H   UNL     1      -5.427  -2.471  -8.106  0.00  0.00    +0.159 HD
ATOM      7  H   UNL     1      -4.805  -1.288  -7.017  0.00  0.00    +0.159 HD
ATOM      8  H   UNL     1      -3.162  -5.032  -7.243  0.00  0.00    +0.159 HD
ATOM      9  H   UNL     1      -4.497  -4.587  -8.232  0.00  0.00    +0.159 HD
ENDROOT
BRANCH   1  10
ATOM     10  C   UNL     1      -1.945  -3.636  -5.464  0.00  0.00    +0.151 C 
BRANCH  10  11
ATOM     11  C   UNL     1      -2.280  -3.895  -4.021  0.00  0.00    -0.028 A 
ATOM     12  C   UNL     1      -3.354  -4.729  -3.678  0.00  0.00    +0.005 A 
ATOM     13  C   UNL     1      -1.523  -3.313  -2.992  0.00  0.00    +0.005 A 
ATOM     14  C   UNL     1      -3.647  -4.994  -2.338  0.00  0.00    +0.000 A 
ATOM     15  C   UNL     1      -1.820  -3.580  -1.655  0.00  0.00    +0.000 A 
ATOM     16  C   UNL     1      -2.880  -4.422  -1.329  0.00  0.00    +0.000 A 
ENDBRANCH  10  11
ENDBRANCH   1  10
TORSDOF 2
ENDMDL
MODEL 3
REMARK VINA RESULT:    -5.831      2.426      3.129
REMARK INTER + INTRA:          -6.644
REMARK INTER:                  -6.500
REMARK INTRA:                  -0.144
REMARK UNBOUND:                -0.131
REMARK  Name = 1550473
REMARK  2 active torsions:
REMARK  status: ('A' for Active; 'I' for Inactive)
REMARK    1  A    between atoms: N_1  and  C_4
REMARK    2  A    between atoms: C_4  and  C_5
REMARK                            x       y       z     vdW  Elec       q    Type
REMARK                         _______ _______ _______ _____ _____    ______ ____
ROOT
ATOM      1  N   UNL     1      -1.133  -1.305  -2.969  0.00  0.00    -0.354 N 
ATOM      2  N   UNL     1      -0.490   0.479  -1.639  0.00  0.00    -0.372 N 
ATOM      3  N   UNL     1      -2.147   0.795  -3.195  0.00  0.00    -0.372 N 
ATOM      4  C   UNL     1      -1.263  -0.021  -2.612  0.00  0.00    +0.166 C 
ATOM      5  H   UNL     1      -0.423  -1.864  -2.510  0.00  0.00    +0.163 HD
ATOM      6  H   UNL     1      -0.568   1.443  -1.346  0.00  0.00    +0.159 HD
ATOM      7  H   UNL     1       0.187  -0.094  -1.150  0.00  0.00    +0.159 HD
ATOM      8  H   UNL     1      -2.756   0.482  -3.939  0.00  0.00    +0.159 HD
ATOM      9  H   UNL     1      -2.232   1.767  -2.923  0.00  0.00    +0.159 HD
ENDROOT
BRANCH   1  10
ATOM     10  C   UNL     1      -1.963  -1.961  -3.979  0.00  0.00    +0.151 C 
BRANCH  10  11
ATOM     11  C   UNL     1      -2.633  -3.157  -3.363  0.00  0.00    -0.028 A 
ATOM     12  C   UNL     1      -2.322  -3.552  -2.053  0.00  0.00    +0.005 A 
ATOM     13  C   UNL     1      -3.585  -3.898  -4.081  0.00  0.00    +0.005 A 
ATOM     14  C   UNL     1      -2.966  -4.645  -1.470  0.00  0.00    +0.000 A 
ATOM     15  C   UNL     1      -4.225  -4.989  -3.495  0.00  0.00    +0.000 A 
ATOM     16  C   UNL     1      -3.917  -5.361  -2.188  0.00  0.00    +0.000 A 
ENDBRANCH  10  11
ENDBRANCH   1  10
TORSDOF 2
ENDMDL
MODEL 4
REMARK VINA RESULT:    -5.763      3.546      6.958
REMARK INTER + INTRA:          -6.568
REMARK INTER:                  -6.386
REMARK INTRA:                  -0.182
REMARK UNBOUND:                -0.131
REMARK  Name = 1550473
REMARK  2 active torsions:
REMARK  status: ('A' for Active; 'I' for Inactive)
REMARK    1  A    between atoms: N_1  and  C_4
REMARK    2  A    between atoms: C_4  and  C_5
REMARK                            x       y       z     vdW  Elec       q    Type
REMARK                         _______ _______ _______ _____ _____    ______ ____
ROOT
ATOM      1  N   UNL     1      -0.647   0.654  -3.204  0.00  0.00    -0.354 N 
ATOM      2  N   UNL     1      -2.398  -0.806  -3.612  0.00  0.00    -0.372 N 
ATOM      3  N   UNL     1      -2.859   1.421  -3.306  0.00  0.00    -0.372 N 
ATOM      4  C   UNL     1      -1.958   0.435  -3.371  0.00  0.00    +0.166 C 
ATOM      5  H   UNL     1      -0.018  -0.140  -3.235  0.00  0.00    +0.163 HD
ATOM      6  H   UNL     1      -3.381  -1.001  -3.745  0.00  0.00    +0.159 HD
ATOM      7  H   UNL     1      -1.763  -1.591  -3.687  0.00  0.00    +0.159 HD
ATOM      8  H   UNL     1      -2.592   2.379  -3.122  0.00  0.00    +0.159 HD
ATOM      9  H   UNL     1      -3.848   1.244  -3.426  0.00  0.00    +0.159 HD
ENDROOT
BRANCH   1  10
ATOM     10  C   UNL     1      -0.059   1.976  -2.990  0.00  0.00    +0.151 C 
BRANCH  10  11
ATOM     11  C   UNL     1       0.284   2.131  -1.534  0.00  0.00    -0.028 A 
ATOM     12  C   UNL     1      -0.506   2.934  -0.699  0.00  0.00    +0.005 A 
ATOM     13  C   UNL     1       1.395   1.474  -0.984  0.00  0.00    +0.005 A 
ATOM     14  C   UNL     1      -0.205   3.055   0.660  0.00  0.00    +0.000 A 
ATOM     15  C   UNL     1       1.692   1.598   0.373  0.00  0.00    +0.000 A 
ATOM     16  C   UNL     1       0.891   2.386   1.195  0.00  0.00    +0.000 A 
ENDBRANCH  10  11
ENDBRANCH   1  10
TORSDOF 2
ENDMDL
MODEL 5
REMARK VINA RESULT:    -5.629      2.456      3.543
REMARK INTER + INTRA:          -6.419
REMARK INTER:                  -6.245
REMARK INTRA:                  -0.174
REMARK UNBOUND:                -0.131
REMARK  Name = 1550473
REMARK  2 active torsions:
REMARK  status: ('A' for Active; 'I' for Inactive)
REMARK    1  A    between atoms: N_1  and  C_4
REMARK    2  A    between atoms: C_4  and  C_5
REMARK                            x       y       z     vdW  Elec       q    Type
REMARK                         _______ _______ _______ _____ _____    ______ ____
ROOT
ATOM      1  N   UNL     1      -2.249  -0.824  -4.345  0.00  0.00    -0.354 N 
ATOM      2  N   UNL     1      -3.093   1.313  -4.047  0.00  0.00    -0.372 N 
ATOM      3  N   UNL     1      -1.484   0.543  -2.602  0.00  0.00    -0.372 N 
ATOM      4  C   UNL     1      -2.268   0.330  -3.664  0.00  0.00    +0.166 C 
ATOM      5  H   UNL     1      -2.889  -0.934  -5.123  0.00  0.00    +0.163 HD
ATOM      6  H   UNL     1      -3.127   2.195  -3.554  0.00  0.00    +0.159 HD
ATOM      7  H   UNL     1      -3.699   1.216  -4.852  0.00  0.00    +0.159 HD
ATOM      8  H   UNL     1      -0.844  -0.160  -2.259  0.00  0.00    +0.159 HD
ATOM      9  H   UNL     1      -1.512   1.416  -2.089  0.00  0.00    +0.159 HD
ENDROOT
BRANCH   1  10
ATOM     10  C   UNL     1      -1.350  -1.936  -4.044  0.00  0.00    +0.151 C 
BRANCH  10  11
ATOM     11  C   UNL     1      -2.129  -3.026  -3.361  0.00  0.00    -0.028 A 
ATOM     12  C   UNL     1      -3.179  -3.676  -4.028  0.00  0.00    +0.005 A 
ATOM     13  C   UNL     1      -1.819  -3.419  -2.050  0.00  0.00    +0.005 A 
ATOM     14  C   UNL     1      -3.883  -4.709  -3.405  0.00  0.00    +0.000 A 
ATOM     15  C   UNL     1      -2.525  -4.450  -1.431  0.00  0.00    +0.000 A 
ATOM     16  C   UNL     1      -3.555  -5.096  -2.110  0.00  0.00    +0.000 A 
ENDBRANCH  10  11
ENDBRANCH   1  10
TORSDOF 2
ENDMDL
MODEL 6
REMARK VINA RESULT:    -5.605     38.214     39.992
REMARK INTER + INTRA:          -6.391
REMARK INTER:                  -6.237
REMARK INTRA:                  -0.154
REMARK UNBOUND:                -0.131
REMARK  Name = 1550473
REMARK  2 active torsions:
REMARK  status: ('A' for Active; 'I' for Inactive)
REMARK    1  A    between atoms: N_1  and  C_4
REMARK    2  A    between atoms: C_4  and  C_5
REMARK                            x       y       z     vdW  Elec       q    Type
REMARK                         _______ _______ _______ _____ _____    ______ ____
ROOT
ATOM      1  N   UNL     1      15.723  11.405  30.066  0.00  0.00    -0.354 N 
ATOM      2  N   UNL     1      17.526  11.781  31.470  0.00  0.00    -0.372 N 
ATOM      3  N   UNL     1      16.335  13.579  30.688  0.00  0.00    -0.372 N 
ATOM      4  C   UNL     1      16.515  12.255  30.732  0.00  0.00    +0.166 C 
ATOM      5  H   UNL     1      15.931  10.414  30.115  0.00  0.00    +0.163 HD
ATOM      6  H   UNL     1      18.138  12.398  31.986  0.00  0.00    +0.159 HD
ATOM      7  H   UNL     1      17.703  10.787  31.554  0.00  0.00    +0.159 HD
ATOM      8  H   UNL     1      15.594  14.001  30.145  0.00  0.00    +0.159 HD
ATOM      9  H   UNL     1      16.944  14.214  31.189  0.00  0.00    +0.159 HD
ENDROOT
BRANCH   1  10
ATOM     10  C   UNL     1      14.563  11.815  29.277  0.00  0.00    +0.151 C 
BRANCH  10  11
ATOM     11  C   UNL     1      14.730  11.323  27.865  0.00  0.00    -0.028 A 
ATOM     12  C   UNL     1      15.786  11.789  27.069  0.00  0.00    +0.005 A 
ATOM     13  C   UNL     1      13.838  10.387  27.320  0.00  0.00    +0.005 A 
ATOM     14  C   UNL     1      15.959  11.310  25.768  0.00  0.00    +0.000 A 
ATOM     15  C   UNL     1      14.013   9.911  26.021  0.00  0.00    +0.000 A 
ATOM     16  C   UNL     1      15.075  10.371  25.246  0.00  0.00    +0.000 A 
ENDBRANCH  10  11
ENDBRANCH   1  10
TORSDOF 2
ENDMDL
MODEL 7
REMARK VINA RESULT:    -5.536     10.782     11.855
REMARK INTER + INTRA:          -6.315
REMARK INTER:                  -6.149
REMARK INTRA:                  -0.166
REMARK UNBOUND:                -0.131
REMARK  Name = 1550473
REMARK  2 active torsions:
REMARK  status: ('A' for Active; 'I' for Inactive)
REMARK    1  A    between atoms: N_1  and  C_4
REMARK    2  A    between atoms: C_4  and  C_5
REMARK                            x       y       z     vdW  Elec       q    Type
REMARK                         _______ _______ _______ _____ _____    ______ ____
ROOT
ATOM      1  N   UNL     1      -5.711 -13.262  -5.109  0.00  0.00    -0.354 N 
ATOM      2  N   UNL     1      -3.832 -13.352  -6.461  0.00  0.00    -0.372 N 
ATOM      3  N   UNL     1      -5.685 -12.225  -7.211  0.00  0.00    -0.372 N 
ATOM      4  C   UNL     1      -5.090 -12.945  -6.253  0.00  0.00    +0.166 C 
ATOM      5  H   UNL     1      -5.215 -13.836  -4.436  0.00  0.00    +0.163 HD
ATOM      6  H   UNL     1      -3.337 -13.125  -7.313  0.00  0.00    +0.159 HD
ATOM      7  H   UNL     1      -3.324 -13.886  -5.767  0.00  0.00    +0.159 HD
ATOM      8  H   UNL     1      -6.636 -11.893  -7.118  0.00  0.00    +0.159 HD
ATOM      9  H   UNL     1      -5.210 -11.998  -8.075  0.00  0.00    +0.159 HD
ENDROOT
BRANCH   1  10
ATOM     10  C   UNL     1      -7.061 -12.822  -4.762  0.00  0.00    +0.151 C 
BRANCH  10  11
ATOM     11  C   UNL     1      -6.971 -11.728  -3.734  0.00  0.00    -0.028 A 
ATOM     12  C   UNL     1      -7.658 -10.519  -3.919  0.00  0.00    +0.005 A 
ATOM     13  C   UNL     1      -6.206 -11.896  -2.570  0.00  0.00    +0.005 A 
ATOM     14  C   UNL     1      -7.600  -9.514  -2.951  0.00  0.00    +0.000 A 
ATOM     15  C   UNL     1      -6.150 -10.890  -1.605  0.00  0.00    +0.000 A 
ATOM     16  C   UNL     1      -6.849  -9.700  -1.795  0.00  0.00    +0.000 A 
ENDBRANCH  10  11
ENDBRANCH   1  10
TORSDOF 2
ENDMDL
MODEL 8
REMARK VINA RESULT:    -5.371     13.047     14.043
REMARK INTER + INTRA:          -6.130
REMARK INTER:                  -5.949
REMARK INTRA:                  -0.181
REMARK UNBOUND:                -0.131
REMARK  Name = 1550473
REMARK  2 active torsions:
REMARK  status: ('A' for Active; 'I' for Inactive)
REMARK    1  A    between atoms: N_1  and  C_4
REMARK    2  A    between atoms: C_4  and  C_5
REMARK                            x       y       z     vdW  Elec       q    Type
REMARK                         _______ _______ _______ _____ _____    ______ ____
ROOT
ATOM      1  N   UNL     1       6.555  -9.087  -9.269  0.00  0.00    -0.354 N 
ATOM      2  N   UNL     1       6.562 -10.792 -10.837  0.00  0.00    -0.372 N 
ATOM      3  N   UNL     1       7.757  -8.881 -11.270  0.00  0.00    -0.372 N 
ATOM      4  C   UNL     1       6.960  -9.574 -10.450  0.00  0.00    +0.166 C 
ATOM      5  H   UNL     1       5.927  -9.650  -8.707  0.00  0.00    +0.163 HD
ATOM      6  H   UNL     1       6.854 -11.186 -11.721  0.00  0.00    +0.159 HD
ATOM      7  H   UNL     1       5.971 -11.370 -10.253  0.00  0.00    +0.159 HD
ATOM      8  H   UNL     1       8.087  -7.954 -11.039  0.00  0.00    +0.159 HD
ATOM      9  H   UNL     1       8.050  -9.254 -12.164  0.00  0.00    +0.159 HD
ENDROOT
BRANCH   1  10
ATOM     10  C   UNL     1       6.974  -7.795  -8.730  0.00  0.00    +0.151 C 
BRANCH  10  11
ATOM     11  C   UNL     1       8.041  -8.017  -7.694  0.00  0.00    -0.028 A 
ATOM     12  C   UNL     1       9.355  -7.581  -7.920  0.00  0.00    +0.005 A 
ATOM     13  C   UNL     1       7.744  -8.658  -6.482  0.00  0.00    +0.005 A 
ATOM     14  C   UNL     1      10.340  -7.760  -6.946  0.00  0.00    +0.000 A 
ATOM     15  C   UNL     1       8.730  -8.836  -5.512  0.00  0.00    +0.000 A 
ATOM     16  C   UNL     1      10.027  -8.385  -5.743  0.00  0.00    +0.000 A 
ENDBRANCH  10  11
ENDBRANCH   1  10
TORSDOF 2
ENDMDL
MODEL 9
REMARK VINA RESULT:    -5.356      4.102      5.230
REMARK INTER + INTRA:          -6.113
REMARK INTER:                  -5.992
REMARK INTRA:                  -0.121
REMARK UNBOUND:                -0.131
REMARK  Name = 1550473
REMARK  2 active torsions:
REMARK  status: ('A' for Active; 'I' for Inactive)
REMARK    1  A    between atoms: N_1  and  C_4
REMARK    2  A    between atoms: C_4  and  C_5
REMARK                            x       y       z     vdW  Elec       q    Type
REMARK                         _______ _______ _______ _____ _____    ______ ____
ROOT
ATOM      1  N   UNL     1      -0.470   1.002  -1.009  0.00  0.00    -0.354 N 
ATOM      2  N   UNL     1      -0.429  -0.577   0.686  0.00  0.00    -0.372 N 
ATOM      3  N   UNL     1       1.124   1.113   0.707  0.00  0.00    -0.372 N 
ATOM      4  C   UNL     1       0.077   0.524   0.117  0.00  0.00    +0.166 C 
ATOM      5  H   UNL     1      -1.242   0.492  -1.422  0.00  0.00    +0.163 HD
ATOM      6  H   UNL     1      -0.039  -0.958   1.537  0.00  0.00    +0.159 HD
ATOM      7  H   UNL     1      -1.230  -1.058   0.295  0.00  0.00    +0.159 HD
ATOM      8  H   UNL     1       1.555   1.944   0.325  0.00  0.00    +0.159 HD
ATOM      9  H   UNL     1       1.535   0.740   1.553  0.00  0.00    +0.159 HD
ENDROOT
BRANCH   1  10
ATOM     10  C   UNL     1      -0.028   2.224  -1.678  0.00  0.00    +0.151 C 
BRANCH  10  11
ATOM     11  C   UNL     1      -0.800   2.390  -2.958  0.00  0.00    -0.028 A 
ATOM     12  C   UNL     1      -1.970   1.651  -3.184  0.00  0.00    +0.005 A 
ATOM     13  C   UNL     1      -0.369   3.288  -3.946  0.00  0.00    +0.005 A 
ATOM     14  C   UNL     1      -2.703   1.826  -4.360  0.00  0.00    +0.000 A 
ATOM     15  C   UNL     1      -1.104   3.460  -5.119  0.00  0.00    +0.000 A 
ATOM     16  C   UNL     1      -2.272   2.730  -5.325  0.00  0.00    +0.000 A 
ENDBRANCH  10  11
ENDBRANCH   1  10
TORSDOF 2
ENDMDL
