MODEL 1
REMARK VINA RESULT:    -5.465      0.000      0.000
REMARK INTER + INTRA:          -6.226
REMARK INTER:                  -6.104
REMARK INTRA:                  -0.123
REMARK UNBOUND:                -0.123
REMARK  Name = 1550473
REMARK  2 active torsions:
REMARK  status: ('A' for Active; 'I' for Inactive)
REMARK    1  A    between atoms: N_1  and  C_4
REMARK    2  A    between atoms: C_4  and  C_5
REMARK                            x       y       z     vdW  Elec       q    Type
REMARK                         _______ _______ _______ _____ _____    ______ ____
ROOT
ATOM      1  N   UNL     1       2.705   9.727  -5.262  0.00  0.00    -0.354 N 
ATOM      2  N   UNL     1       2.647  11.295  -6.966  0.00  0.00    -0.372 N 
ATOM      3  N   UNL     1       2.107  11.953  -4.835  0.00  0.00    -0.372 N 
ATOM      4  C   UNL     1       2.486  10.983  -5.674  0.00  0.00    +0.166 C 
ATOM      5  H   UNL     1       2.960   9.031  -5.953  0.00  0.00    +0.163 HD
ATOM      6  H   UNL     1       2.493  12.234  -7.306  0.00  0.00    +0.159 HD
ATOM      7  H   UNL     1       2.947  10.607  -7.646  0.00  0.00    +0.159 HD
ATOM      8  H   UNL     1       1.962  11.782  -3.849  0.00  0.00    +0.159 HD
ATOM      9  H   UNL     1       1.936  12.897  -5.158  0.00  0.00    +0.159 HD
ENDROOT
BRANCH   1  10
ATOM     10  C   UNL     1       2.609   9.296  -3.868  0.00  0.00    +0.151 C 
BRANCH  10  11
ATOM     11  C   UNL     1       2.949   7.834  -3.782  0.00  0.00    -0.028 A 
ATOM     12  C   UNL     1       3.082   7.064  -4.947  0.00  0.00    +0.005 A 
ATOM     13  C   UNL     1       3.144   7.213  -2.539  0.00  0.00    +0.005 A 
ATOM     14  C   UNL     1       3.427   5.713  -4.869  0.00  0.00    +0.000 A 
ATOM     15  C   UNL     1       3.487   5.863  -2.465  0.00  0.00    +0.000 A 
ATOM     16  C   UNL     1       3.632   5.114  -3.630  0.00  0.00    +0.000 A 
ENDBRANCH  10  11
ENDBRANCH   1  10
TORSDOF 2
ENDMDL
MODEL 2
REMARK VINA RESULT:    -5.432      1.404      1.769
REMARK INTER + INTRA:          -6.189
REMARK INTER:                  -6.089
REMARK INTRA:                  -0.100
REMARK UNBOUND:                -0.123
REMARK  Name = 1550473
REMARK  2 active torsions:
REMARK  status: ('A' for Active; 'I' for Inactive)
REMARK    1  A    between atoms: N_1  and  C_4
REMARK    2  A    between atoms: C_4  and  C_5
REMARK                            x       y       z     vdW  Elec       q    Type
REMARK                         _______ _______ _______ _____ _____    ______ ____
ROOT
ATOM      1  N   UNL     1       3.692  11.006  -5.146  0.00  0.00    -0.354 N 
ATOM      2  N   UNL     1       2.647  11.974  -6.972  0.00  0.00    -0.372 N 
ATOM      3  N   UNL     1       1.985  12.585  -4.861  0.00  0.00    -0.372 N 
ATOM      4  C   UNL     1       2.780  11.850  -5.646  0.00  0.00    +0.166 C 
ATOM      5  H   UNL     1       4.244  10.455  -5.794  0.00  0.00    +0.163 HD
ATOM      6  H   UNL     1       1.969  12.606  -7.378  0.00  0.00    +0.159 HD
ATOM      7  H   UNL     1       3.230  11.456  -7.617  0.00  0.00    +0.159 HD
ATOM      8  H   UNL     1       2.031  12.534  -3.852  0.00  0.00    +0.159 HD
ATOM      9  H   UNL     1       1.292  13.214  -5.249  0.00  0.00    +0.159 HD
ENDROOT
BRANCH   1  10
ATOM     10  C   UNL     1       3.954  10.837  -3.718  0.00  0.00    +0.151 C 
BRANCH  10  11
ATOM     11  C   UNL     1       3.558   9.445  -3.308  0.00  0.00    -0.028 A 
ATOM     12  C   UNL     1       2.449   8.818  -3.894  0.00  0.00    +0.005 A 
ATOM     13  C   UNL     1       4.292   8.746  -2.337  0.00  0.00    +0.005 A 
ATOM     14  C   UNL     1       2.099   7.514  -3.535  0.00  0.00    +0.000 A 
ATOM     15  C   UNL     1       3.939   7.444  -1.981  0.00  0.00    +0.000 A 
ATOM     16  C   UNL     1       2.844   6.828  -2.582  0.00  0.00    +0.000 A 
ENDBRANCH  10  11
ENDBRANCH   1  10
TORSDOF 2
ENDMDL
MODEL 3
REMARK VINA RESULT:    -5.378      1.445      2.331
REMARK INTER + INTRA:          -6.129
REMARK INTER:                  -6.005
REMARK INTRA:                  -0.125
REMARK UNBOUND:                -0.123
REMARK  Name = 1550473
REMARK  2 active torsions:
REMARK  status: ('A' for Active; 'I' for Inactive)
REMARK    1  A    between atoms: N_1  and  C_4
REMARK    2  A    between atoms: C_4  and  C_5
REMARK                            x       y       z     vdW  Elec       q    Type
REMARK                         _______ _______ _______ _____ _____    ______ ____
ROOT
ATOM      1  N   UNL     1       2.728  11.001  -4.267  0.00  0.00    -0.354 N 
ATOM      2  N   UNL     1       2.758  13.238  -4.866  0.00  0.00    -0.372 N 
ATOM      3  N   UNL     1       2.005  11.692  -6.386  0.00  0.00    -0.372 N 
ATOM      4  C   UNL     1       2.496  11.961  -5.172  0.00  0.00    +0.166 C 
ATOM      5  H   UNL     1       3.130  11.267  -3.375  0.00  0.00    +0.163 HD
ATOM      6  H   UNL     1       2.589  13.984  -5.527  0.00  0.00    +0.159 HD
ATOM      7  H   UNL     1       3.115  13.506  -3.958  0.00  0.00    +0.159 HD
ATOM      8  H   UNL     1       1.792  10.748  -6.680  0.00  0.00    +0.159 HD
ATOM      9  H   UNL     1       1.841  12.424  -7.065  0.00  0.00    +0.159 HD
ENDROOT
BRANCH   1  10
ATOM     10  C   UNL     1       2.428   9.587  -4.480  0.00  0.00    +0.151 C 
BRANCH  10  11
ATOM     11  C   UNL     1       3.113   8.773  -3.417  0.00  0.00    -0.028 A 
ATOM     12  C   UNL     1       4.132   9.337  -2.636  0.00  0.00    +0.005 A 
ATOM     13  C   UNL     1       2.744   7.439  -3.183  0.00  0.00    +0.005 A 
ATOM     14  C   UNL     1       4.749   8.591  -1.628  0.00  0.00    +0.000 A 
ATOM     15  C   UNL     1       3.363   6.698  -2.177  0.00  0.00    +0.000 A 
ATOM     16  C   UNL     1       4.363   7.274  -1.398  0.00  0.00    +0.000 A 
ENDBRANCH  10  11
ENDBRANCH   1  10
TORSDOF 2
ENDMDL
MODEL 4
REMARK VINA RESULT:    -5.260      3.985      5.785
REMARK INTER + INTRA:          -5.997
REMARK INTER:                  -5.869
REMARK INTRA:                  -0.129
REMARK UNBOUND:                -0.123
REMARK  Name = 1550473
REMARK  2 active torsions:
REMARK  status: ('A' for Active; 'I' for Inactive)
REMARK    1  A    between atoms: N_1  and  C_4
REMARK    2  A    between atoms: C_4  and  C_5
REMARK                            x       y       z     vdW  Elec       q    Type
REMARK                         _______ _______ _______ _____ _____    ______ ____
ROOT
ATOM      1  N   UNL     1       5.256   6.005  -1.519  0.00  0.00    -0.354 N 
ATOM      2  N   UNL     1       7.340   5.054  -1.176  0.00  0.00    -0.372 N 
ATOM      3  N   UNL     1       5.632   3.731  -1.946  0.00  0.00    -0.372 N 
ATOM      4  C   UNL     1       6.061   4.934  -1.550  0.00  0.00    +0.166 C 
ATOM      5  H   UNL     1       5.635   6.882  -1.180  0.00  0.00    +0.163 HD
ATOM      6  H   UNL     1       7.972   4.265  -1.192  0.00  0.00    +0.159 HD
ATOM      7  H   UNL     1       7.728   5.942  -0.881  0.00  0.00    +0.159 HD
ATOM      8  H   UNL     1       4.676   3.572  -2.236  0.00  0.00    +0.159 HD
ATOM      9  H   UNL     1       6.246   2.926  -1.958  0.00  0.00    +0.159 HD
ENDROOT
BRANCH   1  10
ATOM     10  C   UNL     1       3.862   5.992  -1.957  0.00  0.00    +0.151 C 
BRANCH  10  11
ATOM     11  C   UNL     1       3.528   7.323  -2.573  0.00  0.00    -0.028 A 
ATOM     12  C   UNL     1       4.330   8.446  -2.320  0.00  0.00    +0.005 A 
ATOM     13  C   UNL     1       2.416   7.466  -3.416  0.00  0.00    +0.005 A 
ATOM     14  C   UNL     1       4.038   9.675  -2.916  0.00  0.00    +0.000 A 
ATOM     15  C   UNL     1       2.127   8.696  -4.009  0.00  0.00    +0.000 A 
ATOM     16  C   UNL     1       2.940   9.799  -3.760  0.00  0.00    +0.000 A 
ENDBRANCH  10  11
ENDBRANCH   1  10
TORSDOF 2
ENDMDL
MODEL 5
REMARK VINA RESULT:    -5.213     12.356     13.320
REMARK INTER + INTRA:          -5.945
REMARK INTER:                  -5.821
REMARK INTRA:                  -0.125
REMARK UNBOUND:                -0.123
REMARK  Name = 1550473
REMARK  2 active torsions:
REMARK  status: ('A' for Active; 'I' for Inactive)
REMARK    1  A    between atoms: N_1  and  C_4
REMARK    2  A    between atoms: C_4  and  C_5
REMARK                            x       y       z     vdW  Elec       q    Type
REMARK                         _______ _______ _______ _____ _____    ______ ____
ROOT
ATOM      1  N   UNL     1       6.197  -1.857   3.242  0.00  0.00    -0.354 N 
ATOM      2  N   UNL     1       7.108  -0.041   4.353  0.00  0.00    -0.372 N 
ATOM      3  N   UNL     1       5.763  -1.491   5.516  0.00  0.00    -0.372 N 
ATOM      4  C   UNL     1       6.348  -1.143   4.365  0.00  0.00    +0.166 C 
ATOM      5  H   UNL     1       6.642  -1.523   2.395  0.00  0.00    +0.163 HD
ATOM      6  H   UNL     1       7.243   0.517   5.186  0.00  0.00    +0.159 HD
ATOM      7  H   UNL     1       7.589   0.266   3.516  0.00  0.00    +0.159 HD
ATOM      8  H   UNL     1       5.173  -2.309   5.591  0.00  0.00    +0.159 HD
ATOM      9  H   UNL     1       5.878  -0.940   6.357  0.00  0.00    +0.159 HD
ENDROOT
BRANCH   1  10
ATOM     10  C   UNL     1       5.435  -3.102   3.162  0.00  0.00    +0.151 C 
BRANCH  10  11
ATOM     11  C   UNL     1       4.476  -3.018   2.007  0.00  0.00    -0.028 A 
ATOM     12  C   UNL     1       4.923  -2.618   0.739  0.00  0.00    +0.005 A 
ATOM     13  C   UNL     1       3.121  -3.342   2.172  0.00  0.00    +0.005 A 
ATOM     14  C   UNL     1       4.039  -2.568  -0.342  0.00  0.00    +0.000 A 
ATOM     15  C   UNL     1       2.241  -3.290   1.091  0.00  0.00    +0.000 A 
ATOM     16  C   UNL     1       2.701  -2.906  -0.166  0.00  0.00    +0.000 A 
ENDBRANCH  10  11
ENDBRANCH   1  10
TORSDOF 2
ENDMDL
MODEL 6
REMARK VINA RESULT:    -5.210      4.783      6.629
REMARK INTER + INTRA:          -5.942
REMARK INTER:                  -5.818
REMARK INTRA:                  -0.124
REMARK UNBOUND:                -0.123
REMARK  Name = 1550473
REMARK  2 active torsions:
REMARK  status: ('A' for Active; 'I' for Inactive)
REMARK    1  A    between atoms: N_1  and  C_4
REMARK    2  A    between atoms: C_4  and  C_5
REMARK                            x       y       z     vdW  Elec       q    Type
REMARK                         _______ _______ _______ _____ _____    ______ ____
ROOT
ATOM      1  N   UNL     1       5.887   3.882  -2.311  0.00  0.00    -0.354 N 
ATOM      2  N   UNL     1       7.225   2.802  -0.760  0.00  0.00    -0.372 N 
ATOM      3  N   UNL     1       7.615   2.455  -2.994  0.00  0.00    -0.372 N 
ATOM      4  C   UNL     1       6.901   3.052  -2.034  0.00  0.00    +0.166 C 
ATOM      5  H   UNL     1       5.365   4.280  -1.539  0.00  0.00    +0.163 HD
ATOM      6  H   UNL     1       7.987   2.183  -0.520  0.00  0.00    +0.159 HD
ATOM      7  H   UNL     1       6.731   3.237   0.010  0.00  0.00    +0.159 HD
ATOM      8  H   UNL     1       7.418   2.597  -3.976  0.00  0.00    +0.159 HD
ATOM      9  H   UNL     1       8.375   1.823  -2.774  0.00  0.00    +0.159 HD
ENDROOT
BRANCH   1  10
ATOM     10  C   UNL     1       5.488   4.263  -3.665  0.00  0.00    +0.151 C 
BRANCH  10  11
ATOM     11  C   UNL     1       4.394   5.291  -3.584  0.00  0.00    -0.028 A 
ATOM     12  C   UNL     1       3.979   5.793  -2.342  0.00  0.00    +0.005 A 
ATOM     13  C   UNL     1       3.772   5.772  -4.747  0.00  0.00    +0.005 A 
ATOM     14  C   UNL     1       2.983   6.771  -2.269  0.00  0.00    +0.000 A 
ATOM     15  C   UNL     1       2.777   6.747  -4.669  0.00  0.00    +0.000 A 
ATOM     16  C   UNL     1       2.385   7.248  -3.430  0.00  0.00    +0.000 A 
ENDBRANCH  10  11
ENDBRANCH   1  10
TORSDOF 2
ENDMDL
MODEL 7
REMARK VINA RESULT:    -5.132      3.741      5.397
REMARK INTER + INTRA:          -5.854
REMARK INTER:                  -5.675
REMARK INTRA:                  -0.179
REMARK UNBOUND:                -0.123
REMARK  Name = 1550473
REMARK  2 active torsions:
REMARK  status: ('A' for Active; 'I' for Inactive)
REMARK    1  A    between atoms: N_1  and  C_4
REMARK    2  A    between atoms: C_4  and  C_5
REMARK                            x       y       z     vdW  Elec       q    Type
REMARK                         _______ _______ _______ _____ _____    ______ ____
ROOT
ATOM      1  N   UNL     1       3.918   4.801  -3.666  0.00  0.00    -0.354 N 
ATOM      2  N   UNL     1       5.271   4.047  -1.943  0.00  0.00    -0.372 N 
ATOM      3  N   UNL     1       6.250   4.752  -3.895  0.00  0.00    -0.372 N 
ATOM      4  C   UNL     1       5.139   4.539  -3.181  0.00  0.00    +0.166 C 
ATOM      5  H   UNL     1       3.115   4.589  -3.086  0.00  0.00    +0.163 HD
ATOM      6  H   UNL     1       6.179   3.843  -1.549  0.00  0.00    +0.159 HD
ATOM      7  H   UNL     1       4.468   3.879  -1.349  0.00  0.00    +0.159 HD
ATOM      8  H   UNL     1       6.219   5.116  -4.838  0.00  0.00    +0.159 HD
ATOM      9  H   UNL     1       7.168   4.543  -3.522  0.00  0.00    +0.159 HD
ENDROOT
BRANCH   1  10
ATOM     10  C   UNL     1       3.669   5.388  -4.981  0.00  0.00    +0.151 C 
BRANCH  10  11
ATOM     11  C   UNL     1       3.363   6.851  -4.816  0.00  0.00    -0.028 A 
ATOM     12  C   UNL     1       2.260   7.266  -4.055  0.00  0.00    +0.005 A 
ATOM     13  C   UNL     1       4.174   7.828  -5.414  0.00  0.00    +0.005 A 
ATOM     14  C   UNL     1       1.993   8.626  -3.876  0.00  0.00    +0.000 A 
ATOM     15  C   UNL     1       3.903   9.184  -5.234  0.00  0.00    +0.000 A 
ATOM     16  C   UNL     1       2.814   9.583  -4.463  0.00  0.00    +0.000 A 
ENDBRANCH  10  11
ENDBRANCH   1  10
TORSDOF 2
ENDMDL
MODEL 8
REMARK VINA RESULT:    -5.047     12.172     13.358
REMARK INTER + INTRA:          -5.760
REMARK INTER:                  -5.637
REMARK INTRA:                  -0.122
REMARK UNBOUND:                -0.123
REMARK  Name = 1550473
REMARK  2 active torsions:
REMARK  status: ('A' for Active; 'I' for Inactive)
REMARK    1  A    between atoms: N_1  and  C_4
REMARK    2  A    between atoms: C_4  and  C_5
REMARK                            x       y       z     vdW  Elec       q    Type
REMARK                         _______ _______ _______ _____ _____    ______ ____
ROOT
ATOM      1  N   UNL     1       6.484  -2.408   3.723  0.00  0.00    -0.354 N 
ATOM      2  N   UNL     1       6.179  -1.337   5.754  0.00  0.00    -0.372 N 
ATOM      3  N   UNL     1       6.687  -0.080   3.903  0.00  0.00    -0.372 N 
ATOM      4  C   UNL     1       6.453  -1.280   4.445  0.00  0.00    +0.166 C 
ATOM      5  H   UNL     1       6.327  -3.289   4.199  0.00  0.00    +0.163 HD
ATOM      6  H   UNL     1       6.145  -0.503   6.324  0.00  0.00    +0.159 HD
ATOM      7  H   UNL     1       5.977  -2.215   6.218  0.00  0.00    +0.159 HD
ATOM      8  H   UNL     1       6.906   0.031   2.922  0.00  0.00    +0.159 HD
ATOM      9  H   UNL     1       6.670   0.765   4.459  0.00  0.00    +0.159 HD
ENDROOT
BRANCH   1  10
ATOM     10  C   UNL     1       6.719  -2.449   2.281  0.00  0.00    +0.151 C 
BRANCH  10  11
ATOM     11  C   UNL     1       5.406  -2.642   1.574  0.00  0.00    -0.028 A 
ATOM     12  C   UNL     1       4.282  -3.107   2.273  0.00  0.00    +0.005 A 
ATOM     13  C   UNL     1       5.277  -2.356   0.206  0.00  0.00    +0.005 A 
ATOM     14  C   UNL     1       3.055  -3.258   1.624  0.00  0.00    +0.000 A 
ATOM     15  C   UNL     1       4.049  -2.509  -0.439  0.00  0.00    +0.000 A 
ATOM     16  C   UNL     1       2.938  -2.957   0.271  0.00  0.00    +0.000 A 
ENDBRANCH  10  11
ENDBRANCH   1  10
TORSDOF 2
ENDMDL
MODEL 9
REMARK VINA RESULT:    -5.032     23.194     24.476
REMARK INTER + INTRA:          -5.743
REMARK INTER:                  -5.611
REMARK INTRA:                  -0.131
REMARK UNBOUND:                -0.123
REMARK  Name = 1550473
REMARK  2 active torsions:
REMARK  status: ('A' for Active; 'I' for Inactive)
REMARK    1  A    between atoms: N_1  and  C_4
REMARK    2  A    between atoms: C_4  and  C_5
REMARK                            x       y       z     vdW  Elec       q    Type
REMARK                         _______ _______ _______ _____ _____    ______ ____
ROOT
ATOM      1  N   UNL     1      19.616   4.507  14.672  0.00  0.00    -0.354 N 
ATOM      2  N   UNL     1      19.043   5.037  16.852  0.00  0.00    -0.372 N 
ATOM      3  N   UNL     1      19.793   6.705  15.466  0.00  0.00    -0.372 N 
ATOM      4  C   UNL     1      19.489   5.415  15.648  0.00  0.00    +0.166 C 
ATOM      5  H   UNL     1      19.398   3.540  14.883  0.00  0.00    +0.163 HD
ATOM      6  H   UNL     1      18.933   5.701  17.607  0.00  0.00    +0.159 HD
ATOM      7  H   UNL     1      18.782   4.078  17.047  0.00  0.00    +0.159 HD
ATOM      8  H   UNL     1      20.140   7.053  14.582  0.00  0.00    +0.159 HD
ATOM      9  H   UNL     1      19.701   7.382  16.213  0.00  0.00    +0.159 HD
ENDROOT
BRANCH   1  10
ATOM     10  C   UNL     1      20.042   4.825  13.310  0.00  0.00    +0.151 C 
BRANCH  10  11
ATOM     11  C   UNL     1      19.285   3.956  12.344  0.00  0.00    -0.028 A 
ATOM     12  C   UNL     1      19.304   4.236  10.969  0.00  0.00    +0.005 A 
ATOM     13  C   UNL     1      18.552   2.848  12.795  0.00  0.00    +0.005 A 
ATOM     14  C   UNL     1      18.626   3.411  10.068  0.00  0.00    +0.000 A 
ATOM     15  C   UNL     1      17.875   2.028  11.892  0.00  0.00    +0.000 A 
ATOM     16  C   UNL     1      17.914   2.308  10.529  0.00  0.00    +0.000 A 
ENDBRANCH  10  11
ENDBRANCH   1  10
TORSDOF 2
ENDMDL
