MODEL 1
REMARK VINA RESULT:    -5.247      0.000      0.000
REMARK INTER + INTRA:          -5.995
REMARK INTER:                  -5.861
REMARK INTRA:                  -0.134
REMARK UNBOUND:                -0.134
REMARK  Name = 1550473
REMARK  2 active torsions:
REMARK  status: ('A' for Active; 'I' for Inactive)
REMARK    1  A    between atoms: N_1  and  C_4
REMARK    2  A    between atoms: C_4  and  C_5
REMARK                            x       y       z     vdW  Elec       q    Type
REMARK                         _______ _______ _______ _____ _____    ______ ____
ROOT
ATOM      1  N   UNL     1       8.198  -0.406  -5.935  0.00  0.00    -0.354 N 
ATOM      2  N   UNL     1      10.207   0.212  -4.962  0.00  0.00    -0.372 N 
ATOM      3  N   UNL     1       8.639   1.831  -5.393  0.00  0.00    -0.372 N 
ATOM      4  C   UNL     1       9.000   0.544  -5.437  0.00  0.00    +0.166 C 
ATOM      5  H   UNL     1       8.543  -1.359  -5.968  0.00  0.00    +0.163 HD
ATOM      6  H   UNL     1      10.833   0.906  -4.577  0.00  0.00    +0.159 HD
ATOM      7  H   UNL     1      10.530  -0.748  -4.954  0.00  0.00    +0.159 HD
ATOM      8  H   UNL     1       7.744   2.148  -5.740  0.00  0.00    +0.159 HD
ATOM      9  H   UNL     1       9.256   2.542  -5.021  0.00  0.00    +0.159 HD
ENDROOT
BRANCH   1  10
ATOM     10  C   UNL     1       6.844  -0.157  -6.428  0.00  0.00    +0.151 C 
BRANCH  10  11
ATOM     11  C   UNL     1       5.976  -1.340  -6.097  0.00  0.00    -0.028 A 
ATOM     12  C   UNL     1       6.472  -2.389  -5.308  0.00  0.00    +0.005 A 
ATOM     13  C   UNL     1       4.655  -1.416  -6.564  0.00  0.00    +0.005 A 
ATOM     14  C   UNL     1       5.657  -3.473  -4.975  0.00  0.00    +0.000 A 
ATOM     15  C   UNL     1       3.845  -2.501  -6.231  0.00  0.00    +0.000 A 
ATOM     16  C   UNL     1       4.345  -3.528  -5.435  0.00  0.00    +0.000 A 
ENDBRANCH  10  11
ENDBRANCH   1  10
TORSDOF 2
ENDMDL
MODEL 2
REMARK VINA RESULT:    -5.124      6.467      9.042
REMARK INTER + INTRA:          -5.858
REMARK INTER:                  -5.753
REMARK INTRA:                  -0.104
REMARK UNBOUND:                -0.134
REMARK  Name = 1550473
REMARK  2 active torsions:
REMARK  status: ('A' for Active; 'I' for Inactive)
REMARK    1  A    between atoms: N_1  and  C_4
REMARK    2  A    between atoms: C_4  and  C_5
REMARK                            x       y       z     vdW  Elec       q    Type
REMARK                         _______ _______ _______ _____ _____    ______ ____
ROOT
ATOM      1  N   UNL     1       8.807   4.319  -7.697  0.00  0.00    -0.354 N 
ATOM      2  N   UNL     1       8.689   2.673  -6.072  0.00  0.00    -0.372 N 
ATOM      3  N   UNL     1       8.852   2.048  -8.274  0.00  0.00    -0.372 N 
ATOM      4  C   UNL     1       8.783   3.022  -7.361  0.00  0.00    +0.166 C 
ATOM      5  H   UNL     1       8.721   5.009  -6.960  0.00  0.00    +0.163 HD
ATOM      6  H   UNL     1       8.672   1.703  -5.788  0.00  0.00    +0.159 HD
ATOM      7  H   UNL     1       8.649   3.365  -5.334  0.00  0.00    +0.159 HD
ATOM      8  H   UNL     1       8.919   2.245  -9.263  0.00  0.00    +0.159 HD
ATOM      9  H   UNL     1       8.825   1.071  -8.010  0.00  0.00    +0.159 HD
ENDROOT
BRANCH   1  10
ATOM     10  C   UNL     1       8.962   4.805  -9.067  0.00  0.00    +0.151 C 
BRANCH  10  11
ATOM     11  C   UNL     1       8.991   6.309  -9.054  0.00  0.00    -0.028 A 
ATOM     12  C   UNL     1       7.976   7.035  -8.415  0.00  0.00    +0.005 A 
ATOM     13  C   UNL     1      10.035   7.012  -9.674  0.00  0.00    +0.005 A 
ATOM     14  C   UNL     1       8.019   8.431  -8.377  0.00  0.00    +0.000 A 
ATOM     15  C   UNL     1      10.074   8.406  -9.635  0.00  0.00    +0.000 A 
ATOM     16  C   UNL     1       9.068   9.115  -8.984  0.00  0.00    +0.000 A 
ENDBRANCH  10  11
ENDBRANCH   1  10
TORSDOF 2
ENDMDL
MODEL 3
REMARK VINA RESULT:    -4.897      3.807      6.477
REMARK INTER + INTRA:          -5.604
REMARK INTER:                  -5.423
REMARK INTRA:                  -0.180
REMARK UNBOUND:                -0.134
REMARK  Name = 1550473
REMARK  2 active torsions:
REMARK  status: ('A' for Active; 'I' for Inactive)
REMARK    1  A    between atoms: N_1  and  C_4
REMARK    2  A    between atoms: C_4  and  C_5
REMARK                            x       y       z     vdW  Elec       q    Type
REMARK                         _______ _______ _______ _____ _____    ______ ____
ROOT
ATOM      1  N   UNL     1       7.817  -0.406  -3.411  0.00  0.00    -0.354 N 
ATOM      2  N   UNL     1       6.486  -2.080  -2.523  0.00  0.00    -0.372 N 
ATOM      3  N   UNL     1       6.383   0.022  -1.608  0.00  0.00    -0.372 N 
ATOM      4  C   UNL     1       6.904  -0.808  -2.518  0.00  0.00    +0.166 C 
ATOM      5  H   UNL     1       8.195  -1.091  -4.055  0.00  0.00    +0.163 HD
ATOM      6  H   UNL     1       5.795  -2.411  -1.863  0.00  0.00    +0.159 HD
ATOM      7  H   UNL     1       6.831  -2.752  -3.197  0.00  0.00    +0.159 HD
ATOM      8  H   UNL     1       6.661   0.993  -1.548  0.00  0.00    +0.159 HD
ATOM      9  H   UNL     1       5.699  -0.294  -0.932  0.00  0.00    +0.159 HD
ENDROOT
BRANCH   1  10
ATOM     10  C   UNL     1       8.299   0.970  -3.525  0.00  0.00    +0.151 C 
BRANCH  10  11
ATOM     11  C   UNL     1       9.630   1.083  -2.834  0.00  0.00    -0.028 A 
ATOM     12  C   UNL     1      10.791   0.579  -3.438  0.00  0.00    +0.005 A 
ATOM     13  C   UNL     1       9.737   1.698  -1.577  0.00  0.00    +0.005 A 
ATOM     14  C   UNL     1      12.032   0.711  -2.810  0.00  0.00    +0.000 A 
ATOM     15  C   UNL     1      10.978   1.827  -0.953  0.00  0.00    +0.000 A 
ATOM     16  C   UNL     1      12.125   1.335  -1.571  0.00  0.00    +0.000 A 
ENDBRANCH  10  11
ENDBRANCH   1  10
TORSDOF 2
ENDMDL
MODEL 4
REMARK VINA RESULT:    -4.845      4.429      5.708
REMARK INTER + INTRA:          -5.546
REMARK INTER:                  -5.388
REMARK INTRA:                  -0.158
REMARK UNBOUND:                -0.134
REMARK  Name = 1550473
REMARK  2 active torsions:
REMARK  status: ('A' for Active; 'I' for Inactive)
REMARK    1  A    between atoms: N_1  and  C_4
REMARK    2  A    between atoms: C_4  and  C_5
REMARK                            x       y       z     vdW  Elec       q    Type
REMARK                         _______ _______ _______ _____ _____    ______ ____
ROOT
ATOM      1  N   UNL     1       7.993   0.949  -2.282  0.00  0.00    -0.354 N 
ATOM      2  N   UNL     1       6.143  -0.253  -1.577  0.00  0.00    -0.372 N 
ATOM      3  N   UNL     1       8.229  -0.924  -0.894  0.00  0.00    -0.372 N 
ATOM      4  C   UNL     1       7.469  -0.070  -1.588  0.00  0.00    +0.166 C 
ATOM      5  H   UNL     1       7.366   1.544  -2.812  0.00  0.00    +0.163 HD
ATOM      6  H   UNL     1       5.719  -1.011  -1.060  0.00  0.00    +0.159 HD
ATOM      7  H   UNL     1       5.515   0.370  -2.070  0.00  0.00    +0.159 HD
ATOM      8  H   UNL     1       9.236  -0.844  -0.866  0.00  0.00    +0.159 HD
ATOM      9  H   UNL     1       7.823  -1.696  -0.379  0.00  0.00    +0.159 HD
ENDROOT
BRANCH   1  10
ATOM     10  C   UNL     1       9.419   1.268  -2.315  0.00  0.00    +0.151 C 
BRANCH  10  11
ATOM     11  C   UNL     1       9.968   0.925  -3.673  0.00  0.00    -0.028 A 
ATOM     12  C   UNL     1      11.314   0.561  -3.826  0.00  0.00    +0.005 A 
ATOM     13  C   UNL     1       9.145   0.955  -4.809  0.00  0.00    +0.005 A 
ATOM     14  C   UNL     1      11.817   0.213  -5.082  0.00  0.00    +0.000 A 
ATOM     15  C   UNL     1       9.651   0.608  -6.062  0.00  0.00    +0.000 A 
ATOM     16  C   UNL     1      10.986   0.234  -6.197  0.00  0.00    +0.000 A 
ENDBRANCH  10  11
ENDBRANCH   1  10
TORSDOF 2
ENDMDL
MODEL 5
REMARK VINA RESULT:    -4.637      4.015      5.605
REMARK INTER + INTRA:          -5.314
REMARK INTER:                  -5.195
REMARK INTRA:                  -0.119
REMARK UNBOUND:                -0.134
REMARK  Name = 1550473
REMARK  2 active torsions:
REMARK  status: ('A' for Active; 'I' for Inactive)
REMARK    1  A    between atoms: N_1  and  C_4
REMARK    2  A    between atoms: C_4  and  C_5
REMARK                            x       y       z     vdW  Elec       q    Type
REMARK                         _______ _______ _______ _____ _____    ______ ____
ROOT
ATOM      1  N   UNL     1       8.921   1.587  -4.895  0.00  0.00    -0.354 N 
ATOM      2  N   UNL     1       8.526   1.702  -2.615  0.00  0.00    -0.372 N 
ATOM      3  N   UNL     1       7.808  -0.144  -3.773  0.00  0.00    -0.372 N 
ATOM      4  C   UNL     1       8.419   1.045  -3.777  0.00  0.00    +0.166 C 
ATOM      5  H   UNL     1       9.346   2.505  -4.836  0.00  0.00    +0.163 HD
ATOM      6  H   UNL     1       8.160   1.317  -1.755  0.00  0.00    +0.159 HD
ATOM      7  H   UNL     1       8.992   2.599  -2.552  0.00  0.00    +0.159 HD
ATOM      8  H   UNL     1       7.690  -0.688  -4.617  0.00  0.00    +0.159 HD
ATOM      9  H   UNL     1       7.425  -0.541  -2.924  0.00  0.00    +0.159 HD
ENDROOT
BRANCH   1  10
ATOM     10  C   UNL     1       8.905   0.929  -6.200  0.00  0.00    +0.151 C 
BRANCH  10  11
ATOM     11  C   UNL     1       8.785   1.974  -7.275  0.00  0.00    -0.028 A 
ATOM     12  C   UNL     1       9.389   3.230  -7.118  0.00  0.00    +0.005 A 
ATOM     13  C   UNL     1       8.072   1.712  -8.455  0.00  0.00    +0.005 A 
ATOM     14  C   UNL     1       9.303   4.190  -8.129  0.00  0.00    +0.000 A 
ATOM     15  C   UNL     1       7.988   2.674  -9.462  0.00  0.00    +0.000 A 
ATOM     16  C   UNL     1       8.605   3.912  -9.299  0.00  0.00    +0.000 A 
ENDBRANCH  10  11
ENDBRANCH   1  10
TORSDOF 2
ENDMDL
MODEL 6
REMARK VINA RESULT:    -4.489     25.767     27.502
REMARK INTER + INTRA:          -5.148
REMARK INTER:                  -5.016
REMARK INTRA:                  -0.132
REMARK UNBOUND:                -0.134
REMARK  Name = 1550473
REMARK  2 active torsions:
REMARK  status: ('A' for Active; 'I' for Inactive)
REMARK    1  A    between atoms: N_1  and  C_4
REMARK    2  A    between atoms: C_4  and  C_5
REMARK                            x       y       z     vdW  Elec       q    Type
REMARK                         _______ _______ _______ _____ _____    ______ ____
ROOT
ATOM      1  N   UNL     1     -18.124 -11.616   3.518  0.00  0.00    -0.354 N 
ATOM      2  N   UNL     1     -17.898 -13.878   3.961  0.00  0.00    -0.372 N 
ATOM      3  N   UNL     1     -18.212 -12.431   5.714  0.00  0.00    -0.372 N 
ATOM      4  C   UNL     1     -18.079 -12.626   4.398  0.00  0.00    +0.166 C 
ATOM      5  H   UNL     1     -17.987 -11.827   2.536  0.00  0.00    +0.163 HD
ATOM      6  H   UNL     1     -17.863 -14.661   4.601  0.00  0.00    +0.159 HD
ATOM      7  H   UNL     1     -17.807 -14.091   2.975  0.00  0.00    +0.159 HD
ATOM      8  H   UNL     1     -18.345 -11.509   6.108  0.00  0.00    +0.159 HD
ATOM      9  H   UNL     1     -18.168 -13.200   6.371  0.00  0.00    +0.159 HD
ENDROOT
BRANCH   1  10
ATOM     10  C   UNL     1     -18.371 -10.223   3.885  0.00  0.00    +0.151 C 
BRANCH  10  11
ATOM     11  C   UNL     1     -17.312  -9.356   3.261  0.00  0.00    -0.028 A 
ATOM     12  C   UNL     1     -16.801  -8.248   3.953  0.00  0.00    +0.005 A 
ATOM     13  C   UNL     1     -16.812  -9.640   1.981  0.00  0.00    +0.005 A 
ATOM     14  C   UNL     1     -15.796  -7.460   3.386  0.00  0.00    +0.000 A 
ATOM     15  C   UNL     1     -15.810  -8.851   1.418  0.00  0.00    +0.000 A 
ATOM     16  C   UNL     1     -15.300  -7.762   2.122  0.00  0.00    +0.000 A 
ENDBRANCH  10  11
ENDBRANCH   1  10
TORSDOF 2
ENDMDL
MODEL 7
REMARK VINA RESULT:    -4.399     19.194     20.495
REMARK INTER + INTRA:          -5.048
REMARK INTER:                  -4.920
REMARK INTRA:                  -0.128
REMARK UNBOUND:                -0.134
REMARK  Name = 1550473
REMARK  2 active torsions:
REMARK  status: ('A' for Active; 'I' for Inactive)
REMARK    1  A    between atoms: N_1  and  C_4
REMARK    2  A    between atoms: C_4  and  C_5
REMARK                            x       y       z     vdW  Elec       q    Type
REMARK                         _______ _______ _______ _____ _____    ______ ____
ROOT
ATOM      1  N   UNL     1      -5.711 -14.355   2.921  0.00  0.00    -0.354 N 
ATOM      2  N   UNL     1      -3.474 -13.760   3.006  0.00  0.00    -0.372 N 
ATOM      3  N   UNL     1      -4.918 -12.871   4.552  0.00  0.00    -0.372 N 
ATOM      4  C   UNL     1      -4.717 -13.664   3.495  0.00  0.00    +0.166 C 
ATOM      5  H   UNL     1      -5.499 -14.915   2.104  0.00  0.00    +0.163 HD
ATOM      6  H   UNL     1      -2.703 -13.253   3.420  0.00  0.00    +0.159 HD
ATOM      7  H   UNL     1      -3.257 -14.356   2.217  0.00  0.00    +0.159 HD
ATOM      8  H   UNL     1      -5.833 -12.751   4.965  0.00  0.00    +0.159 HD
ATOM      9  H   UNL     1      -4.161 -12.347   4.973  0.00  0.00    +0.159 HD
ENDROOT
BRANCH   1  10
ATOM     10  C   UNL     1      -7.089 -14.362   3.409  0.00  0.00    +0.151 C 
BRANCH  10  11
ATOM     11  C   UNL     1      -8.010 -13.976   2.285  0.00  0.00    -0.028 A 
ATOM     12  C   UNL     1      -8.860 -12.868   2.410  0.00  0.00    +0.005 A 
ATOM     13  C   UNL     1      -8.033 -14.711   1.090  0.00  0.00    +0.005 A 
ATOM     14  C   UNL     1      -9.695 -12.490   1.355  0.00  0.00    +0.000 A 
ATOM     15  C   UNL     1      -8.868 -14.331   0.039  0.00  0.00    +0.000 A 
ATOM     16  C   UNL     1      -9.697 -13.220   0.171  0.00  0.00    +0.000 A 
ENDBRANCH  10  11
ENDBRANCH   1  10
TORSDOF 2
ENDMDL
MODEL 8
REMARK VINA RESULT:    -4.352      7.727      8.673
REMARK INTER + INTRA:          -4.995
REMARK INTER:                  -4.851
REMARK INTRA:                  -0.144
REMARK UNBOUND:                -0.134
REMARK  Name = 1550473
REMARK  2 active torsions:
REMARK  status: ('A' for Active; 'I' for Inactive)
REMARK    1  A    between atoms: N_1  and  C_4
REMARK    2  A    between atoms: C_4  and  C_5
REMARK                            x       y       z     vdW  Elec       q    Type
REMARK                         _______ _______ _______ _____ _____    ______ ____
ROOT
ATOM      1  N   UNL     1      10.933  -8.067  -9.912  0.00  0.00    -0.354 N 
ATOM      2  N   UNL     1      12.970  -7.248 -10.648  0.00  0.00    -0.372 N 
ATOM      3  N   UNL     1      11.247  -5.776 -10.289  0.00  0.00    -0.372 N 
ATOM      4  C   UNL     1      11.702  -7.033 -10.278  0.00  0.00    +0.166 C 
ATOM      5  H   UNL     1      11.328  -8.999  -9.954  0.00  0.00    +0.163 HD
ATOM      6  H   UNL     1      13.576  -6.487 -10.926  0.00  0.00    +0.159 HD
ATOM      7  H   UNL     1      13.377  -8.175 -10.645  0.00  0.00    +0.159 HD
ATOM      8  H   UNL     1      10.298  -5.547 -10.027  0.00  0.00    +0.159 HD
ATOM      9  H   UNL     1      11.834  -5.002 -10.576  0.00  0.00    +0.159 HD
ENDROOT
BRANCH   1  10
ATOM     10  C   UNL     1       9.556  -7.935  -9.441  0.00  0.00    +0.151 C 
BRANCH  10  11
ATOM     11  C   UNL     1       9.457  -8.492  -8.047  0.00  0.00    -0.028 A 
ATOM     12  C   UNL     1       8.538  -7.960  -7.131  0.00  0.00    +0.005 A 
ATOM     13  C   UNL     1      10.277  -9.555  -7.639  0.00  0.00    +0.005 A 
ATOM     14  C   UNL     1       8.425  -8.497  -5.846  0.00  0.00    +0.000 A 
ATOM     15  C   UNL     1      10.162 -10.088  -6.355  0.00  0.00    +0.000 A 
ATOM     16  C   UNL     1       9.234  -9.560  -5.460  0.00  0.00    +0.000 A 
ENDBRANCH  10  11
ENDBRANCH   1  10
TORSDOF 2
ENDMDL
MODEL 9
REMARK VINA RESULT:    -4.311     19.885     20.744
REMARK INTER + INTRA:          -4.949
REMARK INTER:                  -4.836
REMARK INTRA:                  -0.113
REMARK UNBOUND:                -0.134
REMARK  Name = 1550473
REMARK  2 active torsions:
REMARK  status: ('A' for Active; 'I' for Inactive)
REMARK    1  A    between atoms: N_1  and  C_4
REMARK    2  A    between atoms: C_4  and  C_5
REMARK                            x       y       z     vdW  Elec       q    Type
REMARK                         _______ _______ _______ _____ _____    ______ ____
ROOT
ATOM      1  N   UNL     1      -3.962  -1.305  10.846  0.00  0.00    -0.354 N 
ATOM      2  N   UNL     1      -1.984  -0.940   9.697  0.00  0.00    -0.372 N 
ATOM      3  N   UNL     1      -1.887  -1.523  11.914  0.00  0.00    -0.372 N 
ATOM      4  C   UNL     1      -2.623  -1.259  10.829  0.00  0.00    +0.166 C 
ATOM      5  H   UNL     1      -4.462  -1.065   9.998  0.00  0.00    +0.163 HD
ATOM      6  H   UNL     1      -0.974  -0.900   9.653  0.00  0.00    +0.159 HD
ATOM      7  H   UNL     1      -2.485  -0.745   8.839  0.00  0.00    +0.159 HD
ATOM      8  H   UNL     1      -2.309  -1.764  12.801  0.00  0.00    +0.159 HD
ATOM      9  H   UNL     1      -0.876  -1.476  11.894  0.00  0.00    +0.159 HD
ENDROOT
BRANCH   1  10
ATOM     10  C   UNL     1      -4.752  -1.694  12.012  0.00  0.00    +0.151 C 
BRANCH  10  11
ATOM     11  C   UNL     1      -5.974  -2.440  11.551  0.00  0.00    -0.028 A 
ATOM     12  C   UNL     1      -6.744  -1.954  10.484  0.00  0.00    +0.005 A 
ATOM     13  C   UNL     1      -6.364  -3.635  12.174  0.00  0.00    +0.005 A 
ATOM     14  C   UNL     1      -7.862  -2.662  10.037  0.00  0.00    +0.000 A 
ATOM     15  C   UNL     1      -7.481  -4.339  11.724  0.00  0.00    +0.000 A 
ATOM     16  C   UNL     1      -8.229  -3.853  10.654  0.00  0.00    +0.000 A 
ENDBRANCH  10  11
ENDBRANCH   1  10
TORSDOF 2
ENDMDL
