MODEL 1
REMARK VINA RESULT:    -5.412      0.000      0.000
REMARK INTER + INTRA:          -6.175
REMARK INTER:                  -6.045
REMARK INTRA:                  -0.130
REMARK UNBOUND:                -0.130
REMARK  Name = 1550473
REMARK  2 active torsions:
REMARK  status: ('A' for Active; 'I' for Inactive)
REMARK    1  A    between atoms: N_1  and  C_4
REMARK    2  A    between atoms: C_4  and  C_5
REMARK                            x       y       z     vdW  Elec       q    Type
REMARK                         _______ _______ _______ _____ _____    ______ ____
ROOT
ATOM      1  N   UNL     1      -3.895  -0.313  -5.764  0.00  0.00    -0.354 N 
ATOM      2  N   UNL     1      -2.815   0.207  -3.783  0.00  0.00    -0.372 N 
ATOM      3  N   UNL     1      -1.636  -0.848  -5.444  0.00  0.00    -0.372 N 
ATOM      4  C   UNL     1      -2.787  -0.323  -5.011  0.00  0.00    +0.166 C 
ATOM      5  H   UNL     1      -4.743   0.073  -5.367  0.00  0.00    +0.163 HD
ATOM      6  H   UNL     1      -1.994   0.218  -3.193  0.00  0.00    +0.159 HD
ATOM      7  H   UNL     1      -3.652   0.634  -3.405  0.00  0.00    +0.159 HD
ATOM      8  H   UNL     1      -1.550  -1.269  -6.360  0.00  0.00    +0.159 HD
ATOM      9  H   UNL     1      -0.806  -0.858  -4.864  0.00  0.00    +0.159 HD
ENDROOT
BRANCH   1  10
ATOM     10  C   UNL     1      -3.956  -0.816  -7.136  0.00  0.00    +0.151 C 
BRANCH  10  11
ATOM     11  C   UNL     1      -5.354  -1.291  -7.422  0.00  0.00    -0.028 A 
ATOM     12  C   UNL     1      -6.374  -1.112  -6.477  0.00  0.00    +0.005 A 
ATOM     13  C   UNL     1      -5.665  -1.916  -8.640  0.00  0.00    +0.005 A 
ATOM     14  C   UNL     1      -7.679  -1.526  -6.756  0.00  0.00    +0.000 A 
ATOM     15  C   UNL     1      -6.969  -2.328  -8.914  0.00  0.00    +0.000 A 
ATOM     16  C   UNL     1      -7.976  -2.131  -7.972  0.00  0.00    +0.000 A 
ENDBRANCH  10  11
ENDBRANCH   1  10
TORSDOF 2
ENDMDL
MODEL 2
REMARK VINA RESULT:    -5.370      1.634      2.439
REMARK INTER + INTRA:          -6.128
REMARK INTER:                  -5.995
REMARK INTRA:                  -0.133
REMARK UNBOUND:                -0.130
REMARK  Name = 1550473
REMARK  2 active torsions:
REMARK  status: ('A' for Active; 'I' for Inactive)
REMARK    1  A    between atoms: N_1  and  C_4
REMARK    2  A    between atoms: C_4  and  C_5
REMARK                            x       y       z     vdW  Elec       q    Type
REMARK                         _______ _______ _______ _____ _____    ______ ____
ROOT
ATOM      1  N   UNL     1      -2.582  -0.081  -6.794  0.00  0.00    -0.354 N 
ATOM      2  N   UNL     1      -0.428   0.606  -7.296  0.00  0.00    -0.372 N 
ATOM      3  N   UNL     1      -1.818   2.047  -6.176  0.00  0.00    -0.372 N 
ATOM      4  C   UNL     1      -1.624   0.855  -6.751  0.00  0.00    +0.166 C 
ATOM      5  H   UNL     1      -2.382  -0.952  -7.271  0.00  0.00    +0.163 HD
ATOM      6  H   UNL     1       0.315   1.292  -7.276  0.00  0.00    +0.159 HD
ATOM      7  H   UNL     1      -0.215  -0.283  -7.732  0.00  0.00    +0.159 HD
ATOM      8  H   UNL     1      -2.701   2.299  -5.751  0.00  0.00    +0.159 HD
ATOM      9  H   UNL     1      -1.091   2.751  -6.156  0.00  0.00    +0.159 HD
ENDROOT
BRANCH   1  10
ATOM     10  C   UNL     1      -3.901   0.070  -6.183  0.00  0.00    +0.151 C 
BRANCH  10  11
ATOM     11  C   UNL     1      -4.911  -0.686  -7.001  0.00  0.00    -0.028 A 
ATOM     12  C   UNL     1      -4.569  -1.193  -8.263  0.00  0.00    +0.005 A 
ATOM     13  C   UNL     1      -6.210  -0.904  -6.518  0.00  0.00    +0.005 A 
ATOM     14  C   UNL     1      -5.497  -1.921  -9.011  0.00  0.00    +0.000 A 
ATOM     15  C   UNL     1      -7.135  -1.631  -7.268  0.00  0.00    +0.000 A 
ATOM     16  C   UNL     1      -6.777  -2.141  -8.513  0.00  0.00    +0.000 A 
ENDBRANCH  10  11
ENDBRANCH   1  10
TORSDOF 2
ENDMDL
MODEL 3
REMARK VINA RESULT:    -5.281      3.738      4.517
REMARK INTER + INTRA:          -6.029
REMARK INTER:                  -5.853
REMARK INTRA:                  -0.176
REMARK UNBOUND:                -0.130
REMARK  Name = 1550473
REMARK  2 active torsions:
REMARK  status: ('A' for Active; 'I' for Inactive)
REMARK    1  A    between atoms: N_1  and  C_4
REMARK    2  A    between atoms: C_4  and  C_5
REMARK                            x       y       z     vdW  Elec       q    Type
REMARK                         _______ _______ _______ _____ _____    ______ ____
ROOT
ATOM      1  N   UNL     1      -7.236  -3.082  -3.763  0.00  0.00    -0.354 N 
ATOM      2  N   UNL     1      -5.380  -4.015  -2.738  0.00  0.00    -0.372 N 
ATOM      3  N   UNL     1      -7.267  -5.295  -2.994  0.00  0.00    -0.372 N 
ATOM      4  C   UNL     1      -6.642  -4.127  -3.171  0.00  0.00    +0.166 C 
ATOM      5  H   UNL     1      -6.718  -2.214  -3.840  0.00  0.00    +0.163 HD
ATOM      6  H   UNL     1      -4.905  -4.788  -2.291  0.00  0.00    +0.159 HD
ATOM      7  H   UNL     1      -4.849  -3.161  -2.858  0.00  0.00    +0.159 HD
ATOM      8  H   UNL     1      -8.222  -5.443  -3.293  0.00  0.00    +0.159 HD
ATOM      9  H   UNL     1      -6.812  -6.076  -2.538  0.00  0.00    +0.159 HD
ENDROOT
BRANCH   1  10
ATOM     10  C   UNL     1      -8.587  -3.116  -4.319  0.00  0.00    +0.151 C 
BRANCH  10  11
ATOM     11  C   UNL     1      -8.501  -3.156  -5.819  0.00  0.00    -0.028 A 
ATOM     12  C   UNL     1      -8.215  -1.991  -6.547  0.00  0.00    +0.005 A 
ATOM     13  C   UNL     1      -8.698  -4.356  -6.520  0.00  0.00    +0.005 A 
ATOM     14  C   UNL     1      -8.105  -2.033  -7.939  0.00  0.00    +0.000 A 
ATOM     15  C   UNL     1      -8.588  -4.394  -7.909  0.00  0.00    +0.000 A 
ATOM     16  C   UNL     1      -8.289  -3.233  -8.618  0.00  0.00    +0.000 A 
ENDBRANCH  10  11
ENDBRANCH   1  10
TORSDOF 2
ENDMDL
MODEL 4
REMARK VINA RESULT:    -4.920     12.448     13.745
REMARK INTER + INTRA:          -5.626
REMARK INTER:                  -5.504
REMARK INTRA:                  -0.121
REMARK UNBOUND:                -0.130
REMARK  Name = 1550473
REMARK  2 active torsions:
REMARK  status: ('A' for Active; 'I' for Inactive)
REMARK    1  A    between atoms: N_1  and  C_4
REMARK    2  A    between atoms: C_4  and  C_5
REMARK                            x       y       z     vdW  Elec       q    Type
REMARK                         _______ _______ _______ _____ _____    ______ ____
ROOT
ATOM      1  N   UNL     1     -17.094   4.117  -6.526  0.00  0.00    -0.354 N 
ATOM      2  N   UNL     1     -16.279   2.163  -7.463  0.00  0.00    -0.372 N 
ATOM      3  N   UNL     1     -16.596   2.255  -5.193  0.00  0.00    -0.372 N 
ATOM      4  C   UNL     1     -16.661   2.857  -6.385  0.00  0.00    +0.166 C 
ATOM      5  H   UNL     1     -17.091   4.527  -7.453  0.00  0.00    +0.163 HD
ATOM      6  H   UNL     1     -15.951   1.209  -7.389  0.00  0.00    +0.159 HD
ATOM      7  H   UNL     1     -16.320   2.559  -8.395  0.00  0.00    +0.159 HD
ATOM      8  H   UNL     1     -16.865   2.727  -4.339  0.00  0.00    +0.159 HD
ATOM      9  H   UNL     1     -16.260   1.305  -5.096  0.00  0.00    +0.159 HD
ENDROOT
BRANCH   1  10
ATOM     10  C   UNL     1     -17.584   4.942  -5.422  0.00  0.00    +0.151 C 
BRANCH  10  11
ATOM     11  C   UNL     1     -16.617   6.068  -5.184  0.00  0.00    -0.028 A 
ATOM     12  C   UNL     1     -16.844   6.996  -4.156  0.00  0.00    +0.005 A 
ATOM     13  C   UNL     1     -15.468   6.210  -5.977  0.00  0.00    +0.005 A 
ATOM     14  C   UNL     1     -15.930   8.025  -3.915  0.00  0.00    +0.000 A 
ATOM     15  C   UNL     1     -14.559   7.239  -5.733  0.00  0.00    +0.000 A 
ATOM     16  C   UNL     1     -14.789   8.145  -4.701  0.00  0.00    +0.000 A 
ENDBRANCH  10  11
ENDBRANCH   1  10
TORSDOF 2
ENDMDL
MODEL 5
REMARK VINA RESULT:    -4.896      5.810      7.882
REMARK INTER + INTRA:          -5.599
REMARK INTER:                  -5.480
REMARK INTRA:                  -0.119
REMARK UNBOUND:                -0.130
REMARK  Name = 1550473
REMARK  2 active torsions:
REMARK  status: ('A' for Active; 'I' for Inactive)
REMARK    1  A    between atoms: N_1  and  C_4
REMARK    2  A    between atoms: C_4  and  C_5
REMARK                            x       y       z     vdW  Elec       q    Type
REMARK                         _______ _______ _______ _____ _____    ______ ____
ROOT
ATOM      1  N   UNL     1      -2.807  -0.143  -1.612  0.00  0.00    -0.354 N 
ATOM      2  N   UNL     1      -2.535   0.522  -3.814  0.00  0.00    -0.372 N 
ATOM      3  N   UNL     1      -1.026   1.243  -2.243  0.00  0.00    -0.372 N 
ATOM      4  C   UNL     1      -2.122   0.538  -2.540  0.00  0.00    +0.166 C 
ATOM      5  H   UNL     1      -3.647  -0.633  -1.896  0.00  0.00    +0.163 HD
ATOM      6  H   UNL     1      -2.037   1.023  -4.537  0.00  0.00    +0.159 HD
ATOM      7  H   UNL     1      -3.349  -0.006  -4.103  0.00  0.00    +0.159 HD
ATOM      8  H   UNL     1      -0.665   1.301  -1.300  0.00  0.00    +0.159 HD
ATOM      9  H   UNL     1      -0.520   1.761  -2.951  0.00  0.00    +0.159 HD
ENDROOT
BRANCH   1  10
ATOM     10  C   UNL     1      -2.410  -0.235  -0.208  0.00  0.00    +0.151 C 
BRANCH  10  11
ATOM     11  C   UNL     1      -3.500   0.349   0.649  0.00  0.00    -0.028 A 
ATOM     12  C   UNL     1      -4.341   1.352   0.145  0.00  0.00    +0.005 A 
ATOM     13  C   UNL     1      -3.699  -0.100   1.964  0.00  0.00    +0.005 A 
ATOM     14  C   UNL     1      -5.372   1.874   0.931  0.00  0.00    +0.000 A 
ATOM     15  C   UNL     1      -4.729   0.424   2.745  0.00  0.00    +0.000 A 
ATOM     16  C   UNL     1      -5.567   1.409   2.227  0.00  0.00    +0.000 A 
ENDBRANCH  10  11
ENDBRANCH   1  10
TORSDOF 2
ENDMDL
MODEL 6
REMARK VINA RESULT:    -4.817     10.016     11.003
REMARK INTER + INTRA:          -5.511
REMARK INTER:                  -5.381
REMARK INTRA:                  -0.130
REMARK UNBOUND:                -0.130
REMARK  Name = 1550473
REMARK  2 active torsions:
REMARK  status: ('A' for Active; 'I' for Inactive)
REMARK    1  A    between atoms: N_1  and  C_4
REMARK    2  A    between atoms: C_4  and  C_5
REMARK                            x       y       z     vdW  Elec       q    Type
REMARK                         _______ _______ _______ _____ _____    ______ ____
ROOT
ATOM      1  N   UNL     1      -8.537  -6.537   0.744  0.00  0.00    -0.354 N 
ATOM      2  N   UNL     1      -6.229  -6.688   0.627  0.00  0.00    -0.372 N 
ATOM      3  N   UNL     1      -7.353  -8.016   2.123  0.00  0.00    -0.372 N 
ATOM      4  C   UNL     1      -7.389  -7.081   1.168  0.00  0.00    +0.166 C 
ATOM      5  H   UNL     1      -8.494  -5.811   0.038  0.00  0.00    +0.163 HD
ATOM      6  H   UNL     1      -5.347  -7.084   0.923  0.00  0.00    +0.159 HD
ATOM      7  H   UNL     1      -6.193  -5.996  -0.112  0.00  0.00    +0.159 HD
ATOM      8  H   UNL     1      -8.193  -8.351   2.576  0.00  0.00    +0.159 HD
ATOM      9  H   UNL     1      -6.479  -8.415   2.442  0.00  0.00    +0.159 HD
ENDROOT
BRANCH   1  10
ATOM     10  C   UNL     1      -9.858  -6.933   1.230  0.00  0.00    +0.151 C 
BRANCH  10  11
ATOM     11  C   UNL     1     -10.615  -5.704   1.651  0.00  0.00    -0.028 A 
ATOM     12  C   UNL     1     -11.352  -5.695   2.844  0.00  0.00    +0.005 A 
ATOM     13  C   UNL     1     -10.595  -4.542   0.863  0.00  0.00    +0.005 A 
ATOM     14  C   UNL     1     -12.031  -4.544   3.251  0.00  0.00    +0.000 A 
ATOM     15  C   UNL     1     -11.275  -3.395   1.272  0.00  0.00    +0.000 A 
ATOM     16  C   UNL     1     -11.991  -3.396   2.467  0.00  0.00    +0.000 A 
ENDBRANCH  10  11
ENDBRANCH   1  10
TORSDOF 2
ENDMDL
MODEL 7
REMARK VINA RESULT:    -4.785     23.669     24.752
REMARK INTER + INTRA:          -5.475
REMARK INTER:                  -5.306
REMARK INTRA:                  -0.169
REMARK UNBOUND:                -0.130
REMARK  Name = 1550473
REMARK  2 active torsions:
REMARK  status: ('A' for Active; 'I' for Inactive)
REMARK    1  A    between atoms: N_1  and  C_4
REMARK    2  A    between atoms: C_4  and  C_5
REMARK                            x       y       z     vdW  Elec       q    Type
REMARK                         _______ _______ _______ _____ _____    ______ ____
ROOT
ATOM      1  N   UNL     1      -0.913   4.577 -28.465  0.00  0.00    -0.354 N 
ATOM      2  N   UNL     1      -1.956   6.534 -27.795  0.00  0.00    -0.372 N 
ATOM      3  N   UNL     1       0.337   6.449 -27.810  0.00  0.00    -0.372 N 
ATOM      4  C   UNL     1      -0.835   5.841 -28.027  0.00  0.00    +0.166 C 
ATOM      5  H   UNL     1      -1.831   4.164 -28.581  0.00  0.00    +0.163 HD
ATOM      6  H   UNL     1      -1.929   7.490 -27.468  0.00  0.00    +0.159 HD
ATOM      7  H   UNL     1      -2.873   6.133 -27.956  0.00  0.00    +0.159 HD
ATOM      8  H   UNL     1       1.219   5.979 -27.960  0.00  0.00    +0.159 HD
ATOM      9  H   UNL     1       0.385   7.402 -27.471  0.00  0.00    +0.159 HD
ENDROOT
BRANCH   1  10
ATOM     10  C   UNL     1       0.248   3.755 -28.799  0.00  0.00    +0.151 C 
BRANCH  10  11
ATOM     11  C   UNL     1       0.330   3.604 -30.293  0.00  0.00    -0.028 A 
ATOM     12  C   UNL     1      -0.639   2.867 -30.988  0.00  0.00    +0.005 A 
ATOM     13  C   UNL     1       1.372   4.201 -31.019  0.00  0.00    +0.005 A 
ATOM     14  C   UNL     1      -0.581   2.752 -32.379  0.00  0.00    +0.000 A 
ATOM     15  C   UNL     1       1.428   4.082 -32.408  0.00  0.00    +0.000 A 
ATOM     16  C   UNL     1       0.450   3.360 -33.088  0.00  0.00    +0.000 A 
ENDBRANCH  10  11
ENDBRANCH   1  10
TORSDOF 2
ENDMDL
MODEL 8
REMARK VINA RESULT:    -4.739     14.668     16.846
REMARK INTER + INTRA:          -5.423
REMARK INTER:                  -5.270
REMARK INTRA:                  -0.154
REMARK UNBOUND:                -0.130
REMARK  Name = 1550473
REMARK  2 active torsions:
REMARK  status: ('A' for Active; 'I' for Inactive)
REMARK    1  A    between atoms: N_1  and  C_4
REMARK    2  A    between atoms: C_4  and  C_5
REMARK                            x       y       z     vdW  Elec       q    Type
REMARK                         _______ _______ _______ _____ _____    ______ ____
ROOT
ATOM      1  N   UNL     1      10.192  -1.195  -5.766  0.00  0.00    -0.354 N 
ATOM      2  N   UNL     1       8.358  -0.074  -6.629  0.00  0.00    -0.372 N 
ATOM      3  N   UNL     1      10.364   1.031  -6.476  0.00  0.00    -0.372 N 
ATOM      4  C   UNL     1       9.652  -0.084  -6.284  0.00  0.00    +0.166 C 
ATOM      5  H   UNL     1       9.591  -1.998  -5.617  0.00  0.00    +0.163 HD
ATOM      6  H   UNL     1       7.924   0.749  -7.026  0.00  0.00    +0.159 HD
ATOM      7  H   UNL     1       7.772  -0.892  -6.522  0.00  0.00    +0.159 HD
ATOM      8  H   UNL     1      11.343   1.090  -6.232  0.00  0.00    +0.159 HD
ATOM      9  H   UNL     1       9.944   1.868  -6.861  0.00  0.00    +0.159 HD
ENDROOT
BRANCH   1  10
ATOM     10  C   UNL     1      11.603  -1.328  -5.408  0.00  0.00    +0.151 C 
BRANCH  10  11
ATOM     11  C   UNL     1      11.720  -1.467  -3.915  0.00  0.00    -0.028 A 
ATOM     12  C   UNL     1      10.634  -1.925  -3.155  0.00  0.00    +0.005 A 
ATOM     13  C   UNL     1      12.916  -1.147  -3.255  0.00  0.00    +0.005 A 
ATOM     14  C   UNL     1      10.752  -2.082  -1.772  0.00  0.00    +0.000 A 
ATOM     15  C   UNL     1      13.030  -1.304  -1.874  0.00  0.00    +0.000 A 
ATOM     16  C   UNL     1      11.948  -1.774  -1.133  0.00  0.00    +0.000 A 
ENDBRANCH  10  11
ENDBRANCH   1  10
TORSDOF 2
ENDMDL
MODEL 9
REMARK VINA RESULT:    -4.680     17.689     19.238
REMARK INTER + INTRA:          -5.357
REMARK INTER:                  -5.192
REMARK INTRA:                  -0.165
REMARK UNBOUND:                -0.130
REMARK  Name = 1550473
REMARK  2 active torsions:
REMARK  status: ('A' for Active; 'I' for Inactive)
REMARK    1  A    between atoms: N_1  and  C_4
REMARK    2  A    between atoms: C_4  and  C_5
REMARK                            x       y       z     vdW  Elec       q    Type
REMARK                         _______ _______ _______ _____ _____    ______ ____
ROOT
ATOM      1  N   UNL     1     -12.528  -5.621 -24.283  0.00  0.00    -0.354 N 
ATOM      2  N   UNL     1     -14.797  -5.183 -24.128  0.00  0.00    -0.372 N 
ATOM      3  N   UNL     1     -14.111  -7.165 -25.058  0.00  0.00    -0.372 N 
ATOM      4  C   UNL     1     -13.797  -5.995 -24.492  0.00  0.00    +0.166 C 
ATOM      5  H   UNL     1     -12.356  -4.708 -23.877  0.00  0.00    +0.163 HD
ATOM      6  H   UNL     1     -15.765  -5.440 -24.271  0.00  0.00    +0.159 HD
ATOM      7  H   UNL     1     -14.623  -4.291 -23.681  0.00  0.00    +0.159 HD
ATOM      8  H   UNL     1     -13.403  -7.821 -25.361  0.00  0.00    +0.159 HD
ATOM      9  H   UNL     1     -15.073  -7.435 -25.220  0.00  0.00    +0.159 HD
ENDROOT
BRANCH   1  10
ATOM     10  C   UNL     1     -11.368  -6.455 -24.593  0.00  0.00    +0.151 C 
BRANCH  10  11
ATOM     11  C   UNL     1     -10.719  -6.892 -23.309  0.00  0.00    -0.028 A 
ATOM     12  C   UNL     1     -11.272  -7.935 -22.551  0.00  0.00    +0.005 A 
ATOM     13  C   UNL     1      -9.549  -6.271 -22.847  0.00  0.00    +0.005 A 
ATOM     14  C   UNL     1     -10.653  -8.361 -21.374  0.00  0.00    +0.000 A 
ATOM     15  C   UNL     1      -8.935  -6.699 -21.670  0.00  0.00    +0.000 A 
ATOM     16  C   UNL     1      -9.486  -7.746 -20.935  0.00  0.00    +0.000 A 
ENDBRANCH  10  11
ENDBRANCH   1  10
TORSDOF 2
ENDMDL
