MODEL 1
REMARK VINA RESULT:    -5.691      0.000      0.000
REMARK INTER + INTRA:          -6.489
REMARK INTER:                  -6.356
REMARK INTRA:                  -0.132
REMARK UNBOUND:                -0.132
REMARK  Name = 1550473
REMARK  2 active torsions:
REMARK  status: ('A' for Active; 'I' for Inactive)
REMARK    1  A    between atoms: N_1  and  C_4
REMARK    2  A    between atoms: C_4  and  C_5
REMARK                            x       y       z     vdW  Elec       q    Type
REMARK                         _______ _______ _______ _____ _____    ______ ____
ROOT
ATOM      1  N   UNL     1      -9.788  -6.868  -5.947  0.00  0.00    -0.354 N 
ATOM      2  N   UNL     1      -8.840  -4.838  -5.356  0.00  0.00    -0.372 N 
ATOM      3  N   UNL     1      -9.628  -6.218  -3.701  0.00  0.00    -0.372 N 
ATOM      4  C   UNL     1      -9.426  -5.989  -5.002  0.00  0.00    +0.166 C 
ATOM      5  H   UNL     1      -9.634  -6.621  -6.918  0.00  0.00    +0.163 HD
ATOM      6  H   UNL     1      -8.553  -4.158  -4.666  0.00  0.00    +0.159 HD
ATOM      7  H   UNL     1      -8.647  -4.615  -6.325  0.00  0.00    +0.159 HD
ATOM      8  H   UNL     1     -10.070  -7.065  -3.368  0.00  0.00    +0.159 HD
ATOM      9  H   UNL     1      -9.358  -5.544  -2.995  0.00  0.00    +0.159 HD
ENDROOT
BRANCH   1  10
ATOM     10  C   UNL     1     -10.383  -8.173  -5.664  0.00  0.00    +0.151 C 
BRANCH  10  11
ATOM     11  C   UNL     1      -9.943  -9.152  -6.717  0.00  0.00    -0.028 A 
ATOM     12  C   UNL     1      -9.089  -8.747  -7.754  0.00  0.00    +0.005 A 
ATOM     13  C   UNL     1     -10.372 -10.487  -6.682  0.00  0.00    +0.005 A 
ATOM     14  C   UNL     1      -8.656  -9.663  -8.715  0.00  0.00    +0.000 A 
ATOM     15  C   UNL     1      -9.938 -11.399  -7.644  0.00  0.00    +0.000 A 
ATOM     16  C   UNL     1      -9.078 -10.987  -8.659  0.00  0.00    +0.000 A 
ENDBRANCH  10  11
ENDBRANCH   1  10
TORSDOF 2
ENDMDL
MODEL 2
REMARK VINA RESULT:    -5.651      3.913      4.842
REMARK INTER + INTRA:          -6.444
REMARK INTER:                  -6.506
REMARK INTRA:                   0.062
REMARK UNBOUND:                -0.132
REMARK  Name = 1550473
REMARK  2 active torsions:
REMARK  status: ('A' for Active; 'I' for Inactive)
REMARK    1  A    between atoms: N_1  and  C_4
REMARK    2  A    between atoms: C_4  and  C_5
REMARK                            x       y       z     vdW  Elec       q    Type
REMARK                         _______ _______ _______ _____ _____    ______ ____
ROOT
ATOM      1  N   UNL     1      -9.577  -9.529 -10.976  0.00  0.00    -0.354 N 
ATOM      2  N   UNL     1     -10.123  -7.579 -12.100  0.00  0.00    -0.372 N 
ATOM      3  N   UNL     1     -11.813  -8.897 -11.279  0.00  0.00    -0.372 N 
ATOM      4  C   UNL     1     -10.503  -8.682 -11.444  0.00  0.00    +0.166 C 
ATOM      5  H   UNL     1      -8.601  -9.325 -11.161  0.00  0.00    +0.163 HD
ATOM      6  H   UNL     1     -10.799  -6.920 -12.461  0.00  0.00    +0.159 HD
ATOM      7  H   UNL     1      -9.146  -7.354 -12.243  0.00  0.00    +0.159 HD
ATOM      8  H   UNL     1     -12.165  -9.714 -10.798  0.00  0.00    +0.159 HD
ATOM      9  H   UNL     1     -12.505  -8.254 -11.643  0.00  0.00    +0.159 HD
ENDROOT
BRANCH   1  10
ATOM     10  C   UNL     1      -9.883 -10.731 -10.203  0.00  0.00    +0.151 C 
BRANCH  10  11
ATOM     11  C   UNL     1      -9.884 -10.386  -8.739  0.00  0.00    -0.028 A 
ATOM     12  C   UNL     1      -9.562  -9.089  -8.313  0.00  0.00    +0.005 A 
ATOM     13  C   UNL     1     -10.211 -11.350  -7.773  0.00  0.00    +0.005 A 
ATOM     14  C   UNL     1      -9.592  -8.760  -6.956  0.00  0.00    +0.000 A 
ATOM     15  C   UNL     1     -10.239 -11.017  -6.419  0.00  0.00    +0.000 A 
ATOM     16  C   UNL     1      -9.932  -9.722  -6.011  0.00  0.00    +0.000 A 
ENDBRANCH  10  11
ENDBRANCH   1  10
TORSDOF 2
ENDMDL
MODEL 3
REMARK VINA RESULT:    -5.542      7.767      8.213
REMARK INTER + INTRA:          -6.323
REMARK INTER:                  -6.205
REMARK INTRA:                  -0.118
REMARK UNBOUND:                -0.132
REMARK  Name = 1550473
REMARK  2 active torsions:
REMARK  status: ('A' for Active; 'I' for Inactive)
REMARK    1  A    between atoms: N_1  and  C_4
REMARK    2  A    between atoms: C_4  and  C_5
REMARK                            x       y       z     vdW  Elec       q    Type
REMARK                         _______ _______ _______ _____ _____    ______ ____
ROOT
ATOM      1  N   UNL     1      -9.391  -3.095 -12.937  0.00  0.00    -0.354 N 
ATOM      2  N   UNL     1     -10.640  -1.685 -11.590  0.00  0.00    -0.372 N 
ATOM      3  N   UNL     1     -10.986  -3.949 -11.447  0.00  0.00    -0.372 N 
ATOM      4  C   UNL     1     -10.332  -2.921 -11.999  0.00  0.00    +0.166 C 
ATOM      5  H   UNL     1      -8.953  -2.274 -13.338  0.00  0.00    +0.163 HD
ATOM      6  H   UNL     1     -11.344  -1.523 -10.882  0.00  0.00    +0.159 HD
ATOM      7  H   UNL     1     -10.169  -0.868 -11.959  0.00  0.00    +0.159 HD
ATOM      8  H   UNL     1     -10.804  -4.906 -11.717  0.00  0.00    +0.159 HD
ATOM      9  H   UNL     1     -11.702  -3.806 -10.746  0.00  0.00    +0.159 HD
ENDROOT
BRANCH   1  10
ATOM     10  C   UNL     1      -8.943  -4.403 -13.413  0.00  0.00    +0.151 C 
BRANCH  10  11
ATOM     11  C   UNL     1      -7.477  -4.557 -13.117  0.00  0.00    -0.028 A 
ATOM     12  C   UNL     1      -6.657  -5.324 -13.959  0.00  0.00    +0.005 A 
ATOM     13  C   UNL     1      -6.899  -3.935 -11.999  0.00  0.00    +0.005 A 
ATOM     14  C   UNL     1      -5.289  -5.443 -13.701  0.00  0.00    +0.000 A 
ATOM     15  C   UNL     1      -5.533  -4.058 -11.745  0.00  0.00    +0.000 A 
ATOM     16  C   UNL     1      -4.728  -4.810 -12.598  0.00  0.00    +0.000 A 
ENDBRANCH  10  11
ENDBRANCH   1  10
TORSDOF 2
ENDMDL
MODEL 4
REMARK VINA RESULT:    -5.507      3.522      5.023
REMARK INTER + INTRA:          -6.283
REMARK INTER:                  -6.164
REMARK INTRA:                  -0.119
REMARK UNBOUND:                -0.132
REMARK  Name = 1550473
REMARK  2 active torsions:
REMARK  status: ('A' for Active; 'I' for Inactive)
REMARK    1  A    between atoms: N_1  and  C_4
REMARK    2  A    between atoms: C_4  and  C_5
REMARK                            x       y       z     vdW  Elec       q    Type
REMARK                         _______ _______ _______ _____ _____    ______ ____
ROOT
ATOM      1  N   UNL     1     -11.436  -9.472  -9.474  0.00  0.00    -0.354 N 
ATOM      2  N   UNL     1     -11.356  -8.623 -11.628  0.00  0.00    -0.372 N 
ATOM      3  N   UNL     1      -9.566  -9.825 -10.842  0.00  0.00    -0.372 N 
ATOM      4  C   UNL     1     -10.784  -9.314 -10.634  0.00  0.00    +0.166 C 
ATOM      5  H   UNL     1     -12.344  -9.034  -9.369  0.00  0.00    +0.163 HD
ATOM      6  H   UNL     1     -10.890  -8.490 -12.515  0.00  0.00    +0.159 HD
ATOM      7  H   UNL     1     -12.283  -8.226 -11.536  0.00  0.00    +0.159 HD
ATOM      8  H   UNL     1      -9.077 -10.351 -10.130  0.00  0.00    +0.159 HD
ATOM      9  H   UNL     1      -9.078  -9.693 -11.719  0.00  0.00    +0.159 HD
ENDROOT
BRANCH   1  10
ATOM     10  C   UNL     1     -10.924 -10.252  -8.349  0.00  0.00    +0.151 C 
BRANCH  10  11
ATOM     11  C   UNL     1     -11.044  -9.435  -7.091  0.00  0.00    -0.028 A 
ATOM     12  C   UNL     1      -9.897  -8.948  -6.447  0.00  0.00    +0.005 A 
ATOM     13  C   UNL     1     -12.301  -9.140  -6.542  0.00  0.00    +0.005 A 
ATOM     14  C   UNL     1     -10.008  -8.164  -5.296  0.00  0.00    +0.000 A 
ATOM     15  C   UNL     1     -12.408  -8.358  -5.392  0.00  0.00    +0.000 A 
ATOM     16  C   UNL     1     -11.262  -7.868  -4.771  0.00  0.00    +0.000 A 
ENDBRANCH  10  11
ENDBRANCH   1  10
TORSDOF 2
ENDMDL
MODEL 5
REMARK VINA RESULT:    -5.462      7.188      8.446
REMARK INTER + INTRA:          -6.233
REMARK INTER:                  -6.092
REMARK INTRA:                  -0.141
REMARK UNBOUND:                -0.132
REMARK  Name = 1550473
REMARK  2 active torsions:
REMARK  status: ('A' for Active; 'I' for Inactive)
REMARK    1  A    between atoms: N_1  and  C_4
REMARK    2  A    between atoms: C_4  and  C_5
REMARK                            x       y       z     vdW  Elec       q    Type
REMARK                         _______ _______ _______ _____ _____    ______ ____
ROOT
ATOM      1  N   UNL     1      -7.876  -4.331 -12.792  0.00  0.00    -0.354 N 
ATOM      2  N   UNL     1      -9.898  -4.208 -11.670  0.00  0.00    -0.372 N 
ATOM      3  N   UNL     1      -9.317  -6.176 -12.697  0.00  0.00    -0.372 N 
ATOM      4  C   UNL     1      -9.017  -4.908 -12.395  0.00  0.00    +0.166 C 
ATOM      5  H   UNL     1      -7.721  -3.357 -12.556  0.00  0.00    +0.163 HD
ATOM      6  H   UNL     1     -10.766  -4.618 -11.353  0.00  0.00    +0.159 HD
ATOM      7  H   UNL     1      -9.721  -3.249 -11.396  0.00  0.00    +0.159 HD
ATOM      8  H   UNL     1      -8.698  -6.756 -13.246  0.00  0.00    +0.159 HD
ATOM      9  H   UNL     1     -10.187  -6.600 -12.399  0.00  0.00    +0.159 HD
ENDROOT
BRANCH   1  10
ATOM     10  C   UNL     1      -6.826  -5.022 -13.539  0.00  0.00    +0.151 C 
BRANCH  10  11
ATOM     11  C   UNL     1      -5.535  -4.928 -12.773  0.00  0.00    -0.028 A 
ATOM     12  C   UNL     1      -5.481  -4.243 -11.551  0.00  0.00    +0.005 A 
ATOM     13  C   UNL     1      -4.364  -5.527 -13.263  0.00  0.00    +0.005 A 
ATOM     14  C   UNL     1      -4.289  -4.181 -10.825  0.00  0.00    +0.000 A 
ATOM     15  C   UNL     1      -3.176  -5.462 -12.535  0.00  0.00    +0.000 A 
ATOM     16  C   UNL     1      -3.139  -4.791 -11.315  0.00  0.00    +0.000 A 
ENDBRANCH  10  11
ENDBRANCH   1  10
TORSDOF 2
ENDMDL
MODEL 6
REMARK VINA RESULT:    -5.358      4.374      5.975
REMARK INTER + INTRA:          -6.117
REMARK INTER:                  -5.960
REMARK INTRA:                  -0.157
REMARK UNBOUND:                -0.132
REMARK  Name = 1550473
REMARK  2 active torsions:
REMARK  status: ('A' for Active; 'I' for Inactive)
REMARK    1  A    between atoms: N_1  and  C_4
REMARK    2  A    between atoms: C_4  and  C_5
REMARK                            x       y       z     vdW  Elec       q    Type
REMARK                         _______ _______ _______ _____ _____    ______ ____
ROOT
ATOM      1  N   UNL     1      -9.877  -9.851 -11.504  0.00  0.00    -0.354 N 
ATOM      2  N   UNL     1      -9.264 -11.086 -13.364  0.00  0.00    -0.372 N 
ATOM      3  N   UNL     1     -11.432 -11.201 -12.621  0.00  0.00    -0.372 N 
ATOM      4  C   UNL     1     -10.198 -10.706 -12.484  0.00  0.00    +0.166 C 
ATOM      5  H   UNL     1      -8.916  -9.535 -11.436  0.00  0.00    +0.163 HD
ATOM      6  H   UNL     1      -9.478 -11.728 -14.117  0.00  0.00    +0.159 HD
ATOM      7  H   UNL     1      -8.316 -10.733 -13.322  0.00  0.00    +0.159 HD
ATOM      8  H   UNL     1     -12.181 -10.958 -11.986  0.00  0.00    +0.159 HD
ATOM      9  H   UNL     1     -11.662 -11.853 -13.361  0.00  0.00    +0.159 HD
ENDROOT
BRANCH   1  10
ATOM     10  C   UNL     1     -10.832  -9.332 -10.526  0.00  0.00    +0.151 C 
BRANCH  10  11
ATOM     11  C   UNL     1     -10.476  -9.859  -9.164  0.00  0.00    -0.028 A 
ATOM     12  C   UNL     1     -10.615 -11.224  -8.870  0.00  0.00    +0.005 A 
ATOM     13  C   UNL     1      -9.994  -9.001  -8.164  0.00  0.00    +0.005 A 
ATOM     14  C   UNL     1     -10.256 -11.719  -7.614  0.00  0.00    +0.000 A 
ATOM     15  C   UNL     1      -9.637  -9.499  -6.911  0.00  0.00    +0.000 A 
ATOM     16  C   UNL     1      -9.766 -10.859  -6.637  0.00  0.00    +0.000 A 
ENDBRANCH  10  11
ENDBRANCH   1  10
TORSDOF 2
ENDMDL
MODEL 7
REMARK VINA RESULT:    -5.297      1.965      3.258
REMARK INTER + INTRA:          -6.049
REMARK INTER:                  -5.907
REMARK INTRA:                  -0.141
REMARK UNBOUND:                -0.132
REMARK  Name = 1550473
REMARK  2 active torsions:
REMARK  status: ('A' for Active; 'I' for Inactive)
REMARK    1  A    between atoms: N_1  and  C_4
REMARK    2  A    between atoms: C_4  and  C_5
REMARK                            x       y       z     vdW  Elec       q    Type
REMARK                         _______ _______ _______ _____ _____    ______ ____
ROOT
ATOM      1  N   UNL     1      -9.534  -8.307  -7.457  0.00  0.00    -0.354 N 
ATOM      2  N   UNL     1     -10.959  -7.795  -5.704  0.00  0.00    -0.372 N 
ATOM      3  N   UNL     1      -9.859  -9.809  -5.688  0.00  0.00    -0.372 N 
ATOM      4  C   UNL     1     -10.107  -8.643  -6.294  0.00  0.00    +0.166 C 
ATOM      5  H   UNL     1      -9.787  -7.421  -7.880  0.00  0.00    +0.163 HD
ATOM      6  H   UNL     1     -11.404  -8.020  -4.824  0.00  0.00    +0.159 HD
ATOM      7  H   UNL     1     -11.174  -6.891  -6.106  0.00  0.00    +0.159 HD
ATOM      8  H   UNL     1      -9.231 -10.495  -6.085  0.00  0.00    +0.159 HD
ATOM      9  H   UNL     1     -10.304 -10.057  -4.813  0.00  0.00    +0.159 HD
ENDROOT
BRANCH   1  10
ATOM     10  C   UNL     1      -8.553  -9.135  -8.155  0.00  0.00    +0.151 C 
BRANCH  10  11
ATOM     11  C   UNL     1      -9.267 -10.018  -9.141  0.00  0.00    -0.028 A 
ATOM     12  C   UNL     1      -9.445 -11.383  -8.875  0.00  0.00    +0.005 A 
ATOM     13  C   UNL     1      -9.773  -9.493 -10.340  0.00  0.00    +0.005 A 
ATOM     14  C   UNL     1     -10.135 -12.198  -9.777  0.00  0.00    +0.000 A 
ATOM     15  C   UNL     1     -10.460 -10.310 -11.238  0.00  0.00    +0.000 A 
ATOM     16  C   UNL     1     -10.643 -11.661 -10.955  0.00  0.00    +0.000 A 
ENDBRANCH  10  11
ENDBRANCH   1  10
TORSDOF 2
ENDMDL
MODEL 8
REMARK VINA RESULT:    -5.202      2.020      2.516
REMARK INTER + INTRA:          -5.943
REMARK INTER:                  -5.790
REMARK INTRA:                  -0.153
REMARK UNBOUND:                -0.132
REMARK  Name = 1550473
REMARK  2 active torsions:
REMARK  status: ('A' for Active; 'I' for Inactive)
REMARK    1  A    between atoms: N_1  and  C_4
REMARK    2  A    between atoms: C_4  and  C_5
REMARK                            x       y       z     vdW  Elec       q    Type
REMARK                         _______ _______ _______ _____ _____    ______ ____
ROOT
ATOM      1  N   UNL     1     -10.309  -8.842  -5.652  0.00  0.00    -0.354 N 
ATOM      2  N   UNL     1     -11.794  -7.248  -4.865  0.00  0.00    -0.372 N 
ATOM      3  N   UNL     1     -12.512  -9.415  -5.095  0.00  0.00    -0.372 N 
ATOM      4  C   UNL     1     -11.530  -8.514  -5.210  0.00  0.00    +0.166 C 
ATOM      5  H   UNL     1      -9.618  -8.106  -5.744  0.00  0.00    +0.163 HD
ATOM      6  H   UNL     1     -12.705  -6.972  -4.525  0.00  0.00    +0.159 HD
ATOM      7  H   UNL     1     -11.088  -6.524  -4.915  0.00  0.00    +0.159 HD
ATOM      8  H   UNL     1     -12.379 -10.386  -5.344  0.00  0.00    +0.159 HD
ATOM      9  H   UNL     1     -13.434  -9.156  -4.768  0.00  0.00    +0.159 HD
ENDROOT
BRANCH   1  10
ATOM     10  C   UNL     1      -9.904 -10.202  -6.002  0.00  0.00    +0.151 C 
BRANCH  10  11
ATOM     11  C   UNL     1      -9.846 -10.328  -7.499  0.00  0.00    -0.028 A 
ATOM     12  C   UNL     1      -9.622  -9.199  -8.301  0.00  0.00    +0.005 A 
ATOM     13  C   UNL     1     -10.010 -11.574  -8.123  0.00  0.00    +0.005 A 
ATOM     14  C   UNL     1      -9.539  -9.320  -9.690  0.00  0.00    +0.000 A 
ATOM     15  C   UNL     1      -9.927 -11.691  -9.510  0.00  0.00    +0.000 A 
ATOM     16  C   UNL     1      -9.689 -10.564 -10.293  0.00  0.00    +0.000 A 
ENDBRANCH  10  11
ENDBRANCH   1  10
TORSDOF 2
ENDMDL
MODEL 9
REMARK VINA RESULT:    -5.020     16.116     18.122
REMARK INTER + INTRA:          -5.739
REMARK INTER:                  -5.614
REMARK INTRA:                  -0.125
REMARK UNBOUND:                -0.132
REMARK  Name = 1550473
REMARK  2 active torsions:
REMARK  status: ('A' for Active; 'I' for Inactive)
REMARK    1  A    between atoms: N_1  and  C_4
REMARK    2  A    between atoms: C_4  and  C_5
REMARK                            x       y       z     vdW  Elec       q    Type
REMARK                         _______ _______ _______ _____ _____    ______ ____
ROOT
ATOM      1  N   UNL     1       2.470   1.918  -9.799  0.00  0.00    -0.354 N 
ATOM      2  N   UNL     1       2.296  -0.062 -10.988  0.00  0.00    -0.372 N 
ATOM      3  N   UNL     1       3.239  -0.103  -8.897  0.00  0.00    -0.372 N 
ATOM      4  C   UNL     1       2.671   0.597  -9.885  0.00  0.00    +0.166 C 
ATOM      5  H   UNL     1       2.062   2.395 -10.595  0.00  0.00    +0.163 HD
ATOM      6  H   UNL     1       2.432  -1.060 -11.080  0.00  0.00    +0.159 HD
ATOM      7  H   UNL     1       1.846   0.410 -11.763  0.00  0.00    +0.159 HD
ATOM      8  H   UNL     1       3.550   0.336  -8.040  0.00  0.00    +0.159 HD
ATOM      9  H   UNL     1       3.394  -1.100  -8.975  0.00  0.00    +0.159 HD
ENDROOT
BRANCH   1  10
ATOM     10  C   UNL     1       2.793   2.720  -8.620  0.00  0.00    +0.151 C 
BRANCH  10  11
ATOM     11  C   UNL     1       2.923   4.162  -9.027  0.00  0.00    -0.028 A 
ATOM     12  C   UNL     1       2.467   4.591 -10.282  0.00  0.00    +0.005 A 
ATOM     13  C   UNL     1       3.497   5.105  -8.161  0.00  0.00    +0.005 A 
ATOM     14  C   UNL     1       2.561   5.936 -10.649  0.00  0.00    +0.000 A 
ATOM     15  C   UNL     1       3.590   6.446  -8.531  0.00  0.00    +0.000 A 
ATOM     16  C   UNL     1       3.119   6.862  -9.774  0.00  0.00    +0.000 A 
ENDBRANCH  10  11
ENDBRANCH   1  10
TORSDOF 2
ENDMDL
