MODEL 1
REMARK VINA RESULT:    -6.110      0.000      0.000
REMARK INTER + INTRA:          -6.954
REMARK INTER:                  -6.824
REMARK INTRA:                  -0.130
REMARK UNBOUND:                -0.130
REMARK  Name = 1550473
REMARK  2 active torsions:
REMARK  status: ('A' for Active; 'I' for Inactive)
REMARK    1  A    between atoms: N_1  and  C_4
REMARK    2  A    between atoms: C_4  and  C_5
REMARK                            x       y       z     vdW  Elec       q    Type
REMARK                         _______ _______ _______ _____ _____    ______ ____
ROOT
ATOM      1  N   UNL     1       1.044  -4.335  -1.418  0.00  0.00    -0.354 N 
ATOM      2  N   UNL     1       0.880  -2.181  -2.251  0.00  0.00    -0.372 N 
ATOM      3  N   UNL     1      -1.019  -3.228  -1.502  0.00  0.00    -0.372 N 
ATOM      4  C   UNL     1       0.300  -3.263  -1.718  0.00  0.00    +0.166 C 
ATOM      5  H   UNL     1       2.034  -4.310  -1.634  0.00  0.00    +0.163 HD
ATOM      6  H   UNL     1       0.344  -1.355  -2.485  0.00  0.00    +0.159 HD
ATOM      7  H   UNL     1       1.877  -2.141  -2.424  0.00  0.00    +0.159 HD
ATOM      8  H   UNL     1      -1.518  -4.014  -1.107  0.00  0.00    +0.159 HD
ATOM      9  H   UNL     1      -1.574  -2.415  -1.740  0.00  0.00    +0.159 HD
ENDROOT
BRANCH   1  10
ATOM     10  C   UNL     1       0.520  -5.544  -0.784  0.00  0.00    +0.151 C 
BRANCH  10  11
ATOM     11  C   UNL     1       1.255  -6.740  -1.322  0.00  0.00    -0.028 A 
ATOM     12  C   UNL     1       1.537  -7.835  -0.492  0.00  0.00    +0.005 A 
ATOM     13  C   UNL     1       1.669  -6.786  -2.662  0.00  0.00    +0.005 A 
ATOM     14  C   UNL     1       2.194  -8.959  -0.999  0.00  0.00    +0.000 A 
ATOM     15  C   UNL     1       2.325  -7.910  -3.164  0.00  0.00    +0.000 A 
ATOM     16  C   UNL     1       2.586  -8.997  -2.333  0.00  0.00    +0.000 A 
ENDBRANCH  10  11
ENDBRANCH   1  10
TORSDOF 2
ENDMDL
MODEL 2
REMARK VINA RESULT:    -6.018      4.802      6.380
REMARK INTER + INTRA:          -6.851
REMARK INTER:                  -6.742
REMARK INTRA:                  -0.109
REMARK UNBOUND:                -0.130
REMARK  Name = 1550473
REMARK  2 active torsions:
REMARK  status: ('A' for Active; 'I' for Inactive)
REMARK    1  A    between atoms: N_1  and  C_4
REMARK    2  A    between atoms: C_4  and  C_5
REMARK                            x       y       z     vdW  Elec       q    Type
REMARK                         _______ _______ _______ _____ _____    ______ ____
ROOT
ATOM      1  N   UNL     1       1.380  -3.990   0.992  0.00  0.00    -0.354 N 
ATOM      2  N   UNL     1       0.964  -4.419  -1.246  0.00  0.00    -0.372 N 
ATOM      3  N   UNL     1       0.856  -6.152   0.254  0.00  0.00    -0.372 N 
ATOM      4  C   UNL     1       1.069  -4.854   0.016  0.00  0.00    +0.166 C 
ATOM      5  H   UNL     1       1.559  -3.024   0.741  0.00  0.00    +0.163 HD
ATOM      6  H   UNL     1       0.728  -5.047  -2.003  0.00  0.00    +0.159 HD
ATOM      7  H   UNL     1       1.099  -3.445  -1.487  0.00  0.00    +0.159 HD
ATOM      8  H   UNL     1       0.926  -6.544   1.184  0.00  0.00    +0.159 HD
ATOM      9  H   UNL     1       0.630  -6.798  -0.492  0.00  0.00    +0.159 HD
ENDROOT
BRANCH   1  10
ATOM     10  C   UNL     1       1.466  -4.351   2.406  0.00  0.00    +0.151 C 
BRANCH  10  11
ATOM     11  C   UNL     1       2.270  -3.307   3.131  0.00  0.00    -0.028 A 
ATOM     12  C   UNL     1       3.242  -3.682   4.069  0.00  0.00    +0.005 A 
ATOM     13  C   UNL     1       2.067  -1.941   2.880  0.00  0.00    +0.005 A 
ATOM     14  C   UNL     1       4.010  -2.714   4.721  0.00  0.00    +0.000 A 
ATOM     15  C   UNL     1       2.835  -0.977   3.533  0.00  0.00    +0.000 A 
ATOM     16  C   UNL     1       3.808  -1.364   4.452  0.00  0.00    +0.000 A 
ENDBRANCH  10  11
ENDBRANCH   1  10
TORSDOF 2
ENDMDL
MODEL 3
REMARK VINA RESULT:    -5.755      2.121      3.051
REMARK INTER + INTRA:          -6.557
REMARK INTER:                  -6.478
REMARK INTRA:                  -0.079
REMARK UNBOUND:                -0.130
REMARK  Name = 1550473
REMARK  2 active torsions:
REMARK  status: ('A' for Active; 'I' for Inactive)
REMARK    1  A    between atoms: N_1  and  C_4
REMARK    2  A    between atoms: C_4  and  C_5
REMARK                            x       y       z     vdW  Elec       q    Type
REMARK                         _______ _______ _______ _____ _____    ______ ____
ROOT
ATOM      1  N   UNL     1       1.095  -4.608  -1.999  0.00  0.00    -0.354 N 
ATOM      2  N   UNL     1       0.312  -2.518  -1.382  0.00  0.00    -0.372 N 
ATOM      3  N   UNL     1      -0.942  -4.369  -0.866  0.00  0.00    -0.372 N 
ATOM      4  C   UNL     1       0.158  -3.847  -1.419  0.00  0.00    +0.166 C 
ATOM      5  H   UNL     1       1.892  -4.149  -2.427  0.00  0.00    +0.163 HD
ATOM      6  H   UNL     1      -0.376  -1.918  -0.948  0.00  0.00    +0.159 HD
ATOM      7  H   UNL     1       1.131  -2.065  -1.770  0.00  0.00    +0.159 HD
ATOM      8  H   UNL     1      -1.121  -5.364  -0.866  0.00  0.00    +0.159 HD
ATOM      9  H   UNL     1      -1.648  -3.784  -0.438  0.00  0.00    +0.159 HD
ENDROOT
BRANCH   1  10
ATOM     10  C   UNL     1       1.049  -6.069  -2.045  0.00  0.00    +0.151 C 
BRANCH  10  11
ATOM     11  C   UNL     1       0.706  -6.506  -3.443  0.00  0.00    -0.028 A 
ATOM     12  C   UNL     1       0.404  -5.557  -4.431  0.00  0.00    +0.005 A 
ATOM     13  C   UNL     1       0.687  -7.866  -3.787  0.00  0.00    +0.005 A 
ATOM     14  C   UNL     1       0.115  -5.961  -5.737  0.00  0.00    +0.000 A 
ATOM     15  C   UNL     1       0.397  -8.265  -5.091  0.00  0.00    +0.000 A 
ATOM     16  C   UNL     1       0.113  -7.312  -6.066  0.00  0.00    +0.000 A 
ENDBRANCH  10  11
ENDBRANCH   1  10
TORSDOF 2
ENDMDL
MODEL 4
REMARK VINA RESULT:    -5.708      1.178      1.869
REMARK INTER + INTRA:          -6.505
REMARK INTER:                  -6.357
REMARK INTRA:                  -0.148
REMARK UNBOUND:                -0.130
REMARK  Name = 1550473
REMARK  2 active torsions:
REMARK  status: ('A' for Active; 'I' for Inactive)
REMARK    1  A    between atoms: N_1  and  C_4
REMARK    2  A    between atoms: C_4  and  C_5
REMARK                            x       y       z     vdW  Elec       q    Type
REMARK                         _______ _______ _______ _____ _____    ______ ____
ROOT
ATOM      1  N   UNL     1       0.114  -4.636  -2.693  0.00  0.00    -0.354 N 
ATOM      2  N   UNL     1       0.097  -2.723  -1.387  0.00  0.00    -0.372 N 
ATOM      3  N   UNL     1      -1.457  -4.361  -0.976  0.00  0.00    -0.372 N 
ATOM      4  C   UNL     1      -0.418  -3.920  -1.693  0.00  0.00    +0.166 C 
ATOM      5  H   UNL     1       0.882  -4.233  -3.218  0.00  0.00    +0.163 HD
ATOM      6  H   UNL     1      -0.281  -2.162  -0.635  0.00  0.00    +0.159 HD
ATOM      7  H   UNL     1       0.893  -2.343  -1.883  0.00  0.00    +0.159 HD
ATOM      8  H   UNL     1      -1.895  -5.254  -1.160  0.00  0.00    +0.159 HD
ATOM      9  H   UNL     1      -1.856  -3.809  -0.227  0.00  0.00    +0.159 HD
ENDROOT
BRANCH   1  10
ATOM     10  C   UNL     1      -0.337  -5.974  -3.071  0.00  0.00    +0.151 C 
BRANCH  10  11
ATOM     11  C   UNL     1       0.664  -6.985  -2.586  0.00  0.00    -0.028 A 
ATOM     12  C   UNL     1       1.549  -7.599  -3.484  0.00  0.00    +0.005 A 
ATOM     13  C   UNL     1       0.737  -7.330  -1.227  0.00  0.00    +0.005 A 
ATOM     14  C   UNL     1       2.499  -8.517  -3.030  0.00  0.00    +0.000 A 
ATOM     15  C   UNL     1       1.687  -8.247  -0.777  0.00  0.00    +0.000 A 
ATOM     16  C   UNL     1       2.569  -8.838  -1.678  0.00  0.00    +0.000 A 
ENDBRANCH  10  11
ENDBRANCH   1  10
TORSDOF 2
ENDMDL
MODEL 5
REMARK VINA RESULT:    -5.330      3.072      5.040
REMARK INTER + INTRA:          -6.082
REMARK INTER:                  -5.964
REMARK INTRA:                  -0.118
REMARK UNBOUND:                -0.130
REMARK  Name = 1550473
REMARK  2 active torsions:
REMARK  status: ('A' for Active; 'I' for Inactive)
REMARK    1  A    between atoms: N_1  and  C_4
REMARK    2  A    between atoms: C_4  and  C_5
REMARK                            x       y       z     vdW  Elec       q    Type
REMARK                         _______ _______ _______ _____ _____    ______ ____
ROOT
ATOM      1  N   UNL     1       1.197  -7.521  -4.257  0.00  0.00    -0.354 N 
ATOM      2  N   UNL     1       2.314  -9.206  -3.128  0.00  0.00    -0.372 N 
ATOM      3  N   UNL     1       2.922  -7.026  -2.751  0.00  0.00    -0.372 N 
ATOM      4  C   UNL     1       2.139  -7.905  -3.385  0.00  0.00    +0.166 C 
ATOM      5  H   UNL     1       0.656  -8.238  -4.728  0.00  0.00    +0.163 HD
ATOM      6  H   UNL     1       3.014  -9.526  -2.472  0.00  0.00    +0.159 HD
ATOM      7  H   UNL     1       1.741  -9.918  -3.565  0.00  0.00    +0.159 HD
ATOM      8  H   UNL     1       2.845  -6.030  -2.905  0.00  0.00    +0.159 HD
ATOM      9  H   UNL     1       3.637  -7.327  -2.100  0.00  0.00    +0.159 HD
ENDROOT
BRANCH   1  10
ATOM     10  C   UNL     1       0.889  -6.126  -4.568  0.00  0.00    +0.151 C 
BRANCH  10  11
ATOM     11  C   UNL     1      -0.078  -5.597  -3.545  0.00  0.00    -0.028 A 
ATOM     12  C   UNL     1       0.297  -4.558  -2.681  0.00  0.00    +0.005 A 
ATOM     13  C   UNL     1      -1.373  -6.127  -3.439  0.00  0.00    +0.005 A 
ATOM     14  C   UNL     1      -0.611  -4.046  -1.751  0.00  0.00    +0.000 A 
ATOM     15  C   UNL     1      -2.277  -5.614  -2.508  0.00  0.00    +0.000 A 
ATOM     16  C   UNL     1      -1.896  -4.572  -1.666  0.00  0.00    +0.000 A 
ENDBRANCH  10  11
ENDBRANCH   1  10
TORSDOF 2
ENDMDL
MODEL 6
REMARK VINA RESULT:    -5.225      1.419      2.140
REMARK INTER + INTRA:          -5.965
REMARK INTER:                  -5.807
REMARK INTRA:                  -0.158
REMARK UNBOUND:                -0.130
REMARK  Name = 1550473
REMARK  2 active torsions:
REMARK  status: ('A' for Active; 'I' for Inactive)
REMARK    1  A    between atoms: N_1  and  C_4
REMARK    2  A    between atoms: C_4  and  C_5
REMARK                            x       y       z     vdW  Elec       q    Type
REMARK                         _______ _______ _______ _____ _____    ______ ____
ROOT
ATOM      1  N   UNL     1       0.451  -4.564  -0.352  0.00  0.00    -0.354 N 
ATOM      2  N   UNL     1       1.605  -2.747   0.503  0.00  0.00    -0.372 N 
ATOM      3  N   UNL     1       0.480  -2.512  -1.483  0.00  0.00    -0.372 N 
ATOM      4  C   UNL     1       0.837  -3.285  -0.452  0.00  0.00    +0.166 C 
ATOM      5  H   UNL     1       0.780  -5.106   0.439  0.00  0.00    +0.163 HD
ATOM      6  H   UNL     1       1.909  -1.784   0.457  0.00  0.00    +0.159 HD
ATOM      7  H   UNL     1       1.894  -3.278   1.316  0.00  0.00    +0.159 HD
ATOM      8  H   UNL     1      -0.093  -2.859  -2.240  0.00  0.00    +0.159 HD
ATOM      9  H   UNL     1       0.784  -1.549  -1.553  0.00  0.00    +0.159 HD
ENDROOT
BRANCH   1  10
ATOM     10  C   UNL     1      -0.429  -5.230  -1.311  0.00  0.00    +0.151 C 
BRANCH  10  11
ATOM     11  C   UNL     1       0.378  -6.200  -2.128  0.00  0.00    -0.028 A 
ATOM     12  C   UNL     1      -0.002  -6.515  -3.441  0.00  0.00    +0.005 A 
ATOM     13  C   UNL     1       1.529  -6.804  -1.597  0.00  0.00    +0.005 A 
ATOM     14  C   UNL     1       0.764  -7.394  -4.210  0.00  0.00    +0.000 A 
ATOM     15  C   UNL     1       2.291  -7.681  -2.368  0.00  0.00    +0.000 A 
ATOM     16  C   UNL     1       1.910  -7.974  -3.676  0.00  0.00    +0.000 A 
ENDBRANCH  10  11
ENDBRANCH   1  10
TORSDOF 2
ENDMDL
MODEL 7
REMARK VINA RESULT:    -5.209      3.848      5.045
REMARK INTER + INTRA:          -5.947
REMARK INTER:                  -5.774
REMARK INTRA:                  -0.173
REMARK UNBOUND:                -0.130
REMARK  Name = 1550473
REMARK  2 active torsions:
REMARK  status: ('A' for Active; 'I' for Inactive)
REMARK    1  A    between atoms: N_1  and  C_4
REMARK    2  A    between atoms: C_4  and  C_5
REMARK                            x       y       z     vdW  Elec       q    Type
REMARK                         _______ _______ _______ _____ _____    ______ ____
ROOT
ATOM      1  N   UNL     1       0.238  -5.837  -3.798  0.00  0.00    -0.354 N 
ATOM      2  N   UNL     1       1.874  -4.252  -4.214  0.00  0.00    -0.372 N 
ATOM      3  N   UNL     1       0.890  -4.313  -2.142  0.00  0.00    -0.372 N 
ATOM      4  C   UNL     1       0.989  -4.810  -3.379  0.00  0.00    +0.166 C 
ATOM      5  H   UNL     1       0.339  -6.148  -4.758  0.00  0.00    +0.163 HD
ATOM      6  H   UNL     1       2.457  -3.478  -3.925  0.00  0.00    +0.159 HD
ATOM      7  H   UNL     1       2.006  -4.594  -5.158  0.00  0.00    +0.159 HD
ATOM      8  H   UNL     1       0.237  -4.685  -1.466  0.00  0.00    +0.159 HD
ATOM      9  H   UNL     1       1.456  -3.531  -1.838  0.00  0.00    +0.159 HD
ENDROOT
BRANCH   1  10
ATOM     10  C   UNL     1      -0.717  -6.550  -2.952  0.00  0.00    +0.151 C 
BRANCH  10  11
ATOM     11  C   UNL     1      -2.096  -6.004  -3.200  0.00  0.00    -0.028 A 
ATOM     12  C   UNL     1      -2.685  -5.116  -2.287  0.00  0.00    +0.005 A 
ATOM     13  C   UNL     1      -2.817  -6.366  -4.348  0.00  0.00    +0.005 A 
ATOM     14  C   UNL     1      -3.954  -4.586  -2.532  0.00  0.00    +0.000 A 
ATOM     15  C   UNL     1      -4.084  -5.835  -4.588  0.00  0.00    +0.000 A 
ATOM     16  C   UNL     1      -4.651  -4.943  -3.681  0.00  0.00    +0.000 A 
ENDBRANCH  10  11
ENDBRANCH   1  10
TORSDOF 2
ENDMDL
MODEL 8
REMARK VINA RESULT:    -5.103      5.171      6.651
REMARK INTER + INTRA:          -5.829
REMARK INTER:                  -5.667
REMARK INTRA:                  -0.162
REMARK UNBOUND:                -0.130
REMARK  Name = 1550473
REMARK  2 active torsions:
REMARK  status: ('A' for Active; 'I' for Inactive)
REMARK    1  A    between atoms: N_1  and  C_4
REMARK    2  A    between atoms: C_4  and  C_5
REMARK                            x       y       z     vdW  Elec       q    Type
REMARK                         _______ _______ _______ _____ _____    ______ ____
ROOT
ATOM      1  N   UNL     1       1.385  -9.814  -6.941  0.00  0.00    -0.354 N 
ATOM      2  N   UNL     1       3.060 -10.370  -8.442  0.00  0.00    -0.372 N 
ATOM      3  N   UNL     1       3.425 -10.699  -6.201  0.00  0.00    -0.372 N 
ATOM      4  C   UNL     1       2.614 -10.291  -7.182  0.00  0.00    +0.166 C 
ATOM      5  H   UNL     1       0.831  -9.492  -7.727  0.00  0.00    +0.163 HD
ATOM      6  H   UNL     1       3.981 -10.729  -8.655  0.00  0.00    +0.159 HD
ATOM      7  H   UNL     1       2.486 -10.091  -9.229  0.00  0.00    +0.159 HD
ATOM      8  H   UNL     1       3.150 -10.659  -5.228  0.00  0.00    +0.159 HD
ATOM      9  H   UNL     1       4.355 -11.050  -6.393  0.00  0.00    +0.159 HD
ENDROOT
BRANCH   1  10
ATOM     10  C   UNL     1       0.785  -9.736  -5.611  0.00  0.00    +0.151 C 
BRANCH  10  11
ATOM     11  C   UNL     1       0.704  -8.294  -5.191  0.00  0.00    -0.028 A 
ATOM     12  C   UNL     1       1.296  -7.868  -3.993  0.00  0.00    +0.005 A 
ATOM     13  C   UNL     1       0.043  -7.349  -5.990  0.00  0.00    +0.005 A 
ATOM     14  C   UNL     1       1.248  -6.523  -3.618  0.00  0.00    +0.000 A 
ATOM     15  C   UNL     1      -0.004  -6.007  -5.611  0.00  0.00    +0.000 A 
ATOM     16  C   UNL     1       0.601  -5.594  -4.426  0.00  0.00    +0.000 A 
ENDBRANCH  10  11
ENDBRANCH   1  10
TORSDOF 2
ENDMDL
MODEL 9
REMARK VINA RESULT:    -4.958      3.868      5.227
REMARK INTER + INTRA:          -5.668
REMARK INTER:                  -5.518
REMARK INTRA:                  -0.150
REMARK UNBOUND:                -0.130
REMARK  Name = 1550473
REMARK  2 active torsions:
REMARK  status: ('A' for Active; 'I' for Inactive)
REMARK    1  A    between atoms: N_1  and  C_4
REMARK    2  A    between atoms: C_4  and  C_5
REMARK                            x       y       z     vdW  Elec       q    Type
REMARK                         _______ _______ _______ _____ _____    ______ ____
ROOT
ATOM      1  N   UNL     1      -0.089  -7.933  -4.593  0.00  0.00    -0.354 N 
ATOM      2  N   UNL     1       0.174  -8.182  -6.881  0.00  0.00    -0.372 N 
ATOM      3  N   UNL     1      -1.930  -8.353  -5.981  0.00  0.00    -0.372 N 
ATOM      4  C   UNL     1      -0.619  -8.155  -5.803  0.00  0.00    +0.166 C 
ATOM      5  H   UNL     1       0.916  -7.821  -4.522  0.00  0.00    +0.163 HD
ATOM      6  H   UNL     1      -0.198  -8.344  -7.807  0.00  0.00    +0.159 HD
ATOM      7  H   UNL     1       1.172  -8.024  -6.812  0.00  0.00    +0.159 HD
ATOM      8  H   UNL     1      -2.582  -8.351  -5.208  0.00  0.00    +0.159 HD
ATOM      9  H   UNL     1      -2.320  -8.528  -6.899  0.00  0.00    +0.159 HD
ENDROOT
BRANCH   1  10
ATOM     10  C   UNL     1      -0.872  -7.831  -3.363  0.00  0.00    +0.151 C 
BRANCH  10  11
ATOM     11  C   UNL     1      -0.764  -6.430  -2.828  0.00  0.00    -0.028 A 
ATOM     12  C   UNL     1      -1.849  -5.835  -2.167  0.00  0.00    +0.005 A 
ATOM     13  C   UNL     1       0.422  -5.694  -2.972  0.00  0.00    +0.005 A 
ATOM     14  C   UNL     1      -1.740  -4.545  -1.643  0.00  0.00    +0.000 A 
ATOM     15  C   UNL     1       0.527  -4.406  -2.448  0.00  0.00    +0.000 A 
ATOM     16  C   UNL     1      -0.553  -3.833  -1.781  0.00  0.00    +0.000 A 
ENDBRANCH  10  11
ENDBRANCH   1  10
TORSDOF 2
ENDMDL
