MODEL 1
REMARK VINA RESULT:    -4.730      0.000      0.000
REMARK INTER + INTRA:          -5.416
REMARK INTER:                  -5.283
REMARK INTRA:                  -0.133
REMARK UNBOUND:                -0.133
REMARK  Name = 1550473
REMARK  2 active torsions:
REMARK  status: ('A' for Active; 'I' for Inactive)
REMARK    1  A    between atoms: N_1  and  C_4
REMARK    2  A    between atoms: C_4  and  C_5
REMARK                            x       y       z     vdW  Elec       q    Type
REMARK                         _______ _______ _______ _____ _____    ______ ____
ROOT
ATOM      1  N   UNL     1      -9.141  -9.137  -7.981  0.00  0.00    -0.354 N 
ATOM      2  N   UNL     1      -9.195 -11.170  -9.088  0.00  0.00    -0.372 N 
ATOM      3  N   UNL     1      -8.183  -9.380 -10.106  0.00  0.00    -0.372 N 
ATOM      4  C   UNL     1      -8.838  -9.880  -9.053  0.00  0.00    +0.166 C 
ATOM      5  H   UNL     1      -9.666  -9.568  -7.229  0.00  0.00    +0.163 HD
ATOM      6  H   UNL     1      -8.978 -11.757  -9.882  0.00  0.00    +0.159 HD
ATOM      7  H   UNL     1      -9.680 -11.610  -8.316  0.00  0.00    +0.159 HD
ATOM      8  H   UNL     1      -7.891  -8.412 -10.144  0.00  0.00    +0.159 HD
ATOM      9  H   UNL     1      -7.966  -9.948 -10.915  0.00  0.00    +0.159 HD
ENDROOT
BRANCH   1  10
ATOM     10  C   UNL     1      -8.751  -7.737  -7.820  0.00  0.00    +0.151 C 
BRANCH  10  11
ATOM     11  C   UNL     1      -9.926  -6.956  -7.299  0.00  0.00    -0.028 A 
ATOM     12  C   UNL     1     -11.111  -6.871  -8.044  0.00  0.00    +0.005 A 
ATOM     13  C   UNL     1      -9.862  -6.305  -6.058  0.00  0.00    +0.005 A 
ATOM     14  C   UNL     1     -12.213  -6.170  -7.547  0.00  0.00    +0.000 A 
ATOM     15  C   UNL     1     -10.964  -5.606  -5.565  0.00  0.00    +0.000 A 
ATOM     16  C   UNL     1     -12.140  -5.541  -6.309  0.00  0.00    +0.000 A 
ENDBRANCH  10  11
ENDBRANCH   1  10
TORSDOF 2
ENDMDL
MODEL 2
REMARK VINA RESULT:    -4.682     35.055     36.041
REMARK INTER + INTRA:          -5.363
REMARK INTER:                  -5.221
REMARK INTRA:                  -0.142
REMARK UNBOUND:                -0.133
REMARK  Name = 1550473
REMARK  2 active torsions:
REMARK  status: ('A' for Active; 'I' for Inactive)
REMARK    1  A    between atoms: N_1  and  C_4
REMARK    2  A    between atoms: C_4  and  C_5
REMARK                            x       y       z     vdW  Elec       q    Type
REMARK                         _______ _______ _______ _____ _____    ______ ____
ROOT
ATOM      1  N   UNL     1      19.298   7.674   3.923  0.00  0.00    -0.354 N 
ATOM      2  N   UNL     1      19.181   6.744   6.040  0.00  0.00    -0.372 N 
ATOM      3  N   UNL     1      17.338   7.821   5.199  0.00  0.00    -0.372 N 
ATOM      4  C   UNL     1      18.604   7.420   5.040  0.00  0.00    +0.166 C 
ATOM      5  H   UNL     1      20.264   7.370   3.876  0.00  0.00    +0.163 HD
ATOM      6  H   UNL     1      18.681   6.534   6.894  0.00  0.00    +0.159 HD
ATOM      7  H   UNL     1      20.131   6.401   5.973  0.00  0.00    +0.159 HD
ATOM      8  H   UNL     1      16.847   8.340   4.484  0.00  0.00    +0.159 HD
ATOM      9  H   UNL     1      16.825   7.631   6.051  0.00  0.00    +0.159 HD
ENDROOT
BRANCH   1  10
ATOM     10  C   UNL     1      18.745   8.356   2.754  0.00  0.00    +0.151 C 
BRANCH  10  11
ATOM     11  C   UNL     1      19.719   9.404   2.290  0.00  0.00    -0.028 A 
ATOM     12  C   UNL     1      19.474  10.135   1.119  0.00  0.00    +0.005 A 
ATOM     13  C   UNL     1      20.886   9.674   3.021  0.00  0.00    +0.005 A 
ATOM     14  C   UNL     1      20.364  11.129   0.704  0.00  0.00    +0.000 A 
ATOM     15  C   UNL     1      21.772  10.667   2.603  0.00  0.00    +0.000 A 
ATOM     16  C   UNL     1      21.509  11.396   1.445  0.00  0.00    +0.000 A 
ENDBRANCH  10  11
ENDBRANCH   1  10
TORSDOF 2
ENDMDL
MODEL 3
REMARK VINA RESULT:    -4.544     27.195     28.286
REMARK INTER + INTRA:          -5.208
REMARK INTER:                  -5.117
REMARK INTRA:                  -0.091
REMARK UNBOUND:                -0.133
REMARK  Name = 1550473
REMARK  2 active torsions:
REMARK  status: ('A' for Active; 'I' for Inactive)
REMARK    1  A    between atoms: N_1  and  C_4
REMARK    2  A    between atoms: C_4  and  C_5
REMARK                            x       y       z     vdW  Elec       q    Type
REMARK                         _______ _______ _______ _____ _____    ______ ____
ROOT
ATOM      1  N   UNL     1       2.756  16.604  -1.164  0.00  0.00    -0.354 N 
ATOM      2  N   UNL     1       2.325  16.081   1.051  0.00  0.00    -0.372 N 
ATOM      3  N   UNL     1       2.728  18.268   0.485  0.00  0.00    -0.372 N 
ATOM      4  C   UNL     1       2.607  16.990   0.110  0.00  0.00    +0.166 C 
ATOM      5  H   UNL     1       2.682  15.616  -1.379  0.00  0.00    +0.163 HD
ATOM      6  H   UNL     1       2.204  16.343   2.019  0.00  0.00    +0.159 HD
ATOM      7  H   UNL     1       2.206  15.101   0.825  0.00  0.00    +0.159 HD
ATOM      8  H   UNL     1       2.946  19.002  -0.175  0.00  0.00    +0.159 HD
ATOM      9  H   UNL     1       2.622  18.549   1.452  0.00  0.00    +0.159 HD
ENDROOT
BRANCH   1  10
ATOM     10  C   UNL     1       3.011  17.522  -2.273  0.00  0.00    +0.151 C 
BRANCH  10  11
ATOM     11  C   UNL     1       3.078  16.738  -3.554  0.00  0.00    -0.028 A 
ATOM     12  C   UNL     1       4.292  16.184  -3.987  0.00  0.00    +0.005 A 
ATOM     13  C   UNL     1       1.931  16.540  -4.337  0.00  0.00    +0.005 A 
ATOM     14  C   UNL     1       4.349  15.431  -5.162  0.00  0.00    +0.000 A 
ATOM     15  C   UNL     1       1.992  15.787  -5.510  0.00  0.00    +0.000 A 
ATOM     16  C   UNL     1       3.201  15.231  -5.921  0.00  0.00    +0.000 A 
ENDBRANCH  10  11
ENDBRANCH   1  10
TORSDOF 2
ENDMDL
MODEL 4
REMARK VINA RESULT:    -4.467     27.918     28.814
REMARK INTER + INTRA:          -5.122
REMARK INTER:                  -5.015
REMARK INTRA:                  -0.108
REMARK UNBOUND:                -0.133
REMARK  Name = 1550473
REMARK  2 active torsions:
REMARK  status: ('A' for Active; 'I' for Inactive)
REMARK    1  A    between atoms: N_1  and  C_4
REMARK    2  A    between atoms: C_4  and  C_5
REMARK                            x       y       z     vdW  Elec       q    Type
REMARK                         _______ _______ _______ _____ _____    ______ ____
ROOT
ATOM      1  N   UNL     1       5.722  17.399  -3.468  0.00  0.00    -0.354 N 
ATOM      2  N   UNL     1       7.347  18.963  -2.943  0.00  0.00    -0.372 N 
ATOM      3  N   UNL     1       7.947  16.755  -3.113  0.00  0.00    -0.372 N 
ATOM      4  C   UNL     1       6.996  17.693  -3.178  0.00  0.00    +0.166 C 
ATOM      5  H   UNL     1       5.043  18.152  -3.472  0.00  0.00    +0.163 HD
ATOM      6  H   UNL     1       8.302  19.216  -2.725  0.00  0.00    +0.159 HD
ATOM      7  H   UNL     1       6.676  19.720  -2.993  0.00  0.00    +0.159 HD
ATOM      8  H   UNL     1       7.746  15.777  -3.274  0.00  0.00    +0.159 HD
ATOM      9  H   UNL     1       8.906  16.987  -2.885  0.00  0.00    +0.159 HD
ENDROOT
BRANCH   1  10
ATOM     10  C   UNL     1       5.246  16.056  -3.793  0.00  0.00    +0.151 C 
BRANCH  10  11
ATOM     11  C   UNL     1       3.819  16.139  -4.260  0.00  0.00    -0.028 A 
ATOM     12  C   UNL     1       3.390  15.400  -5.372  0.00  0.00    +0.005 A 
ATOM     13  C   UNL     1       2.890  16.952  -3.593  0.00  0.00    +0.005 A 
ATOM     14  C   UNL     1       2.057  15.454  -5.788  0.00  0.00    +0.000 A 
ATOM     15  C   UNL     1       1.561  17.004  -4.012  0.00  0.00    +0.000 A 
ATOM     16  C   UNL     1       1.145  16.253  -5.108  0.00  0.00    +0.000 A 
ENDBRANCH  10  11
ENDBRANCH   1  10
TORSDOF 2
ENDMDL
MODEL 5
REMARK VINA RESULT:    -4.381     19.925     21.770
REMARK INTER + INTRA:          -5.026
REMARK INTER:                  -4.899
REMARK INTRA:                  -0.127
REMARK UNBOUND:                -0.133
REMARK  Name = 1550473
REMARK  2 active torsions:
REMARK  status: ('A' for Active; 'I' for Inactive)
REMARK    1  A    between atoms: N_1  and  C_4
REMARK    2  A    between atoms: C_4  and  C_5
REMARK                            x       y       z     vdW  Elec       q    Type
REMARK                         _______ _______ _______ _____ _____    ______ ____
ROOT
ATOM      1  N   UNL     1     -16.539   7.981   7.229  0.00  0.00    -0.354 N 
ATOM      2  N   UNL     1     -17.146   8.750   9.327  0.00  0.00    -0.372 N 
ATOM      3  N   UNL     1     -16.157  10.206   7.856  0.00  0.00    -0.372 N 
ATOM      4  C   UNL     1     -16.609   8.976   8.123  0.00  0.00    +0.166 C 
ATOM      5  H   UNL     1     -16.872   7.063   7.503  0.00  0.00    +0.163 HD
ATOM      6  H   UNL     1     -17.215   9.482  10.021  0.00  0.00    +0.159 HD
ATOM      7  H   UNL     1     -17.520   7.844   9.582  0.00  0.00    +0.159 HD
ATOM      8  H   UNL     1     -15.735  10.440   6.967  0.00  0.00    +0.159 HD
ATOM      9  H   UNL     1     -16.207  10.949   8.541  0.00  0.00    +0.159 HD
ENDROOT
BRANCH   1  10
ATOM     10  C   UNL     1     -16.022   8.136   5.870  0.00  0.00    +0.151 C 
BRANCH  10  11
ATOM     11  C   UNL     1     -16.515   6.995   5.023  0.00  0.00    -0.028 A 
ATOM     12  C   UNL     1     -17.475   6.102   5.521  0.00  0.00    +0.005 A 
ATOM     13  C   UNL     1     -16.030   6.806   3.720  0.00  0.00    +0.005 A 
ATOM     14  C   UNL     1     -17.955   5.060   4.724  0.00  0.00    +0.000 A 
ATOM     15  C   UNL     1     -16.511   5.764   2.928  0.00  0.00    +0.000 A 
ATOM     16  C   UNL     1     -17.476   4.893   3.429  0.00  0.00    +0.000 A 
ENDBRANCH  10  11
ENDBRANCH   1  10
TORSDOF 2
ENDMDL
MODEL 6
REMARK VINA RESULT:    -4.344      9.559     10.654
REMARK INTER + INTRA:          -4.985
REMARK INTER:                  -4.807
REMARK INTRA:                  -0.178
REMARK UNBOUND:                -0.133
REMARK  Name = 1550473
REMARK  2 active torsions:
REMARK  status: ('A' for Active; 'I' for Inactive)
REMARK    1  A    between atoms: N_1  and  C_4
REMARK    2  A    between atoms: C_4  and  C_5
REMARK                            x       y       z     vdW  Elec       q    Type
REMARK                         _______ _______ _______ _____ _____    ______ ____
ROOT
ATOM      1  N   UNL     1     -10.138 -11.921   2.027  0.00  0.00    -0.354 N 
ATOM      2  N   UNL     1     -10.543 -13.266   3.868  0.00  0.00    -0.372 N 
ATOM      3  N   UNL     1      -8.502 -12.236   3.674  0.00  0.00    -0.372 N 
ATOM      4  C   UNL     1      -9.722 -12.465   3.178  0.00  0.00    +0.166 C 
ATOM      5  H   UNL     1     -11.064 -12.158   1.689  0.00  0.00    +0.163 HD
ATOM      6  H   UNL     1     -10.258 -13.688   4.742  0.00  0.00    +0.159 HD
ATOM      7  H   UNL     1     -11.484 -13.464   3.552  0.00  0.00    +0.159 HD
ATOM      8  H   UNL     1      -7.832 -11.645   3.199  0.00  0.00    +0.159 HD
ATOM      9  H   UNL     1      -8.194 -12.658   4.542  0.00  0.00    +0.159 HD
ENDROOT
BRANCH   1  10
ATOM     10  C   UNL     1      -9.342 -10.992   1.226  0.00  0.00    +0.151 C 
BRANCH  10  11
ATOM     11  C   UNL     1      -8.773 -11.726   0.043  0.00  0.00    -0.028 A 
ATOM     12  C   UNL     1      -7.386 -11.853  -0.116  0.00  0.00    +0.005 A 
ATOM     13  C   UNL     1      -9.617 -12.302  -0.919  0.00  0.00    +0.005 A 
ATOM     14  C   UNL     1      -6.858 -12.561  -1.199  0.00  0.00    +0.000 A 
ATOM     15  C   UNL     1      -9.087 -13.006  -1.999  0.00  0.00    +0.000 A 
ATOM     16  C   UNL     1      -7.707 -13.138  -2.138  0.00  0.00    +0.000 A 
ENDBRANCH  10  11
ENDBRANCH   1  10
TORSDOF 2
ENDMDL
MODEL 7
REMARK VINA RESULT:    -4.194     17.900     19.566
REMARK INTER + INTRA:          -4.817
REMARK INTER:                  -4.639
REMARK INTRA:                  -0.178
REMARK UNBOUND:                -0.133
REMARK  Name = 1550473
REMARK  2 active torsions:
REMARK  status: ('A' for Active; 'I' for Inactive)
REMARK    1  A    between atoms: N_1  and  C_4
REMARK    2  A    between atoms: C_4  and  C_5
REMARK                            x       y       z     vdW  Elec       q    Type
REMARK                         _______ _______ _______ _____ _____    ______ ____
ROOT
ATOM      1  N   UNL     1     -17.341   6.333   5.857  0.00  0.00    -0.354 N 
ATOM      2  N   UNL     1     -15.677   7.003   7.322  0.00  0.00    -0.372 N 
ATOM      3  N   UNL     1     -15.678   7.841   5.186  0.00  0.00    -0.372 N 
ATOM      4  C   UNL     1     -16.242   7.056   6.110  0.00  0.00    +0.166 C 
ATOM      5  H   UNL     1     -17.702   5.734   6.591  0.00  0.00    +0.163 HD
ATOM      6  H   UNL     1     -14.849   7.540   7.543  0.00  0.00    +0.159 HD
ATOM      7  H   UNL     1     -16.066   6.439   8.067  0.00  0.00    +0.159 HD
ATOM      8  H   UNL     1     -16.053   7.920   4.250  0.00  0.00    +0.159 HD
ATOM      9  H   UNL     1     -14.843   8.377   5.384  0.00  0.00    +0.159 HD
ENDROOT
BRANCH   1  10
ATOM     10  C   UNL     1     -18.065   6.361   4.587  0.00  0.00    +0.151 C 
BRANCH  10  11
ATOM     11  C   UNL     1     -17.627   5.193   3.747  0.00  0.00    -0.028 A 
ATOM     12  C   UNL     1     -16.833   5.393   2.608  0.00  0.00    +0.005 A 
ATOM     13  C   UNL     1     -17.999   3.883   4.088  0.00  0.00    +0.005 A 
ATOM     14  C   UNL     1     -16.402   4.305   1.845  0.00  0.00    +0.000 A 
ATOM     15  C   UNL     1     -17.567   2.800   3.322  0.00  0.00    +0.000 A 
ATOM     16  C   UNL     1     -16.766   3.012   2.202  0.00  0.00    +0.000 A 
ENDBRANCH  10  11
ENDBRANCH   1  10
TORSDOF 2
ENDMDL
MODEL 8
REMARK VINA RESULT:    -4.167      1.884      2.826
REMARK INTER + INTRA:          -4.787
REMARK INTER:                  -4.640
REMARK INTRA:                  -0.147
REMARK UNBOUND:                -0.133
REMARK  Name = 1550473
REMARK  2 active torsions:
REMARK  status: ('A' for Active; 'I' for Inactive)
REMARK    1  A    between atoms: N_1  and  C_4
REMARK    2  A    between atoms: C_4  and  C_5
REMARK                            x       y       z     vdW  Elec       q    Type
REMARK                         _______ _______ _______ _____ _____    ______ ____
ROOT
ATOM      1  N   UNL     1      -8.373 -10.609  -8.088  0.00  0.00    -0.354 N 
ATOM      2  N   UNL     1      -7.127 -11.674  -6.451  0.00  0.00    -0.372 N 
ATOM      3  N   UNL     1      -6.073 -10.212  -7.870  0.00  0.00    -0.372 N 
ATOM      4  C   UNL     1      -7.197 -10.823  -7.482  0.00  0.00    +0.166 C 
ATOM      5  H   UNL     1      -9.182 -11.127  -7.765  0.00  0.00    +0.163 HD
ATOM      6  H   UNL     1      -6.255 -11.853  -5.971  0.00  0.00    +0.159 HD
ATOM      7  H   UNL     1      -7.947 -12.155  -6.100  0.00  0.00    +0.159 HD
ATOM      8  H   UNL     1      -6.058  -9.563  -8.646  0.00  0.00    +0.159 HD
ATOM      9  H   UNL     1      -5.188 -10.387  -7.411  0.00  0.00    +0.159 HD
ENDROOT
BRANCH   1  10
ATOM     10  C   UNL     1      -8.567  -9.663  -9.184  0.00  0.00    +0.151 C 
BRANCH  10  11
ATOM     11  C   UNL     1      -9.567  -8.622  -8.763  0.00  0.00    -0.028 A 
ATOM     12  C   UNL     1      -9.318  -7.803  -7.652  0.00  0.00    +0.005 A 
ATOM     13  C   UNL     1     -10.763  -8.445  -9.475  0.00  0.00    +0.005 A 
ATOM     14  C   UNL     1     -10.233  -6.816  -7.279  0.00  0.00    +0.000 A 
ATOM     15  C   UNL     1     -11.675  -7.458  -9.098  0.00  0.00    +0.000 A 
ATOM     16  C   UNL     1     -11.408  -6.642  -8.002  0.00  0.00    +0.000 A 
ENDBRANCH  10  11
ENDBRANCH   1  10
TORSDOF 2
ENDMDL
MODEL 9
REMARK VINA RESULT:    -4.155     25.548     26.561
REMARK INTER + INTRA:          -4.774
REMARK INTER:                  -4.634
REMARK INTRA:                  -0.141
REMARK UNBOUND:                -0.133
REMARK  Name = 1550473
REMARK  2 active torsions:
REMARK  status: ('A' for Active; 'I' for Inactive)
REMARK    1  A    between atoms: N_1  and  C_4
REMARK    2  A    between atoms: C_4  and  C_5
REMARK                            x       y       z     vdW  Elec       q    Type
REMARK                         _______ _______ _______ _____ _____    ______ ____
ROOT
ATOM      1  N   UNL     1      14.692  -6.685   3.833  0.00  0.00    -0.354 N 
ATOM      2  N   UNL     1      15.438  -5.236   2.187  0.00  0.00    -0.372 N 
ATOM      3  N   UNL     1      15.109  -4.429   4.309  0.00  0.00    -0.372 N 
ATOM      4  C   UNL     1      15.074  -5.458   3.456  0.00  0.00    +0.166 C 
ATOM      5  H   UNL     1      14.659  -7.416   3.131  0.00  0.00    +0.163 HD
ATOM      6  H   UNL     1      15.735  -4.322   1.874  0.00  0.00    +0.159 HD
ATOM      7  H   UNL     1      15.448  -5.979   1.498  0.00  0.00    +0.159 HD
ATOM      8  H   UNL     1      14.841  -4.528   5.279  0.00  0.00    +0.159 HD
ATOM      9  H   UNL     1      15.392  -3.503   4.012  0.00  0.00    +0.159 HD
ENDROOT
BRANCH   1  10
ATOM     10  C   UNL     1      14.328  -7.044   5.202  0.00  0.00    +0.151 C 
BRANCH  10  11
ATOM     11  C   UNL     1      13.061  -7.853   5.178  0.00  0.00    -0.028 A 
ATOM     12  C   UNL     1      12.214  -7.816   4.061  0.00  0.00    +0.005 A 
ATOM     13  C   UNL     1      12.706  -8.665   6.267  0.00  0.00    +0.005 A 
ATOM     14  C   UNL     1      11.052  -8.592   4.026  0.00  0.00    +0.000 A 
ATOM     15  C   UNL     1      11.545  -9.436   6.228  0.00  0.00    +0.000 A 
ATOM     16  C   UNL     1      10.719  -9.402   5.107  0.00  0.00    +0.000 A 
ENDBRANCH  10  11
ENDBRANCH   1  10
TORSDOF 2
ENDMDL
