MODEL 1
REMARK VINA RESULT:    -5.857      0.000      0.000
REMARK INTER + INTRA:          -6.691
REMARK INTER:                  -6.542
REMARK INTRA:                  -0.149
REMARK UNBOUND:                -0.149
REMARK  Name = 1550473
REMARK  2 active torsions:
REMARK  status: ('A' for Active; 'I' for Inactive)
REMARK    1  A    between atoms: N_1  and  C_4
REMARK    2  A    between atoms: C_4  and  C_5
REMARK                            x       y       z     vdW  Elec       q    Type
REMARK                         _______ _______ _______ _____ _____    ______ ____
ROOT
ATOM      1  N   UNL     1       9.152  15.548   6.003  0.00  0.00    -0.354 N 
ATOM      2  N   UNL     1       9.824  16.122   8.144  0.00  0.00    -0.372 N 
ATOM      3  N   UNL     1      11.424  15.650   6.568  0.00  0.00    -0.372 N 
ATOM      4  C   UNL     1      10.131  15.769   6.890  0.00  0.00    +0.166 C 
ATOM      5  H   UNL     1       8.191  15.625   6.318  0.00  0.00    +0.163 HD
ATOM      6  H   UNL     1      10.541  16.299   8.834  0.00  0.00    +0.159 HD
ATOM      7  H   UNL     1       8.864  16.243   8.443  0.00  0.00    +0.159 HD
ATOM      8  H   UNL     1      11.722  15.381   5.640  0.00  0.00    +0.159 HD
ATOM      9  H   UNL     1      12.156  15.811   7.248  0.00  0.00    +0.159 HD
ENDROOT
BRANCH   1  10
ATOM     10  C   UNL     1       9.381  15.211   4.599  0.00  0.00    +0.151 C 
BRANCH  10  11
ATOM     11  C   UNL     1       9.509  16.482   3.804  0.00  0.00    -0.028 A 
ATOM     12  C   UNL     1       8.518  17.472   3.879  0.00  0.00    +0.005 A 
ATOM     13  C   UNL     1      10.622  16.704   2.979  0.00  0.00    +0.005 A 
ATOM     14  C   UNL     1       8.652  18.664   3.164  0.00  0.00    +0.000 A 
ATOM     15  C   UNL     1      10.752  17.895   2.266  0.00  0.00    +0.000 A 
ATOM     16  C   UNL     1       9.768  18.877   2.361  0.00  0.00    +0.000 A 
ENDBRANCH  10  11
ENDBRANCH   1  10
TORSDOF 2
ENDMDL
MODEL 2
REMARK VINA RESULT:    -5.383      3.385      4.994
REMARK INTER + INTRA:          -6.161
REMARK INTER:                  -6.062
REMARK INTRA:                  -0.099
REMARK UNBOUND:                -0.149
REMARK  Name = 1550473
REMARK  2 active torsions:
REMARK  status: ('A' for Active; 'I' for Inactive)
REMARK    1  A    between atoms: N_1  and  C_4
REMARK    2  A    between atoms: C_4  and  C_5
REMARK                            x       y       z     vdW  Elec       q    Type
REMARK                         _______ _______ _______ _____ _____    ______ ____
ROOT
ATOM      1  N   UNL     1       9.567  18.562   2.302  0.00  0.00    -0.354 N 
ATOM      2  N   UNL     1      10.960  19.385   0.646  0.00  0.00    -0.372 N 
ATOM      3  N   UNL     1       9.582  20.842   1.762  0.00  0.00    -0.372 N 
ATOM      4  C   UNL     1      10.026  19.593   1.581  0.00  0.00    +0.166 C 
ATOM      5  H   UNL     1       9.921  17.635   2.096  0.00  0.00    +0.163 HD
ATOM      6  H   UNL     1      11.327  20.145   0.088  0.00  0.00    +0.159 HD
ATOM      7  H   UNL     1      11.346  18.465   0.473  0.00  0.00    +0.159 HD
ATOM      8  H   UNL     1       8.873  21.064   2.448  0.00  0.00    +0.159 HD
ATOM      9  H   UNL     1       9.929  21.613   1.206  0.00  0.00    +0.159 HD
ENDROOT
BRANCH   1  10
ATOM     10  C   UNL     1       8.589  18.689   3.382  0.00  0.00    +0.151 C 
BRANCH  10  11
ATOM     11  C   UNL     1       8.849  17.621   4.408  0.00  0.00    -0.028 A 
ATOM     12  C   UNL     1       9.346  17.958   5.676  0.00  0.00    +0.005 A 
ATOM     13  C   UNL     1       8.595  16.271   4.121  0.00  0.00    +0.005 A 
ATOM     14  C   UNL     1       9.559  16.969   6.640  0.00  0.00    +0.000 A 
ATOM     15  C   UNL     1       8.810  15.287   5.086  0.00  0.00    +0.000 A 
ATOM     16  C   UNL     1       9.289  15.637   6.346  0.00  0.00    +0.000 A 
ENDBRANCH  10  11
ENDBRANCH   1  10
TORSDOF 2
ENDMDL
MODEL 3
REMARK VINA RESULT:    -5.328      3.332      4.978
REMARK INTER + INTRA:          -6.100
REMARK INTER:                  -5.998
REMARK INTRA:                  -0.102
REMARK UNBOUND:                -0.149
REMARK  Name = 1550473
REMARK  2 active torsions:
REMARK  status: ('A' for Active; 'I' for Inactive)
REMARK    1  A    between atoms: N_1  and  C_4
REMARK    2  A    between atoms: C_4  and  C_5
REMARK                            x       y       z     vdW  Elec       q    Type
REMARK                         _______ _______ _______ _____ _____    ______ ____
ROOT
ATOM      1  N   UNL     1       9.611  18.485   2.329  0.00  0.00    -0.354 N 
ATOM      2  N   UNL     1      11.094  19.344   0.772  0.00  0.00    -0.372 N 
ATOM      3  N   UNL     1       9.717  20.787   1.905  0.00  0.00    -0.372 N 
ATOM      4  C   UNL     1      10.129  19.535   1.680  0.00  0.00    +0.166 C 
ATOM      5  H   UNL     1       9.946  17.558   2.091  0.00  0.00    +0.163 HD
ATOM      6  H   UNL     1      11.507  20.118   0.269  0.00  0.00    +0.159 HD
ATOM      7  H   UNL     1      11.459  18.421   0.569  0.00  0.00    +0.159 HD
ATOM      8  H   UNL     1       8.988  20.999   2.573  0.00  0.00    +0.159 HD
ATOM      9  H   UNL     1      10.110  21.574   1.403  0.00  0.00    +0.159 HD
ENDROOT
BRANCH   1  10
ATOM     10  C   UNL     1       8.594  18.590   3.374  0.00  0.00    +0.151 C 
BRANCH  10  11
ATOM     11  C   UNL     1       8.840  17.526   4.408  0.00  0.00    -0.028 A 
ATOM     12  C   UNL     1       8.574  16.179   4.121  0.00  0.00    +0.005 A 
ATOM     13  C   UNL     1       9.345  17.857   5.675  0.00  0.00    +0.005 A 
ATOM     14  C   UNL     1       8.830  15.187   5.070  0.00  0.00    +0.000 A 
ATOM     15  C   UNL     1       9.599  16.864   6.620  0.00  0.00    +0.000 A 
ATOM     16  C   UNL     1       9.344  15.529   6.317  0.00  0.00    +0.000 A 
ENDBRANCH  10  11
ENDBRANCH   1  10
TORSDOF 2
ENDMDL
MODEL 4
REMARK VINA RESULT:    -5.322     30.939     31.855
REMARK INTER + INTRA:          -6.093
REMARK INTER:                  -5.995
REMARK INTRA:                  -0.098
REMARK UNBOUND:                -0.149
REMARK  Name = 1550473
REMARK  2 active torsions:
REMARK  status: ('A' for Active; 'I' for Inactive)
REMARK    1  A    between atoms: N_1  and  C_4
REMARK    2  A    between atoms: C_4  and  C_5
REMARK                            x       y       z     vdW  Elec       q    Type
REMARK                         _______ _______ _______ _____ _____    ______ ____
ROOT
ATOM      1  N   UNL     1      -9.673  -1.167 -10.192  0.00  0.00    -0.354 N 
ATOM      2  N   UNL     1      -9.624   0.035  -8.212  0.00  0.00    -0.372 N 
ATOM      3  N   UNL     1      -8.755  -2.088  -8.242  0.00  0.00    -0.372 N 
ATOM      4  C   UNL     1      -9.350  -1.084  -8.894  0.00  0.00    +0.166 C 
ATOM      5  H   UNL     1     -10.149  -0.382 -10.620  0.00  0.00    +0.163 HD
ATOM      6  H   UNL     1      -9.389   0.128  -7.233  0.00  0.00    +0.159 HD
ATOM      7  H   UNL     1     -10.059   0.836  -8.655  0.00  0.00    +0.159 HD
ATOM      8  H   UNL     1      -8.527  -2.962  -8.698  0.00  0.00    +0.159 HD
ATOM      9  H   UNL     1      -8.523  -2.019  -7.259  0.00  0.00    +0.159 HD
ENDROOT
BRANCH   1  10
ATOM     10  C   UNL     1      -9.369  -2.320 -11.038  0.00  0.00    +0.151 C 
BRANCH  10  11
ATOM     11  C   UNL     1     -10.272  -2.298 -12.240  0.00  0.00    -0.028 A 
ATOM     12  C   UNL     1     -11.591  -2.767 -12.149  0.00  0.00    +0.005 A 
ATOM     13  C   UNL     1      -9.816  -1.805 -13.472  0.00  0.00    +0.005 A 
ATOM     14  C   UNL     1     -12.439  -2.719 -13.258  0.00  0.00    +0.000 A 
ATOM     15  C   UNL     1     -10.666  -1.759 -14.577  0.00  0.00    +0.000 A 
ATOM     16  C   UNL     1     -11.978  -2.214 -14.469  0.00  0.00    +0.000 A 
ENDBRANCH  10  11
ENDBRANCH   1  10
TORSDOF 2
ENDMDL
MODEL 5
REMARK VINA RESULT:    -5.094     27.747     28.793
REMARK INTER + INTRA:          -5.839
REMARK INTER:                  -5.720
REMARK INTRA:                  -0.119
REMARK UNBOUND:                -0.149
REMARK  Name = 1550473
REMARK  2 active torsions:
REMARK  status: ('A' for Active; 'I' for Inactive)
REMARK    1  A    between atoms: N_1  and  C_4
REMARK    2  A    between atoms: C_4  and  C_5
REMARK                            x       y       z     vdW  Elec       q    Type
REMARK                         _______ _______ _______ _____ _____    ______ ____
ROOT
ATOM      1  N   UNL     1     -11.050   2.247  -6.675  0.00  0.00    -0.354 N 
ATOM      2  N   UNL     1     -11.937   4.332  -6.195  0.00  0.00    -0.372 N 
ATOM      3  N   UNL     1     -12.124   2.661  -4.634  0.00  0.00    -0.372 N 
ATOM      4  C   UNL     1     -11.699   3.065  -5.836  0.00  0.00    +0.166 C 
ATOM      5  H   UNL     1     -10.781   2.605  -7.584  0.00  0.00    +0.163 HD
ATOM      6  H   UNL     1     -12.421   4.973  -5.582  0.00  0.00    +0.159 HD
ATOM      7  H   UNL     1     -11.626   4.700  -7.086  0.00  0.00    +0.159 HD
ATOM      8  H   UNL     1     -11.981   1.715  -4.305  0.00  0.00    +0.159 HD
ATOM      9  H   UNL     1     -12.621   3.285  -4.010  0.00  0.00    +0.159 HD
ENDROOT
BRANCH   1  10
ATOM     10  C   UNL     1     -10.694   0.865  -6.358  0.00  0.00    +0.151 C 
BRANCH  10  11
ATOM     11  C   UNL     1     -10.360   0.139  -7.632  0.00  0.00    -0.028 A 
ATOM     12  C   UNL     1     -11.092   0.384  -8.804  0.00  0.00    +0.005 A 
ATOM     13  C   UNL     1      -9.311  -0.791  -7.676  0.00  0.00    +0.005 A 
ATOM     14  C   UNL     1     -10.763  -0.268  -9.995  0.00  0.00    +0.000 A 
ATOM     15  C   UNL     1      -8.986  -1.441  -8.867  0.00  0.00    +0.000 A 
ATOM     16  C   UNL     1      -9.711  -1.177 -10.027  0.00  0.00    +0.000 A 
ENDBRANCH  10  11
ENDBRANCH   1  10
TORSDOF 2
ENDMDL
MODEL 6
REMARK VINA RESULT:    -5.081     35.691     36.770
REMARK INTER + INTRA:          -5.824
REMARK INTER:                  -5.707
REMARK INTRA:                  -0.117
REMARK UNBOUND:                -0.149
REMARK  Name = 1550473
REMARK  2 active torsions:
REMARK  status: ('A' for Active; 'I' for Inactive)
REMARK    1  A    between atoms: N_1  and  C_4
REMARK    2  A    between atoms: C_4  and  C_5
REMARK                            x       y       z     vdW  Elec       q    Type
REMARK                         _______ _______ _______ _____ _____    ______ ____
ROOT
ATOM      1  N   UNL     1     -13.736  -2.337 -15.795  0.00  0.00    -0.354 N 
ATOM      2  N   UNL     1     -14.383  -0.920 -17.510  0.00  0.00    -0.372 N 
ATOM      3  N   UNL     1     -12.527  -0.386 -16.270  0.00  0.00    -0.372 N 
ATOM      4  C   UNL     1     -13.542  -1.222 -16.513  0.00  0.00    +0.166 C 
ATOM      5  H   UNL     1     -14.541  -2.913 -16.010  0.00  0.00    +0.163 HD
ATOM      6  H   UNL     1     -14.260  -0.088 -18.070  0.00  0.00    +0.159 HD
ATOM      7  H   UNL     1     -15.161  -1.522 -17.751  0.00  0.00    +0.159 HD
ATOM      8  H   UNL     1     -11.861  -0.554 -15.528  0.00  0.00    +0.159 HD
ATOM      9  H   UNL     1     -12.395   0.458 -16.813  0.00  0.00    +0.159 HD
ENDROOT
BRANCH   1  10
ATOM     10  C   UNL     1     -12.848  -2.784 -14.724  0.00  0.00    +0.151 C 
BRANCH  10  11
ATOM     11  C   UNL     1     -13.537  -3.861 -13.932  0.00  0.00    -0.028 A 
ATOM     12  C   UNL     1     -14.504  -4.679 -14.534  0.00  0.00    +0.005 A 
ATOM     13  C   UNL     1     -13.224  -4.071 -12.580  0.00  0.00    +0.005 A 
ATOM     14  C   UNL     1     -15.122  -5.699 -13.807  0.00  0.00    +0.000 A 
ATOM     15  C   UNL     1     -13.844  -5.090 -11.858  0.00  0.00    +0.000 A 
ATOM     16  C   UNL     1     -14.792  -5.905 -12.472  0.00  0.00    +0.000 A 
ENDBRANCH  10  11
ENDBRANCH   1  10
TORSDOF 2
ENDMDL
MODEL 7
REMARK VINA RESULT:    -5.071      1.501      2.330
REMARK INTER + INTRA:          -5.813
REMARK INTER:                  -5.711
REMARK INTRA:                  -0.102
REMARK UNBOUND:                -0.149
REMARK  Name = 1550473
REMARK  2 active torsions:
REMARK  status: ('A' for Active; 'I' for Inactive)
REMARK    1  A    between atoms: N_1  and  C_4
REMARK    2  A    between atoms: C_4  and  C_5
REMARK                            x       y       z     vdW  Elec       q    Type
REMARK                         _______ _______ _______ _____ _____    ______ ____
ROOT
ATOM      1  N   UNL     1      11.068  16.116   4.468  0.00  0.00    -0.354 N 
ATOM      2  N   UNL     1      11.056  15.461   6.689  0.00  0.00    -0.372 N 
ATOM      3  N   UNL     1      12.560  17.056   6.011  0.00  0.00    -0.372 N 
ATOM      4  C   UNL     1      11.564  16.217   5.708  0.00  0.00    +0.166 C 
ATOM      5  H   UNL     1      10.333  15.439   4.297  0.00  0.00    +0.163 HD
ATOM      6  H   UNL     1      11.408  15.518   7.636  0.00  0.00    +0.159 HD
ATOM      7  H   UNL     1      10.291  14.818   6.525  0.00  0.00    +0.159 HD
ATOM      8  H   UNL     1      12.990  17.650   5.314  0.00  0.00    +0.159 HD
ATOM      9  H   UNL     1      12.933  17.119   6.950  0.00  0.00    +0.159 HD
ENDROOT
BRANCH   1  10
ATOM     10  C   UNL     1      11.513  16.932   3.340  0.00  0.00    +0.151 C 
BRANCH  10  11
ATOM     11  C   UNL     1      10.414  17.885   2.959  0.00  0.00    -0.028 A 
ATOM     12  C   UNL     1      10.552  18.722   1.842  0.00  0.00    +0.005 A 
ATOM     13  C   UNL     1       9.229  17.952   3.708  0.00  0.00    +0.005 A 
ATOM     14  C   UNL     1       9.519  19.586   1.470  0.00  0.00    +0.000 A 
ATOM     15  C   UNL     1       8.200  18.816   3.334  0.00  0.00    +0.000 A 
ATOM     16  C   UNL     1       8.344  19.631   2.213  0.00  0.00    +0.000 A 
ENDBRANCH  10  11
ENDBRANCH   1  10
TORSDOF 2
ENDMDL
MODEL 8
REMARK VINA RESULT:    -5.028      3.858      5.303
REMARK INTER + INTRA:          -5.765
REMARK INTER:                  -5.649
REMARK INTRA:                  -0.117
REMARK UNBOUND:                -0.149
REMARK  Name = 1550473
REMARK  2 active torsions:
REMARK  status: ('A' for Active; 'I' for Inactive)
REMARK    1  A    between atoms: N_1  and  C_4
REMARK    2  A    between atoms: C_4  and  C_5
REMARK                            x       y       z     vdW  Elec       q    Type
REMARK                         _______ _______ _______ _____ _____    ______ ____
ROOT
ATOM      1  N   UNL     1       9.159  19.507   1.802  0.00  0.00    -0.354 N 
ATOM      2  N   UNL     1       9.346  20.827  -0.092  0.00  0.00    -0.372 N 
ATOM      3  N   UNL     1       7.371  20.837   1.076  0.00  0.00    -0.372 N 
ATOM      4  C   UNL     1       8.621  20.382   0.942  0.00  0.00    +0.166 C 
ATOM      5  H   UNL     1      10.101  19.177   1.628  0.00  0.00    +0.163 HD
ATOM      6  H   UNL     1       8.969  21.490  -0.755  0.00  0.00    +0.159 HD
ATOM      7  H   UNL     1      10.304  20.531  -0.237  0.00  0.00    +0.159 HD
ATOM      8  H   UNL     1       6.770  20.535   1.831  0.00  0.00    +0.159 HD
ATOM      9  H   UNL     1       6.972  21.492   0.416  0.00  0.00    +0.159 HD
ENDROOT
BRANCH   1  10
ATOM     10  C   UNL     1       8.472  19.002   2.990  0.00  0.00    +0.151 C 
BRANCH  10  11
ATOM     11  C   UNL     1       9.144  17.735   3.444  0.00  0.00    -0.028 A 
ATOM     12  C   UNL     1       8.409  16.734   4.097  0.00  0.00    +0.005 A 
ATOM     13  C   UNL     1      10.513  17.526   3.218  0.00  0.00    +0.005 A 
ATOM     14  C   UNL     1       9.026  15.545   4.492  0.00  0.00    +0.000 A 
ATOM     15  C   UNL     1      11.125  16.337   3.615  0.00  0.00    +0.000 A 
ATOM     16  C   UNL     1      10.381  15.346   4.249  0.00  0.00    +0.000 A 
ENDBRANCH  10  11
ENDBRANCH   1  10
TORSDOF 2
ENDMDL
MODEL 9
REMARK VINA RESULT:    -5.012      1.887      2.497
REMARK INTER + INTRA:          -5.748
REMARK INTER:                  -5.621
REMARK INTRA:                  -0.127
REMARK UNBOUND:                -0.149
REMARK  Name = 1550473
REMARK  2 active torsions:
REMARK  status: ('A' for Active; 'I' for Inactive)
REMARK    1  A    between atoms: N_1  and  C_4
REMARK    2  A    between atoms: C_4  and  C_5
REMARK                            x       y       z     vdW  Elec       q    Type
REMARK                         _______ _______ _______ _____ _____    ______ ____
ROOT
ATOM      1  N   UNL     1       9.790  18.393   6.498  0.00  0.00    -0.354 N 
ATOM      2  N   UNL     1      11.050  18.527   8.436  0.00  0.00    -0.372 N 
ATOM      3  N   UNL     1      10.746  16.477   7.451  0.00  0.00    -0.372 N 
ATOM      4  C   UNL     1      10.520  17.795   7.449  0.00  0.00    +0.166 C 
ATOM      5  H   UNL     1       9.630  19.391   6.569  0.00  0.00    +0.163 HD
ATOM      6  H   UNL     1      11.609  18.105   9.166  0.00  0.00    +0.159 HD
ATOM      7  H   UNL     1      10.928  19.532   8.479  0.00  0.00    +0.159 HD
ATOM      8  H   UNL     1      10.369  15.868   6.738  0.00  0.00    +0.159 HD
ATOM      9  H   UNL     1      11.292  16.035   8.180  0.00  0.00    +0.159 HD
ENDROOT
BRANCH   1  10
ATOM     10  C   UNL     1       9.214  17.694   5.350  0.00  0.00    +0.151 C 
BRANCH  10  11
ATOM     11  C   UNL     1       9.296  18.585   4.141  0.00  0.00    -0.028 A 
ATOM     12  C   UNL     1      10.505  19.205   3.795  0.00  0.00    +0.005 A 
ATOM     13  C   UNL     1       8.169  18.808   3.334  0.00  0.00    +0.005 A 
ATOM     14  C   UNL     1      10.590  20.008   2.655  0.00  0.00    +0.000 A 
ATOM     15  C   UNL     1       8.258  19.612   2.198  0.00  0.00    +0.000 A 
ATOM     16  C   UNL     1       9.468  20.210   1.857  0.00  0.00    +0.000 A 
ENDBRANCH  10  11
ENDBRANCH   1  10
TORSDOF 2
ENDMDL
