MODEL 1
REMARK VINA RESULT:    -5.195      0.000      0.000
REMARK INTER + INTRA:          -5.912
REMARK INTER:                  -5.802
REMARK INTRA:                  -0.109
REMARK UNBOUND:                -0.109
REMARK  Name = 1550473
REMARK  2 active torsions:
REMARK  status: ('A' for Active; 'I' for Inactive)
REMARK    1  A    between atoms: N_1  and  C_4
REMARK    2  A    between atoms: C_4  and  C_5
REMARK                            x       y       z     vdW  Elec       q    Type
REMARK                         _______ _______ _______ _____ _____    ______ ____
ROOT
ATOM      1  N   UNL     1       0.009  -3.046   4.636  0.00  0.00    -0.354 N 
ATOM      2  N   UNL     1       1.189  -1.681   3.183  0.00  0.00    -0.372 N 
ATOM      3  N   UNL     1       2.262  -2.529   5.026  0.00  0.00    -0.372 N 
ATOM      4  C   UNL     1       1.147  -2.428   4.293  0.00  0.00    +0.166 C 
ATOM      5  H   UNL     1      -0.809  -2.905   4.054  0.00  0.00    +0.163 HD
ATOM      6  H   UNL     1       2.034  -1.206   2.897  0.00  0.00    +0.159 HD
ATOM      7  H   UNL     1       0.382  -1.579   2.579  0.00  0.00    +0.159 HD
ATOM      8  H   UNL     1       2.295  -3.072   5.878  0.00  0.00    +0.159 HD
ATOM      9  H   UNL     1       3.114  -2.051   4.762  0.00  0.00    +0.159 HD
ENDROOT
BRANCH   1  10
ATOM     10  C   UNL     1      -0.126  -3.926   5.796  0.00  0.00    +0.151 C 
BRANCH  10  11
ATOM     11  C   UNL     1      -1.260  -4.884   5.555  0.00  0.00    -0.028 A 
ATOM     12  C   UNL     1      -2.479  -4.428   5.034  0.00  0.00    +0.005 A 
ATOM     13  C   UNL     1      -1.119  -6.251   5.842  0.00  0.00    +0.005 A 
ATOM     14  C   UNL     1      -3.522  -5.323   4.782  0.00  0.00    +0.000 A 
ATOM     15  C   UNL     1      -2.163  -7.141   5.590  0.00  0.00    +0.000 A 
ATOM     16  C   UNL     1      -3.363  -6.677   5.058  0.00  0.00    +0.000 A 
ENDBRANCH  10  11
ENDBRANCH   1  10
TORSDOF 2
ENDMDL
MODEL 2
REMARK VINA RESULT:    -5.141      0.450      1.520
REMARK INTER + INTRA:          -5.851
REMARK INTER:                  -5.714
REMARK INTRA:                  -0.138
REMARK UNBOUND:                -0.109
REMARK  Name = 1550473
REMARK  2 active torsions:
REMARK  status: ('A' for Active; 'I' for Inactive)
REMARK    1  A    between atoms: N_1  and  C_4
REMARK    2  A    between atoms: C_4  and  C_5
REMARK                            x       y       z     vdW  Elec       q    Type
REMARK                         _______ _______ _______ _____ _____    ______ ____
ROOT
ATOM      1  N   UNL     1      -0.361  -2.635   4.833  0.00  0.00    -0.354 N 
ATOM      2  N   UNL     1       0.523  -1.272   3.182  0.00  0.00    -0.372 N 
ATOM      3  N   UNL     1       1.914  -2.731   4.279  0.00  0.00    -0.372 N 
ATOM      4  C   UNL     1       0.689  -2.222   4.110  0.00  0.00    +0.166 C 
ATOM      5  H   UNL     1      -1.258  -2.188   4.677  0.00  0.00    +0.163 HD
ATOM      6  H   UNL     1       1.296  -0.943   2.619  0.00  0.00    +0.159 HD
ATOM      7  H   UNL     1      -0.383  -0.860   2.997  0.00  0.00    +0.159 HD
ATOM      8  H   UNL     1       2.106  -3.447   4.967  0.00  0.00    +0.159 HD
ATOM      9  H   UNL     1       2.702  -2.406   3.733  0.00  0.00    +0.159 HD
ENDROOT
BRANCH   1  10
ATOM     10  C   UNL     1      -0.299  -3.702   5.830  0.00  0.00    +0.151 C 
BRANCH  10  11
ATOM     11  C   UNL     1      -1.320  -4.752   5.490  0.00  0.00    -0.028 A 
ATOM     12  C   UNL     1      -1.063  -6.106   5.751  0.00  0.00    +0.005 A 
ATOM     13  C   UNL     1      -2.549  -4.399   4.912  0.00  0.00    +0.005 A 
ATOM     14  C   UNL     1      -2.024  -7.079   5.463  0.00  0.00    +0.000 A 
ATOM     15  C   UNL     1      -3.505  -5.374   4.625  0.00  0.00    +0.000 A 
ATOM     16  C   UNL     1      -3.243  -6.713   4.903  0.00  0.00    +0.000 A 
ENDBRANCH  10  11
ENDBRANCH   1  10
TORSDOF 2
ENDMDL
MODEL 3
REMARK VINA RESULT:    -4.962      4.342      5.723
REMARK INTER + INTRA:          -5.652
REMARK INTER:                  -5.524
REMARK INTRA:                  -0.128
REMARK UNBOUND:                -0.109
REMARK  Name = 1550473
REMARK  2 active torsions:
REMARK  status: ('A' for Active; 'I' for Inactive)
REMARK    1  A    between atoms: N_1  and  C_4
REMARK    2  A    between atoms: C_4  and  C_5
REMARK                            x       y       z     vdW  Elec       q    Type
REMARK                         _______ _______ _______ _____ _____    ______ ____
ROOT
ATOM      1  N   UNL     1       2.865  -1.523   8.877  0.00  0.00    -0.354 N 
ATOM      2  N   UNL     1       4.035  -0.169  10.347  0.00  0.00    -0.372 N 
ATOM      3  N   UNL     1       3.993  -2.432  10.719  0.00  0.00    -0.372 N 
ATOM      4  C   UNL     1       3.624  -1.386   9.972  0.00  0.00    +0.166 C 
ATOM      5  H   UNL     1       2.594  -0.687   8.372  0.00  0.00    +0.163 HD
ATOM      6  H   UNL     1       4.611  -0.035  11.167  0.00  0.00    +0.159 HD
ATOM      7  H   UNL     1       3.801   0.660   9.814  0.00  0.00    +0.159 HD
ATOM      8  H   UNL     1       3.710  -3.377  10.493  0.00  0.00    +0.159 HD
ATOM      9  H   UNL     1       4.559  -2.317  11.550  0.00  0.00    +0.159 HD
ENDROOT
BRANCH   1  10
ATOM     10  C   UNL     1       2.409  -2.809   8.353  0.00  0.00    +0.151 C 
BRANCH  10  11
ATOM     11  C   UNL     1       2.100  -2.662   6.889  0.00  0.00    -0.028 A 
ATOM     12  C   UNL     1       2.258  -1.424   6.249  0.00  0.00    +0.005 A 
ATOM     13  C   UNL     1       1.655  -3.758   6.134  0.00  0.00    +0.005 A 
ATOM     14  C   UNL     1       2.000  -1.293   4.882  0.00  0.00    +0.000 A 
ATOM     15  C   UNL     1       1.398  -3.624   4.770  0.00  0.00    +0.000 A 
ATOM     16  C   UNL     1       1.573  -2.392   4.144  0.00  0.00    +0.000 A 
ENDBRANCH  10  11
ENDBRANCH   1  10
TORSDOF 2
ENDMDL
MODEL 4
REMARK VINA RESULT:    -4.948     14.506     16.724
REMARK INTER + INTRA:          -5.636
REMARK INTER:                  -5.542
REMARK INTRA:                  -0.093
REMARK UNBOUND:                -0.109
REMARK  Name = 1550473
REMARK  2 active torsions:
REMARK  status: ('A' for Active; 'I' for Inactive)
REMARK    1  A    between atoms: N_1  and  C_4
REMARK    2  A    between atoms: C_4  and  C_5
REMARK                            x       y       z     vdW  Elec       q    Type
REMARK                         _______ _______ _______ _____ _____    ______ ____
ROOT
ATOM      1  N   UNL     1      14.295  -1.785   2.839  0.00  0.00    -0.354 N 
ATOM      2  N   UNL     1      13.544  -3.356   1.312  0.00  0.00    -0.372 N 
ATOM      3  N   UNL     1      12.005  -2.081   2.439  0.00  0.00    -0.372 N 
ATOM      4  C   UNL     1      13.284  -2.396   2.208  0.00  0.00    +0.166 C 
ATOM      5  H   UNL     1      15.241  -2.091   2.641  0.00  0.00    +0.163 HD
ATOM      6  H   UNL     1      12.801  -3.832   0.817  0.00  0.00    +0.159 HD
ATOM      7  H   UNL     1      14.492  -3.627   1.082  0.00  0.00    +0.159 HD
ATOM      8  H   UNL     1      11.742  -1.369   3.108  0.00  0.00    +0.159 HD
ATOM      9  H   UNL     1      11.248  -2.554   1.963  0.00  0.00    +0.159 HD
ENDROOT
BRANCH   1  10
ATOM     10  C   UNL     1      14.122  -0.691   3.793  0.00  0.00    +0.151 C 
BRANCH  10  11
ATOM     11  C   UNL     1      14.598   0.589   3.164  0.00  0.00    -0.028 A 
ATOM     12  C   UNL     1      15.518   1.411   3.831  0.00  0.00    +0.005 A 
ATOM     13  C   UNL     1      14.138   0.983   1.898  0.00  0.00    +0.005 A 
ATOM     14  C   UNL     1      15.984   2.585   3.234  0.00  0.00    +0.000 A 
ATOM     15  C   UNL     1      14.605   2.156   1.305  0.00  0.00    +0.000 A 
ATOM     16  C   UNL     1      15.529   2.956   1.972  0.00  0.00    +0.000 A 
ENDBRANCH  10  11
ENDBRANCH   1  10
TORSDOF 2
ENDMDL
MODEL 5
REMARK VINA RESULT:    -4.828     23.699     25.126
REMARK INTER + INTRA:          -5.502
REMARK INTER:                  -5.387
REMARK INTRA:                  -0.115
REMARK UNBOUND:                -0.109
REMARK  Name = 1550473
REMARK  2 active torsions:
REMARK  status: ('A' for Active; 'I' for Inactive)
REMARK    1  A    between atoms: N_1  and  C_4
REMARK    2  A    between atoms: C_4  and  C_5
REMARK                            x       y       z     vdW  Elec       q    Type
REMARK                         _______ _______ _______ _____ _____    ______ ____
ROOT
ATOM      1  N   UNL     1       9.647  14.351  19.196  0.00  0.00    -0.354 N 
ATOM      2  N   UNL     1      10.863  15.299  17.467  0.00  0.00    -0.372 N 
ATOM      3  N   UNL     1      11.493  15.728  19.632  0.00  0.00    -0.372 N 
ATOM      4  C   UNL     1      10.661  15.121  18.779  0.00  0.00    +0.166 C 
ATOM      5  H   UNL     1       9.034  13.944  18.500  0.00  0.00    +0.163 HD
ATOM      6  H   UNL     1      11.621  15.871  17.122  0.00  0.00    +0.159 HD
ATOM      7  H   UNL     1      10.276  14.853  16.773  0.00  0.00    +0.159 HD
ATOM      8  H   UNL     1      11.391  15.639  20.634  0.00  0.00    +0.159 HD
ATOM      9  H   UNL     1      12.251  16.314  19.306  0.00  0.00    +0.159 HD
ENDROOT
BRANCH   1  10
ATOM     10  C   UNL     1       9.374  14.050  20.600  0.00  0.00    +0.151 C 
BRANCH  10  11
ATOM     11  C   UNL     1       8.380  12.924  20.677  0.00  0.00    -0.028 A 
ATOM     12  C   UNL     1       7.340  12.954  21.617  0.00  0.00    +0.005 A 
ATOM     13  C   UNL     1       8.470  11.826  19.808  0.00  0.00    +0.005 A 
ATOM     14  C   UNL     1       6.400  11.923  21.669  0.00  0.00    +0.000 A 
ATOM     15  C   UNL     1       7.530  10.797  19.863  0.00  0.00    +0.000 A 
ATOM     16  C   UNL     1       6.493  10.847  20.792  0.00  0.00    +0.000 A 
ENDBRANCH  10  11
ENDBRANCH   1  10
TORSDOF 2
ENDMDL
MODEL 6
REMARK VINA RESULT:    -4.651     19.530     20.298
REMARK INTER + INTRA:          -5.304
REMARK INTER:                  -5.156
REMARK INTRA:                  -0.147
REMARK UNBOUND:                -0.109
REMARK  Name = 1550473
REMARK  2 active torsions:
REMARK  status: ('A' for Active; 'I' for Inactive)
REMARK    1  A    between atoms: N_1  and  C_4
REMARK    2  A    between atoms: C_4  and  C_5
REMARK                            x       y       z     vdW  Elec       q    Type
REMARK                         _______ _______ _______ _____ _____    ______ ____
ROOT
ATOM      1  N   UNL     1      -1.037  -3.667 -13.501  0.00  0.00    -0.354 N 
ATOM      2  N   UNL     1       0.820  -4.382 -12.316  0.00  0.00    -0.372 N 
ATOM      3  N   UNL     1       1.100  -2.840 -13.992  0.00  0.00    -0.372 N 
ATOM      4  C   UNL     1       0.284  -3.623 -13.279  0.00  0.00    +0.166 C 
ATOM      5  H   UNL     1      -1.597  -4.304 -12.946  0.00  0.00    +0.163 HD
ATOM      6  H   UNL     1       1.813  -4.367 -12.123  0.00  0.00    +0.159 HD
ATOM      7  H   UNL     1       0.252  -4.983 -11.732  0.00  0.00    +0.159 HD
ATOM      8  H   UNL     1       0.759  -2.248 -14.738  0.00  0.00    +0.159 HD
ATOM      9  H   UNL     1       2.098  -2.820 -13.822  0.00  0.00    +0.159 HD
ENDROOT
BRANCH   1  10
ATOM     10  C   UNL     1      -1.728  -2.841 -14.490  0.00  0.00    +0.151 C 
BRANCH  10  11
ATOM     11  C   UNL     1      -2.415  -3.736 -15.483  0.00  0.00    -0.028 A 
ATOM     12  C   UNL     1      -2.512  -5.116 -15.250  0.00  0.00    +0.005 A 
ATOM     13  C   UNL     1      -2.978  -3.210 -16.656  0.00  0.00    +0.005 A 
ATOM     14  C   UNL     1      -3.177  -5.944 -16.158  0.00  0.00    +0.000 A 
ATOM     15  C   UNL     1      -3.640  -4.040 -17.561  0.00  0.00    +0.000 A 
ATOM     16  C   UNL     1      -3.742  -5.407 -17.310  0.00  0.00    +0.000 A 
ENDBRANCH  10  11
ENDBRANCH   1  10
TORSDOF 2
ENDMDL
MODEL 7
REMARK VINA RESULT:    -4.603      1.717      2.196
REMARK INTER + INTRA:          -5.251
REMARK INTER:                  -5.108
REMARK INTRA:                  -0.143
REMARK UNBOUND:                -0.109
REMARK  Name = 1550473
REMARK  2 active torsions:
REMARK  status: ('A' for Active; 'I' for Inactive)
REMARK    1  A    between atoms: N_1  and  C_4
REMARK    2  A    between atoms: C_4  and  C_5
REMARK                            x       y       z     vdW  Elec       q    Type
REMARK                         _______ _______ _______ _____ _____    ______ ____
ROOT
ATOM      1  N   UNL     1       0.772  -4.272   6.124  0.00  0.00    -0.354 N 
ATOM      2  N   UNL     1       2.465  -4.357   7.703  0.00  0.00    -0.372 N 
ATOM      3  N   UNL     1       1.012  -2.581   7.729  0.00  0.00    -0.372 N 
ATOM      4  C   UNL     1       1.404  -3.734   7.175  0.00  0.00    +0.166 C 
ATOM      5  H   UNL     1       1.137  -5.133   5.732  0.00  0.00    +0.163 HD
ATOM      6  H   UNL     1       2.960  -3.977   8.498  0.00  0.00    +0.159 HD
ATOM      7  H   UNL     1       2.800  -5.241   7.337  0.00  0.00    +0.159 HD
ATOM      8  H   UNL     1       0.223  -2.058   7.374  0.00  0.00    +0.159 HD
ATOM      9  H   UNL     1       1.502  -2.179   8.518  0.00  0.00    +0.159 HD
ENDROOT
BRANCH   1  10
ATOM     10  C   UNL     1      -0.425  -3.701   5.509  0.00  0.00    +0.151 C 
BRANCH  10  11
ATOM     11  C   UNL     1      -1.460  -4.780   5.355  0.00  0.00    -0.028 A 
ATOM     12  C   UNL     1      -2.716  -4.488   4.803  0.00  0.00    +0.005 A 
ATOM     13  C   UNL     1      -1.190  -6.098   5.754  0.00  0.00    +0.005 A 
ATOM     14  C   UNL     1      -3.668  -5.497   4.631  0.00  0.00    +0.000 A 
ATOM     15  C   UNL     1      -2.143  -7.102   5.582  0.00  0.00    +0.000 A 
ATOM     16  C   UNL     1      -3.381  -6.801   5.018  0.00  0.00    +0.000 A 
ENDBRANCH  10  11
ENDBRANCH   1  10
TORSDOF 2
ENDMDL
MODEL 8
REMARK VINA RESULT:    -4.576     21.587     23.553
REMARK INTER + INTRA:          -5.220
REMARK INTER:                  -5.104
REMARK INTRA:                  -0.117
REMARK UNBOUND:                -0.109
REMARK  Name = 1550473
REMARK  2 active torsions:
REMARK  status: ('A' for Active; 'I' for Inactive)
REMARK    1  A    between atoms: N_1  and  C_4
REMARK    2  A    between atoms: C_4  and  C_5
REMARK                            x       y       z     vdW  Elec       q    Type
REMARK                         _______ _______ _______ _____ _____    ______ ____
ROOT
ATOM      1  N   UNL     1       6.338   9.933  19.422  0.00  0.00    -0.354 N 
ATOM      2  N   UNL     1       6.100   7.875  18.387  0.00  0.00    -0.372 N 
ATOM      3  N   UNL     1       4.693   9.586  17.789  0.00  0.00    -0.372 N 
ATOM      4  C   UNL     1       5.710   9.146  18.538  0.00  0.00    +0.166 C 
ATOM      5  H   UNL     1       7.081   9.531  19.982  0.00  0.00    +0.163 HD
ATOM      6  H   UNL     1       5.647   7.258  17.726  0.00  0.00    +0.159 HD
ATOM      7  H   UNL     1       6.873   7.488  18.915  0.00  0.00    +0.159 HD
ATOM      8  H   UNL     1       4.347  10.533  17.859  0.00  0.00    +0.159 HD
ATOM      9  H   UNL     1       4.220   8.981  17.130  0.00  0.00    +0.159 HD
ENDROOT
BRANCH   1  10
ATOM     10  C   UNL     1       6.025  11.347  19.625  0.00  0.00    +0.151 C 
BRANCH  10  11
ATOM     11  C   UNL     1       7.222  12.033  20.223  0.00  0.00    -0.028 A 
ATOM     12  C   UNL     1       7.080  12.863  21.345  0.00  0.00    +0.005 A 
ATOM     13  C   UNL     1       8.502  11.853  19.677  0.00  0.00    +0.005 A 
ATOM     14  C   UNL     1       8.195  13.477  21.920  0.00  0.00    +0.000 A 
ATOM     15  C   UNL     1       9.613  12.468  20.253  0.00  0.00    +0.000 A 
ATOM     16  C   UNL     1       9.460  13.278  21.376  0.00  0.00    +0.000 A 
ENDBRANCH  10  11
ENDBRANCH   1  10
TORSDOF 2
ENDMDL
MODEL 9
REMARK VINA RESULT:    -4.539      3.239      4.239
REMARK INTER + INTRA:          -5.179
REMARK INTER:                  -5.039
REMARK INTRA:                  -0.140
REMARK UNBOUND:                -0.109
REMARK  Name = 1550473
REMARK  2 active torsions:
REMARK  status: ('A' for Active; 'I' for Inactive)
REMARK    1  A    between atoms: N_1  and  C_4
REMARK    2  A    between atoms: C_4  and  C_5
REMARK                            x       y       z     vdW  Elec       q    Type
REMARK                         _______ _______ _______ _____ _____    ______ ____
ROOT
ATOM      1  N   UNL     1       2.246  -2.454   5.109  0.00  0.00    -0.354 N 
ATOM      2  N   UNL     1       1.230  -1.721   3.161  0.00  0.00    -0.372 N 
ATOM      3  N   UNL     1       1.253  -0.335   4.989  0.00  0.00    -0.372 N 
ATOM      4  C   UNL     1       1.582  -1.506   4.434  0.00  0.00    +0.166 C 
ATOM      5  H   UNL     1       2.439  -3.332   4.640  0.00  0.00    +0.163 HD
ATOM      6  H   UNL     1       0.731  -1.023   2.625  0.00  0.00    +0.159 HD
ATOM      7  H   UNL     1       1.464  -2.582   2.681  0.00  0.00    +0.159 HD
ATOM      8  H   UNL     1       1.485  -0.113   5.948  0.00  0.00    +0.159 HD
ATOM      9  H   UNL     1       0.744   0.372   4.473  0.00  0.00    +0.159 HD
ENDROOT
BRANCH   1  10
ATOM     10  C   UNL     1       2.722  -2.299   6.482  0.00  0.00    +0.151 C 
BRANCH  10  11
ATOM     11  C   UNL     1       2.376  -3.535   7.265  0.00  0.00    -0.028 A 
ATOM     12  C   UNL     1       1.172  -4.215   7.026  0.00  0.00    +0.005 A 
ATOM     13  C   UNL     1       3.249  -4.035   8.243  0.00  0.00    +0.005 A 
ATOM     14  C   UNL     1       0.863  -5.380   7.732  0.00  0.00    +0.000 A 
ATOM     15  C   UNL     1       2.936  -5.198   8.946  0.00  0.00    +0.000 A 
ATOM     16  C   UNL     1       1.745  -5.872   8.689  0.00  0.00    +0.000 A 
ENDBRANCH  10  11
ENDBRANCH   1  10
TORSDOF 2
ENDMDL
