MODEL 1
REMARK VINA RESULT:    -4.741      0.000      0.000
REMARK INTER + INTRA:          -5.419
REMARK INTER:                  -5.295
REMARK INTRA:                  -0.125
REMARK UNBOUND:                -0.125
REMARK  Name = 1550473
REMARK  2 active torsions:
REMARK  status: ('A' for Active; 'I' for Inactive)
REMARK    1  A    between atoms: N_1  and  C_4
REMARK    2  A    between atoms: C_4  and  C_5
REMARK                            x       y       z     vdW  Elec       q    Type
REMARK                         _______ _______ _______ _____ _____    ______ ____
ROOT
ATOM      1  N   UNL     1      -0.546   4.592 -15.872  0.00  0.00    -0.354 N 
ATOM      2  N   UNL     1       0.617   6.188 -14.662  0.00  0.00    -0.372 N 
ATOM      3  N   UNL     1       1.789   4.745 -16.008  0.00  0.00    -0.372 N 
ATOM      4  C   UNL     1       0.615   5.163 -15.523  0.00  0.00    +0.166 C 
ATOM      5  H   UNL     1      -1.399   4.935 -15.446  0.00  0.00    +0.163 HD
ATOM      6  H   UNL     1       1.477   6.641 -14.383  0.00  0.00    +0.159 HD
ATOM      7  H   UNL     1      -0.241   6.559 -14.273  0.00  0.00    +0.159 HD
ATOM      8  H   UNL     1       1.856   3.972 -16.657  0.00  0.00    +0.159 HD
ATOM      9  H   UNL     1       2.661   5.178 -15.732  0.00  0.00    +0.159 HD
ENDROOT
BRANCH   1  10
ATOM     10  C   UNL     1      -0.663   3.505 -16.843  0.00  0.00    +0.151 C 
BRANCH  10  11
ATOM     11  C   UNL     1      -1.938   2.751 -16.585  0.00  0.00    -0.028 A 
ATOM     12  C   UNL     1      -2.590   2.077 -17.628  0.00  0.00    +0.005 A 
ATOM     13  C   UNL     1      -2.497   2.702 -15.299  0.00  0.00    +0.005 A 
ATOM     14  C   UNL     1      -3.759   1.352 -17.383  0.00  0.00    +0.000 A 
ATOM     15  C   UNL     1      -3.664   1.978 -15.058  0.00  0.00    +0.000 A 
ATOM     16  C   UNL     1      -4.293   1.301 -16.100  0.00  0.00    +0.000 A 
ENDBRANCH  10  11
ENDBRANCH   1  10
TORSDOF 2
ENDMDL
MODEL 2
REMARK VINA RESULT:    -4.692     10.110     12.106
REMARK INTER + INTRA:          -5.365
REMARK INTER:                  -5.240
REMARK INTRA:                  -0.124
REMARK UNBOUND:                -0.125
REMARK  Name = 1550473
REMARK  2 active torsions:
REMARK  status: ('A' for Active; 'I' for Inactive)
REMARK    1  A    between atoms: N_1  and  C_4
REMARK    2  A    between atoms: C_4  and  C_5
REMARK                            x       y       z     vdW  Elec       q    Type
REMARK                         _______ _______ _______ _____ _____    ______ ____
ROOT
ATOM      1  N   UNL     1     -11.127  -1.014 -16.937  0.00  0.00    -0.354 N 
ATOM      2  N   UNL     1     -10.258  -0.415 -18.998  0.00  0.00    -0.372 N 
ATOM      3  N   UNL     1      -9.087  -1.890 -17.687  0.00  0.00    -0.372 N 
ATOM      4  C   UNL     1     -10.161  -1.112 -17.860  0.00  0.00    +0.166 C 
ATOM      5  H   UNL     1     -11.901  -0.383 -17.114  0.00  0.00    +0.163 HD
ATOM      6  H   UNL     1      -9.546  -0.471 -19.714  0.00  0.00    +0.159 HD
ATOM      7  H   UNL     1     -11.055   0.179 -19.193  0.00  0.00    +0.159 HD
ATOM      8  H   UNL     1      -8.952  -2.437 -16.848  0.00  0.00    +0.159 HD
ATOM      9  H   UNL     1      -8.359  -1.950 -18.387  0.00  0.00    +0.159 HD
ENDROOT
BRANCH   1  10
ATOM     10  C   UNL     1     -11.144  -1.772 -15.687  0.00  0.00    +0.151 C 
BRANCH  10  11
ATOM     11  C   UNL     1     -12.549  -1.807 -15.152  0.00  0.00    -0.028 A 
ATOM     12  C   UNL     1     -12.784  -1.979 -13.780  0.00  0.00    +0.005 A 
ATOM     13  C   UNL     1     -13.649  -1.662 -16.011  0.00  0.00    +0.005 A 
ATOM     14  C   UNL     1     -14.088  -1.981 -13.279  0.00  0.00    +0.000 A 
ATOM     15  C   UNL     1     -14.949  -1.666 -15.507  0.00  0.00    +0.000 A 
ATOM     16  C   UNL     1     -15.169  -1.823 -14.141  0.00  0.00    +0.000 A 
ENDBRANCH  10  11
ENDBRANCH   1  10
TORSDOF 2
ENDMDL
MODEL 3
REMARK VINA RESULT:    -4.538     28.004     29.221
REMARK INTER + INTRA:          -5.193
REMARK INTER:                  -5.036
REMARK INTRA:                  -0.157
REMARK UNBOUND:                -0.125
REMARK  Name = 1550473
REMARK  2 active torsions:
REMARK  status: ('A' for Active; 'I' for Inactive)
REMARK    1  A    between atoms: N_1  and  C_4
REMARK    2  A    between atoms: C_4  and  C_5
REMARK                            x       y       z     vdW  Elec       q    Type
REMARK                         _______ _______ _______ _____ _____    ______ ____
ROOT
ATOM      1  N   UNL     1      -8.207 -20.832  -1.529  0.00  0.00    -0.354 N 
ATOM      2  N   UNL     1      -6.768 -19.018  -1.561  0.00  0.00    -0.372 N 
ATOM      3  N   UNL     1      -5.944 -21.097  -2.075  0.00  0.00    -0.372 N 
ATOM      4  C   UNL     1      -6.981 -20.330  -1.722  0.00  0.00    +0.166 C 
ATOM      5  H   UNL     1      -8.944 -20.202  -1.232  0.00  0.00    +0.163 HD
ATOM      6  H   UNL     1      -5.853 -18.610  -1.703  0.00  0.00    +0.159 HD
ATOM      7  H   UNL     1      -7.516 -18.384  -1.309  0.00  0.00    +0.159 HD
ATOM      8  H   UNL     1      -6.037 -22.096  -2.207  0.00  0.00    +0.159 HD
ATOM      9  H   UNL     1      -5.019 -20.709  -2.211  0.00  0.00    +0.159 HD
ENDROOT
BRANCH   1  10
ATOM     10  C   UNL     1      -8.557 -22.237  -1.730  0.00  0.00    +0.151 C 
BRANCH  10  11
ATOM     11  C   UNL     1      -9.514 -22.344  -2.885  0.00  0.00    -0.028 A 
ATOM     12  C   UNL     1      -9.074 -22.119  -4.198  0.00  0.00    +0.005 A 
ATOM     13  C   UNL     1     -10.861 -22.677  -2.674  0.00  0.00    +0.005 A 
ATOM     14  C   UNL     1      -9.956 -22.248  -5.274  0.00  0.00    +0.000 A 
ATOM     15  C   UNL     1     -11.738 -22.804  -3.751  0.00  0.00    +0.000 A 
ATOM     16  C   UNL     1     -11.285 -22.592  -5.050  0.00  0.00    +0.000 A 
ENDBRANCH  10  11
ENDBRANCH   1  10
TORSDOF 2
ENDMDL
MODEL 4
REMARK VINA RESULT:    -4.441     28.768     29.777
REMARK INTER + INTRA:          -5.085
REMARK INTER:                  -4.979
REMARK INTRA:                  -0.106
REMARK UNBOUND:                -0.125
REMARK  Name = 1550473
REMARK  2 active torsions:
REMARK  status: ('A' for Active; 'I' for Inactive)
REMARK    1  A    between atoms: N_1  and  C_4
REMARK    2  A    between atoms: C_4  and  C_5
REMARK                            x       y       z     vdW  Elec       q    Type
REMARK                         _______ _______ _______ _____ _____    ______ ____
ROOT
ATOM      1  N   UNL     1      -3.490  -5.593  12.415  0.00  0.00    -0.354 N 
ATOM      2  N   UNL     1      -2.919  -3.627  13.498  0.00  0.00    -0.372 N 
ATOM      3  N   UNL     1      -1.960  -5.594  14.190  0.00  0.00    -0.372 N 
ATOM      4  C   UNL     1      -2.792  -4.953  13.362  0.00  0.00    +0.166 C 
ATOM      5  H   UNL     1      -4.127  -5.054  11.839  0.00  0.00    +0.163 HD
ATOM      6  H   UNL     1      -2.403  -3.116  14.201  0.00  0.00    +0.159 HD
ATOM      7  H   UNL     1      -3.521  -3.084  12.891  0.00  0.00    +0.159 HD
ATOM      8  H   UNL     1      -1.824  -6.595  14.143  0.00  0.00    +0.159 HD
ATOM      9  H   UNL     1      -1.443  -5.102  14.908  0.00  0.00    +0.159 HD
ENDROOT
BRANCH   1  10
ATOM     10  C   UNL     1      -3.384  -7.026  12.149  0.00  0.00    +0.151 C 
BRANCH  10  11
ATOM     11  C   UNL     1      -4.583  -7.470  11.357  0.00  0.00    -0.028 A 
ATOM     12  C   UNL     1      -4.428  -8.011  10.072  0.00  0.00    +0.005 A 
ATOM     13  C   UNL     1      -5.877  -7.356  11.888  0.00  0.00    +0.005 A 
ATOM     14  C   UNL     1      -5.539  -8.450   9.348  0.00  0.00    +0.000 A 
ATOM     15  C   UNL     1      -6.984  -7.796  11.162  0.00  0.00    +0.000 A 
ATOM     16  C   UNL     1      -6.814  -8.345   9.893  0.00  0.00    +0.000 A 
ENDBRANCH  10  11
ENDBRANCH   1  10
TORSDOF 2
ENDMDL
MODEL 5
REMARK VINA RESULT:    -4.397     27.468     28.611
REMARK INTER + INTRA:          -5.036
REMARK INTER:                  -4.895
REMARK INTRA:                  -0.141
REMARK UNBOUND:                -0.125
REMARK  Name = 1550473
REMARK  2 active torsions:
REMARK  status: ('A' for Active; 'I' for Inactive)
REMARK    1  A    between atoms: N_1  and  C_4
REMARK    2  A    between atoms: C_4  and  C_5
REMARK                            x       y       z     vdW  Elec       q    Type
REMARK                         _______ _______ _______ _____ _____    ______ ____
ROOT
ATOM      1  N   UNL     1      -4.772 -13.099   6.661  0.00  0.00    -0.354 N 
ATOM      2  N   UNL     1      -3.876 -14.867   5.462  0.00  0.00    -0.372 N 
ATOM      3  N   UNL     1      -4.993 -13.212   4.331  0.00  0.00    -0.372 N 
ATOM      4  C   UNL     1      -4.554 -13.713   5.490  0.00  0.00    +0.166 C 
ATOM      5  H   UNL     1      -4.439 -13.545   7.508  0.00  0.00    +0.163 HD
ATOM      6  H   UNL     1      -3.693 -15.351   4.594  0.00  0.00    +0.159 HD
ATOM      7  H   UNL     1      -3.505 -15.287   6.306  0.00  0.00    +0.159 HD
ATOM      8  H   UNL     1      -5.516 -12.348   4.284  0.00  0.00    +0.159 HD
ATOM      9  H   UNL     1      -4.830 -13.689   3.452  0.00  0.00    +0.159 HD
ENDROOT
BRANCH   1  10
ATOM     10  C   UNL     1      -5.452 -11.812   6.795  0.00  0.00    +0.151 C 
BRANCH  10  11
ATOM     11  C   UNL     1      -6.858 -12.047   7.274  0.00  0.00    -0.028 A 
ATOM     12  C   UNL     1      -7.197 -11.838   8.619  0.00  0.00    +0.005 A 
ATOM     13  C   UNL     1      -7.858 -12.475   6.387  0.00  0.00    +0.005 A 
ATOM     14  C   UNL     1      -8.509 -12.027   9.058  0.00  0.00    +0.000 A 
ATOM     15  C   UNL     1      -9.167 -12.664   6.830  0.00  0.00    +0.000 A 
ATOM     16  C   UNL     1      -9.493 -12.438   8.165  0.00  0.00    +0.000 A 
ENDBRANCH  10  11
ENDBRANCH   1  10
TORSDOF 2
ENDMDL
MODEL 6
REMARK VINA RESULT:    -4.385     28.593     29.774
REMARK INTER + INTRA:          -5.022
REMARK INTER:                  -4.894
REMARK INTRA:                  -0.128
REMARK UNBOUND:                -0.125
REMARK  Name = 1550473
REMARK  2 active torsions:
REMARK  status: ('A' for Active; 'I' for Inactive)
REMARK    1  A    between atoms: N_1  and  C_4
REMARK    2  A    between atoms: C_4  and  C_5
REMARK                            x       y       z     vdW  Elec       q    Type
REMARK                         _______ _______ _______ _____ _____    ______ ____
ROOT
ATOM      1  N   UNL     1      -3.678  -9.371  10.142  0.00  0.00    -0.354 N 
ATOM      2  N   UNL     1      -2.900 -11.171   8.909  0.00  0.00    -0.372 N 
ATOM      3  N   UNL     1      -4.014  -9.483   7.825  0.00  0.00    -0.372 N 
ATOM      4  C   UNL     1      -3.537  -9.995   8.965  0.00  0.00    +0.166 C 
ATOM      5  H   UNL     1      -3.320  -9.826  10.974  0.00  0.00    +0.163 HD
ATOM      6  H   UNL     1      -2.776 -11.663   8.035  0.00  0.00    +0.159 HD
ATOM      7  H   UNL     1      -2.503 -11.601   9.735  0.00  0.00    +0.159 HD
ATOM      8  H   UNL     1      -4.510  -8.602   7.801  0.00  0.00    +0.159 HD
ATOM      9  H   UNL     1      -3.910  -9.966   6.942  0.00  0.00    +0.159 HD
ENDROOT
BRANCH   1  10
ATOM     10  C   UNL     1      -4.308  -8.062  10.303  0.00  0.00    +0.151 C 
BRANCH  10  11
ATOM     11  C   UNL     1      -3.631  -7.326  11.426  0.00  0.00    -0.028 A 
ATOM     12  C   UNL     1      -3.797  -5.941  11.572  0.00  0.00    +0.005 A 
ATOM     13  C   UNL     1      -2.827  -8.009  12.351  0.00  0.00    +0.005 A 
ATOM     14  C   UNL     1      -3.193  -5.261  12.633  0.00  0.00    +0.000 A 
ATOM     15  C   UNL     1      -2.224  -7.327  13.409  0.00  0.00    +0.000 A 
ATOM     16  C   UNL     1      -2.410  -5.953  13.550  0.00  0.00    +0.000 A 
ENDBRANCH  10  11
ENDBRANCH   1  10
TORSDOF 2
ENDMDL
MODEL 7
REMARK VINA RESULT:    -4.382     35.360     36.662
REMARK INTER + INTRA:          -5.019
REMARK INTER:                  -4.864
REMARK INTRA:                  -0.155
REMARK UNBOUND:                -0.125
REMARK  Name = 1550473
REMARK  2 active torsions:
REMARK  status: ('A' for Active; 'I' for Inactive)
REMARK    1  A    between atoms: N_1  and  C_4
REMARK    2  A    between atoms: C_4  and  C_5
REMARK                            x       y       z     vdW  Elec       q    Type
REMARK                         _______ _______ _______ _____ _____    ______ ____
ROOT
ATOM      1  N   UNL     1      18.009  -1.078  14.623  0.00  0.00    -0.354 N 
ATOM      2  N   UNL     1      15.818  -1.811  14.794  0.00  0.00    -0.372 N 
ATOM      3  N   UNL     1      16.526  -0.885  12.818  0.00  0.00    -0.372 N 
ATOM      4  C   UNL     1      16.799  -1.252  14.074  0.00  0.00    +0.166 C 
ATOM      5  H   UNL     1      18.143  -1.349  15.590  0.00  0.00    +0.163 HD
ATOM      6  H   UNL     1      14.896  -1.958  14.407  0.00  0.00    +0.159 HD
ATOM      7  H   UNL     1      15.968  -2.123  15.746  0.00  0.00    +0.159 HD
ATOM      8  H   UNL     1      17.221  -0.453  12.224  0.00  0.00    +0.159 HD
ATOM      9  H   UNL     1      15.606  -1.014  12.416  0.00  0.00    +0.159 HD
ENDROOT
BRANCH   1  10
ATOM     10  C   UNL     1      19.159  -0.528  13.907  0.00  0.00    +0.151 C 
BRANCH  10  11
ATOM     11  C   UNL     1      19.235   0.952  14.163  0.00  0.00    -0.028 A 
ATOM     12  C   UNL     1      19.564   1.837  13.126  0.00  0.00    +0.005 A 
ATOM     13  C   UNL     1      18.974   1.475  15.438  0.00  0.00    +0.005 A 
ATOM     14  C   UNL     1      19.606   3.215  13.356  0.00  0.00    +0.000 A 
ATOM     15  C   UNL     1      19.018   2.851  15.664  0.00  0.00    +0.000 A 
ATOM     16  C   UNL     1      19.331   3.720  14.622  0.00  0.00    +0.000 A 
ENDBRANCH  10  11
ENDBRANCH   1  10
TORSDOF 2
ENDMDL
MODEL 8
REMARK VINA RESULT:    -4.334     10.513     11.223
REMARK INTER + INTRA:          -4.965
REMARK INTER:                  -4.812
REMARK INTRA:                  -0.154
REMARK UNBOUND:                -0.125
REMARK  Name = 1550473
REMARK  2 active torsions:
REMARK  status: ('A' for Active; 'I' for Inactive)
REMARK    1  A    between atoms: N_1  and  C_4
REMARK    2  A    between atoms: C_4  and  C_5
REMARK                            x       y       z     vdW  Elec       q    Type
REMARK                         _______ _______ _______ _____ _____    ______ ____
ROOT
ATOM      1  N   UNL     1       8.127  -3.197 -17.549  0.00  0.00    -0.354 N 
ATOM      2  N   UNL     1       8.042  -2.501 -15.342  0.00  0.00    -0.372 N 
ATOM      3  N   UNL     1       6.595  -4.138 -16.046  0.00  0.00    -0.372 N 
ATOM      4  C   UNL     1       7.586  -3.285 -16.326  0.00  0.00    +0.166 C 
ATOM      5  H   UNL     1       8.855  -2.509 -17.705  0.00  0.00    +0.163 HD
ATOM      6  H   UNL     1       7.655  -2.548 -14.408  0.00  0.00    +0.159 HD
ATOM      7  H   UNL     1       8.801  -1.847 -15.489  0.00  0.00    +0.159 HD
ATOM      8  H   UNL     1       6.203  -4.752 -16.746  0.00  0.00    +0.159 HD
ATOM      9  H   UNL     1       6.187  -4.190 -15.120  0.00  0.00    +0.159 HD
ENDROOT
BRANCH   1  10
ATOM     10  C   UNL     1       7.740  -4.043 -18.677  0.00  0.00    +0.151 C 
BRANCH  10  11
ATOM     11  C   UNL     1       6.941  -3.224 -19.653  0.00  0.00    -0.028 A 
ATOM     12  C   UNL     1       6.043  -3.844 -20.535  0.00  0.00    +0.005 A 
ATOM     13  C   UNL     1       7.073  -1.828 -19.697  0.00  0.00    +0.005 A 
ATOM     14  C   UNL     1       5.279  -3.082 -21.421  0.00  0.00    +0.000 A 
ATOM     15  C   UNL     1       6.308  -1.070 -20.584  0.00  0.00    +0.000 A 
ATOM     16  C   UNL     1       5.409  -1.697 -21.444  0.00  0.00    +0.000 A 
ENDBRANCH  10  11
ENDBRANCH   1  10
TORSDOF 2
ENDMDL
MODEL 9
REMARK VINA RESULT:    -4.064     30.000     31.434
REMARK INTER + INTRA:          -4.664
REMARK INTER:                  -4.572
REMARK INTRA:                  -0.092
REMARK UNBOUND:                -0.125
REMARK  Name = 1550473
REMARK  2 active torsions:
REMARK  status: ('A' for Active; 'I' for Inactive)
REMARK    1  A    between atoms: N_1  and  C_4
REMARK    2  A    between atoms: C_4  and  C_5
REMARK                            x       y       z     vdW  Elec       q    Type
REMARK                         _______ _______ _______ _____ _____    ______ ____
ROOT
ATOM      1  N   UNL     1      14.815  -4.077   7.485  0.00  0.00    -0.354 N 
ATOM      2  N   UNL     1      13.069  -3.635   6.029  0.00  0.00    -0.372 N 
ATOM      3  N   UNL     1      14.448  -5.417   5.597  0.00  0.00    -0.372 N 
ATOM      4  C   UNL     1      14.123  -4.382   6.378  0.00  0.00    +0.166 C 
ATOM      5  H   UNL     1      14.536  -3.262   8.018  0.00  0.00    +0.163 HD
ATOM      6  H   UNL     1      12.526  -3.843   5.202  0.00  0.00    +0.159 HD
ATOM      7  H   UNL     1      12.764  -2.848   6.589  0.00  0.00    +0.159 HD
ATOM      8  H   UNL     1      15.237  -6.016   5.803  0.00  0.00    +0.159 HD
ATOM      9  H   UNL     1      13.924  -5.634   4.759  0.00  0.00    +0.159 HD
ENDROOT
BRANCH   1  10
ATOM     10  C   UNL     1      15.946  -4.858   7.982  0.00  0.00    +0.151 C 
BRANCH  10  11
ATOM     11  C   UNL     1      16.624  -4.093   9.085  0.00  0.00    -0.028 A 
ATOM     12  C   UNL     1      17.799  -3.369   8.832  0.00  0.00    +0.005 A 
ATOM     13  C   UNL     1      16.094  -4.082  10.384  0.00  0.00    +0.005 A 
ATOM     14  C   UNL     1      18.413  -2.634   9.849  0.00  0.00    +0.000 A 
ATOM     15  C   UNL     1      16.710  -3.347  11.397  0.00  0.00    +0.000 A 
ATOM     16  C   UNL     1      17.868  -2.621  11.128  0.00  0.00    +0.000 A 
ENDBRANCH  10  11
ENDBRANCH   1  10
TORSDOF 2
ENDMDL
