MODEL 1
REMARK VINA RESULT:    -5.193      0.000      0.000
REMARK INTER + INTRA:          -5.932
REMARK INTER:                  -5.800
REMARK INTRA:                  -0.132
REMARK UNBOUND:                -0.132
REMARK  Name = 1550473
REMARK  2 active torsions:
REMARK  status: ('A' for Active; 'I' for Inactive)
REMARK    1  A    between atoms: N_1  and  C_4
REMARK    2  A    between atoms: C_4  and  C_5
REMARK                            x       y       z     vdW  Elec       q    Type
REMARK                         _______ _______ _______ _____ _____    ______ ____
ROOT
ATOM      1  N   UNL     1      12.814 -23.412  -3.955  0.00  0.00    -0.354 N 
ATOM      2  N   UNL     1      11.068 -24.875  -4.376  0.00  0.00    -0.372 N 
ATOM      3  N   UNL     1      13.026 -25.117  -5.548  0.00  0.00    -0.372 N 
ATOM      4  C   UNL     1      12.316 -24.459  -4.625  0.00  0.00    +0.166 C 
ATOM      5  H   UNL     1      12.214 -22.937  -3.289  0.00  0.00    +0.163 HD
ATOM      6  H   UNL     1      10.667 -25.665  -4.863  0.00  0.00    +0.159 HD
ATOM      7  H   UNL     1      10.487 -24.428  -3.677  0.00  0.00    +0.159 HD
ATOM      8  H   UNL     1      13.971 -24.850  -5.787  0.00  0.00    +0.159 HD
ATOM      9  H   UNL     1      12.638 -25.903  -6.055  0.00  0.00    +0.159 HD
ENDROOT
BRANCH   1  10
ATOM     10  C   UNL     1      14.179 -22.913  -4.113  0.00  0.00    +0.151 C 
BRANCH  10  11
ATOM     11  C   UNL     1      14.129 -21.464  -4.513  0.00  0.00    -0.028 A 
ATOM     12  C   UNL     1      13.585 -20.505  -3.646  0.00  0.00    +0.005 A 
ATOM     13  C   UNL     1      14.630 -21.044  -5.754  0.00  0.00    +0.005 A 
ATOM     14  C   UNL     1      13.566 -19.155  -4.004  0.00  0.00    +0.000 A 
ATOM     15  C   UNL     1      14.608 -19.695  -6.108  0.00  0.00    +0.000 A 
ATOM     16  C   UNL     1      14.078 -18.751  -5.232  0.00  0.00    +0.000 A 
ENDBRANCH  10  11
ENDBRANCH   1  10
TORSDOF 2
ENDMDL
MODEL 2
REMARK VINA RESULT:    -5.184      6.578      7.654
REMARK INTER + INTRA:          -5.922
REMARK INTER:                  -5.788
REMARK INTRA:                  -0.135
REMARK UNBOUND:                -0.132
REMARK  Name = 1550473
REMARK  2 active torsions:
REMARK  status: ('A' for Active; 'I' for Inactive)
REMARK    1  A    between atoms: N_1  and  C_4
REMARK    2  A    between atoms: C_4  and  C_5
REMARK                            x       y       z     vdW  Elec       q    Type
REMARK                         _______ _______ _______ _____ _____    ______ ____
ROOT
ATOM      1  N   UNL     1      11.482 -17.996 -11.284  0.00  0.00    -0.354 N 
ATOM      2  N   UNL     1       9.901 -16.710 -12.383  0.00  0.00    -0.372 N 
ATOM      3  N   UNL     1      12.101 -16.538 -13.010  0.00  0.00    -0.372 N 
ATOM      4  C   UNL     1      11.174 -17.089 -12.220  0.00  0.00    +0.166 C 
ATOM      5  H   UNL     1      10.738 -18.354 -10.696  0.00  0.00    +0.163 HD
ATOM      6  H   UNL     1       9.638 -16.030 -13.083  0.00  0.00    +0.159 HD
ATOM      7  H   UNL     1       9.152 -17.103 -11.826  0.00  0.00    +0.159 HD
ATOM      8  H   UNL     1      13.081 -16.776 -12.933  0.00  0.00    +0.159 HD
ATOM      9  H   UNL     1      11.859 -15.846 -13.709  0.00  0.00    +0.159 HD
ENDROOT
BRANCH   1  10
ATOM     10  C   UNL     1      12.830 -18.516 -11.061  0.00  0.00    +0.151 C 
BRANCH  10  11
ATOM     11  C   UNL     1      13.078 -18.621  -9.582  0.00  0.00    -0.028 A 
ATOM     12  C   UNL     1      13.780 -19.714  -9.053  0.00  0.00    +0.005 A 
ATOM     13  C   UNL     1      12.620 -17.627  -8.704  0.00  0.00    +0.005 A 
ATOM     14  C   UNL     1      14.037 -19.797  -7.682  0.00  0.00    +0.000 A 
ATOM     15  C   UNL     1      12.877 -17.713  -7.336  0.00  0.00    +0.000 A 
ATOM     16  C   UNL     1      13.588 -18.797  -6.826  0.00  0.00    +0.000 A 
ENDBRANCH  10  11
ENDBRANCH   1  10
TORSDOF 2
ENDMDL
MODEL 3
REMARK VINA RESULT:    -5.128      4.691      6.168
REMARK INTER + INTRA:          -5.860
REMARK INTER:                  -5.681
REMARK INTRA:                  -0.179
REMARK UNBOUND:                -0.132
REMARK  Name = 1550473
REMARK  2 active torsions:
REMARK  status: ('A' for Active; 'I' for Inactive)
REMARK    1  A    between atoms: N_1  and  C_4
REMARK    2  A    between atoms: C_4  and  C_5
REMARK                            x       y       z     vdW  Elec       q    Type
REMARK                         _______ _______ _______ _____ _____    ______ ____
ROOT
ATOM      1  N   UNL     1      15.535 -18.071  -5.201  0.00  0.00    -0.354 N 
ATOM      2  N   UNL     1      17.145 -16.472  -4.738  0.00  0.00    -0.372 N 
ATOM      3  N   UNL     1      14.931 -15.923  -4.486  0.00  0.00    -0.372 N 
ATOM      4  C   UNL     1      15.857 -16.831  -4.811  0.00  0.00    +0.166 C 
ATOM      5  H   UNL     1      16.283 -18.703  -5.463  0.00  0.00    +0.163 HD
ATOM      6  H   UNL     1      17.418 -15.544  -4.443  0.00  0.00    +0.159 HD
ATOM      7  H   UNL     1      17.892 -17.119  -4.956  0.00  0.00    +0.159 HD
ATOM      8  H   UNL     1      13.942 -16.129  -4.526  0.00  0.00    +0.159 HD
ATOM      9  H   UNL     1      15.184 -14.985  -4.201  0.00  0.00    +0.159 HD
ENDROOT
BRANCH   1  10
ATOM     10  C   UNL     1      14.166 -18.579  -5.263  0.00  0.00    +0.151 C 
BRANCH  10  11
ATOM     11  C   UNL     1      13.692 -18.543  -6.690  0.00  0.00    -0.028 A 
ATOM     12  C   UNL     1      12.911 -17.474  -7.154  0.00  0.00    +0.005 A 
ATOM     13  C   UNL     1      14.026 -19.571  -7.585  0.00  0.00    +0.005 A 
ATOM     14  C   UNL     1      12.496 -17.425  -8.487  0.00  0.00    +0.000 A 
ATOM     15  C   UNL     1      13.609 -19.518  -8.915  0.00  0.00    +0.000 A 
ATOM     16  C   UNL     1      12.846 -18.444  -9.366  0.00  0.00    +0.000 A 
ENDBRANCH  10  11
ENDBRANCH   1  10
TORSDOF 2
ENDMDL
MODEL 4
REMARK VINA RESULT:    -4.995     29.635     31.198
REMARK INTER + INTRA:          -5.712
REMARK INTER:                  -5.618
REMARK INTRA:                  -0.093
REMARK UNBOUND:                -0.132
REMARK  Name = 1550473
REMARK  2 active torsions:
REMARK  status: ('A' for Active; 'I' for Inactive)
REMARK    1  A    between atoms: N_1  and  C_4
REMARK    2  A    between atoms: C_4  and  C_5
REMARK                            x       y       z     vdW  Elec       q    Type
REMARK                         _______ _______ _______ _____ _____    ______ ____
ROOT
ATOM      1  N   UNL     1      -0.759   4.455  -5.924  0.00  0.00    -0.354 N 
ATOM      2  N   UNL     1       1.424   3.683  -5.930  0.00  0.00    -0.372 N 
ATOM      3  N   UNL     1       0.962   5.710  -6.900  0.00  0.00    -0.372 N 
ATOM      4  C   UNL     1       0.528   4.624  -6.253  0.00  0.00    +0.166 C 
ATOM      5  H   UNL     1      -1.029   3.595  -5.461  0.00  0.00    +0.163 HD
ATOM      6  H   UNL     1       2.403   3.784  -6.163  0.00  0.00    +0.159 HD
ATOM      7  H   UNL     1       1.159   2.845  -5.427  0.00  0.00    +0.159 HD
ATOM      8  H   UNL     1       0.336   6.454  -7.177  0.00  0.00    +0.159 HD
ATOM      9  H   UNL     1       1.936   5.824  -7.152  0.00  0.00    +0.159 HD
ENDROOT
BRANCH   1  10
ATOM     10  C   UNL     1      -1.805   5.444  -6.182  0.00  0.00    +0.151 C 
BRANCH  10  11
ATOM     11  C   UNL     1      -3.115   4.919  -5.662  0.00  0.00    -0.028 A 
ATOM     12  C   UNL     1      -4.087   4.429  -6.546  0.00  0.00    +0.005 A 
ATOM     13  C   UNL     1      -3.389   4.905  -4.286  0.00  0.00    +0.005 A 
ATOM     14  C   UNL     1      -5.292   3.914  -6.062  0.00  0.00    +0.000 A 
ATOM     15  C   UNL     1      -4.593   4.391  -3.806  0.00  0.00    +0.000 A 
ATOM     16  C   UNL     1      -5.544   3.893  -4.694  0.00  0.00    +0.000 A 
ENDBRANCH  10  11
ENDBRANCH   1  10
TORSDOF 2
ENDMDL
MODEL 5
REMARK VINA RESULT:    -4.838      4.098      5.952
REMARK INTER + INTRA:          -5.536
REMARK INTER:                  -5.436
REMARK INTRA:                  -0.099
REMARK UNBOUND:                -0.132
REMARK  Name = 1550473
REMARK  2 active torsions:
REMARK  status: ('A' for Active; 'I' for Inactive)
REMARK    1  A    between atoms: N_1  and  C_4
REMARK    2  A    between atoms: C_4  and  C_5
REMARK                            x       y       z     vdW  Elec       q    Type
REMARK                         _______ _______ _______ _____ _____    ______ ____
ROOT
ATOM      1  N   UNL     1      15.560 -18.051  -5.193  0.00  0.00    -0.354 N 
ATOM      2  N   UNL     1      17.229 -16.451  -5.046  0.00  0.00    -0.372 N 
ATOM      3  N   UNL     1      15.047 -15.764  -5.231  0.00  0.00    -0.372 N 
ATOM      4  C   UNL     1      15.932 -16.764  -5.158  0.00  0.00    +0.166 C 
ATOM      5  H   UNL     1      16.283 -18.761  -5.164  0.00  0.00    +0.163 HD
ATOM      6  H   UNL     1      17.539 -15.489  -5.013  0.00  0.00    +0.159 HD
ATOM      7  H   UNL     1      17.944 -17.163  -4.970  0.00  0.00    +0.159 HD
ATOM      8  H   UNL     1      14.054 -15.934  -5.323  0.00  0.00    +0.159 HD
ATOM      9  H   UNL     1      15.339 -14.795  -5.212  0.00  0.00    +0.159 HD
ENDROOT
BRANCH   1  10
ATOM     10  C   UNL     1      14.171 -18.499  -5.259  0.00  0.00    +0.151 C 
BRANCH  10  11
ATOM     11  C   UNL     1      14.050 -19.829  -4.569  0.00  0.00    -0.028 A 
ATOM     12  C   UNL     1      14.357 -21.016  -5.251  0.00  0.00    +0.005 A 
ATOM     13  C   UNL     1      13.635 -19.910  -3.231  0.00  0.00    +0.005 A 
ATOM     14  C   UNL     1      14.274 -22.250  -4.602  0.00  0.00    +0.000 A 
ATOM     15  C   UNL     1      13.552 -21.144  -2.586  0.00  0.00    +0.000 A 
ATOM     16  C   UNL     1      13.874 -22.313  -3.271  0.00  0.00    +0.000 A 
ENDBRANCH  10  11
ENDBRANCH   1  10
TORSDOF 2
ENDMDL
MODEL 6
REMARK VINA RESULT:    -4.796     27.166     28.034
REMARK INTER + INTRA:          -5.490
REMARK INTER:                  -5.379
REMARK INTRA:                  -0.111
REMARK UNBOUND:                -0.132
REMARK  Name = 1550473
REMARK  2 active torsions:
REMARK  status: ('A' for Active; 'I' for Inactive)
REMARK    1  A    between atoms: N_1  and  C_4
REMARK    2  A    between atoms: C_4  and  C_5
REMARK                            x       y       z     vdW  Elec       q    Type
REMARK                         _______ _______ _______ _____ _____    ______ ____
ROOT
ATOM      1  N   UNL     1       0.278   0.531   5.174  0.00  0.00    -0.354 N 
ATOM      2  N   UNL     1       2.198   1.792   5.473  0.00  0.00    -0.372 N 
ATOM      3  N   UNL     1       1.818   0.005   6.861  0.00  0.00    -0.372 N 
ATOM      4  C   UNL     1       1.419   0.766   5.836  0.00  0.00    +0.166 C 
ATOM      5  H   UNL     1       0.017   1.162   4.426  0.00  0.00    +0.163 HD
ATOM      6  H   UNL     1       3.066   1.992   5.951  0.00  0.00    +0.159 HD
ATOM      7  H   UNL     1       1.957   2.394   4.695  0.00  0.00    +0.159 HD
ATOM      8  H   UNL     1       1.272  -0.781   7.188  0.00  0.00    +0.159 HD
ATOM      9  H   UNL     1       2.678   0.196   7.360  0.00  0.00    +0.159 HD
ENDROOT
BRANCH   1  10
ATOM     10  C   UNL     1      -0.614  -0.593   5.456  0.00  0.00    +0.151 C 
BRANCH  10  11
ATOM     11  C   UNL     1      -1.668  -0.663   4.385  0.00  0.00    -0.028 A 
ATOM     12  C   UNL     1      -2.244   0.509   3.875  0.00  0.00    +0.005 A 
ATOM     13  C   UNL     1      -2.090  -1.899   3.873  0.00  0.00    +0.005 A 
ATOM     14  C   UNL     1      -3.201   0.446   2.859  0.00  0.00    +0.000 A 
ATOM     15  C   UNL     1      -3.047  -1.959   2.860  0.00  0.00    +0.000 A 
ATOM     16  C   UNL     1      -3.600  -0.786   2.351  0.00  0.00    +0.000 A 
ENDBRANCH  10  11
ENDBRANCH   1  10
TORSDOF 2
ENDMDL
MODEL 7
REMARK VINA RESULT:    -4.767      2.958      5.592
REMARK INTER + INTRA:          -5.457
REMARK INTER:                  -5.280
REMARK INTRA:                  -0.177
REMARK UNBOUND:                -0.132
REMARK  Name = 1550473
REMARK  2 active torsions:
REMARK  status: ('A' for Active; 'I' for Inactive)
REMARK    1  A    between atoms: N_1  and  C_4
REMARK    2  A    between atoms: C_4  and  C_5
REMARK                            x       y       z     vdW  Elec       q    Type
REMARK                         _______ _______ _______ _____ _____    ______ ____
ROOT
ATOM      1  N   UNL     1      12.286 -24.021  -4.447  0.00  0.00    -0.354 N 
ATOM      2  N   UNL     1      13.813 -22.283  -4.337  0.00  0.00    -0.372 N 
ATOM      3  N   UNL     1      14.590 -24.442  -4.382  0.00  0.00    -0.372 N 
ATOM      4  C   UNL     1      13.555 -23.596  -4.389  0.00  0.00    +0.166 C 
ATOM      5  H   UNL     1      11.544 -23.330  -4.419  0.00  0.00    +0.163 HD
ATOM      6  H   UNL     1      14.760 -21.932  -4.297  0.00  0.00    +0.159 HD
ATOM      7  H   UNL     1      13.071 -21.593  -4.356  0.00  0.00    +0.159 HD
ATOM      8  H   UNL     1      14.463 -25.445  -4.413  0.00  0.00    +0.159 HD
ATOM      9  H   UNL     1      15.545 -24.110  -4.329  0.00  0.00    +0.159 HD
ENDROOT
BRANCH   1  10
ATOM     10  C   UNL     1      11.899 -25.426  -4.560  0.00  0.00    +0.151 C 
BRANCH  10  11
ATOM     11  C   UNL     1      11.438 -25.697  -5.966  0.00  0.00    -0.028 A 
ATOM     12  C   UNL     1      10.087 -25.554  -6.313  0.00  0.00    +0.005 A 
ATOM     13  C   UNL     1      12.349 -26.092  -6.958  0.00  0.00    +0.005 A 
ATOM     14  C   UNL     1       9.663 -25.776  -7.625  0.00  0.00    +0.000 A 
ATOM     15  C   UNL     1      11.923 -26.314  -8.267  0.00  0.00    +0.000 A 
ATOM     16  C   UNL     1      10.580 -26.153  -8.601  0.00  0.00    +0.000 A 
ENDBRANCH  10  11
ENDBRANCH   1  10
TORSDOF 2
ENDMDL
MODEL 8
REMARK VINA RESULT:    -4.673     31.271     32.496
REMARK INTER + INTRA:          -5.352
REMARK INTER:                  -5.221
REMARK INTRA:                  -0.131
REMARK UNBOUND:                -0.132
REMARK  Name = 1550473
REMARK  2 active torsions:
REMARK  status: ('A' for Active; 'I' for Inactive)
REMARK    1  A    between atoms: N_1  and  C_4
REMARK    2  A    between atoms: C_4  and  C_5
REMARK                            x       y       z     vdW  Elec       q    Type
REMARK                         _______ _______ _______ _____ _____    ______ ____
ROOT
ATOM      1  N   UNL     1      -2.964   5.715  -4.936  0.00  0.00    -0.354 N 
ATOM      2  N   UNL     1      -1.518   6.810  -6.377  0.00  0.00    -0.372 N 
ATOM      3  N   UNL     1      -1.178   4.582  -5.946  0.00  0.00    -0.372 N 
ATOM      4  C   UNL     1      -1.895   5.693  -5.743  0.00  0.00    +0.166 C 
ATOM      5  H   UNL     1      -3.447   6.596  -4.801  0.00  0.00    +0.163 HD
ATOM      6  H   UNL     1      -0.718   6.823  -6.995  0.00  0.00    +0.159 HD
ATOM      7  H   UNL     1      -2.030   7.678  -6.276  0.00  0.00    +0.159 HD
ATOM      8  H   UNL     1      -1.406   3.707  -5.493  0.00  0.00    +0.159 HD
ATOM      9  H   UNL     1      -0.367   4.578  -6.551  0.00  0.00    +0.159 HD
ENDROOT
BRANCH   1  10
ATOM     10  C   UNL     1      -3.489   4.541  -4.242  0.00  0.00    +0.151 C 
BRANCH  10  11
ATOM     11  C   UNL     1      -4.955   4.405  -4.546  0.00  0.00    -0.028 A 
ATOM     12  C   UNL     1      -5.912   5.027  -3.730  0.00  0.00    +0.005 A 
ATOM     13  C   UNL     1      -5.395   3.661  -5.651  0.00  0.00    +0.005 A 
ATOM     14  C   UNL     1      -7.273   4.927  -4.029  0.00  0.00    +0.000 A 
ATOM     15  C   UNL     1      -6.754   3.562  -5.946  0.00  0.00    +0.000 A 
ATOM     16  C   UNL     1      -7.693   4.197  -5.136  0.00  0.00    +0.000 A 
ENDBRANCH  10  11
ENDBRANCH   1  10
TORSDOF 2
ENDMDL
MODEL 9
REMARK VINA RESULT:    -4.654      1.889      3.018
REMARK INTER + INTRA:          -5.331
REMARK INTER:                  -5.154
REMARK INTRA:                  -0.177
REMARK UNBOUND:                -0.132
REMARK  Name = 1550473
REMARK  2 active torsions:
REMARK  status: ('A' for Active; 'I' for Inactive)
REMARK    1  A    between atoms: N_1  and  C_4
REMARK    2  A    between atoms: C_4  and  C_5
REMARK                            x       y       z     vdW  Elec       q    Type
REMARK                         _______ _______ _______ _____ _____    ______ ____
ROOT
ATOM      1  N   UNL     1      14.831 -23.323  -3.337  0.00  0.00    -0.354 N 
ATOM      2  N   UNL     1      15.959 -24.000  -1.431  0.00  0.00    -0.372 N 
ATOM      3  N   UNL     1      13.900 -23.011  -1.209  0.00  0.00    -0.372 N 
ATOM      4  C   UNL     1      14.887 -23.439  -2.004  0.00  0.00    +0.166 C 
ATOM      5  H   UNL     1      15.625 -23.640  -3.882  0.00  0.00    +0.163 HD
ATOM      6  H   UNL     1      16.028 -24.104  -0.427  0.00  0.00    +0.159 HD
ATOM      7  H   UNL     1      16.731 -24.357  -1.980  0.00  0.00    +0.159 HD
ATOM      8  H   UNL     1      13.067 -22.573  -1.579  0.00  0.00    +0.159 HD
ATOM      9  H   UNL     1      13.956 -23.095  -0.202  0.00  0.00    +0.159 HD
ENDROOT
BRANCH   1  10
ATOM     10  C   UNL     1      13.685 -22.777  -4.063  0.00  0.00    +0.151 C 
BRANCH  10  11
ATOM     11  C   UNL     1      13.984 -21.356  -4.453  0.00  0.00    -0.028 A 
ATOM     12  C   UNL     1      14.693 -21.075  -5.630  0.00  0.00    +0.005 A 
ATOM     13  C   UNL     1      13.555 -20.285  -3.654  0.00  0.00    +0.005 A 
ATOM     14  C   UNL     1      14.945 -19.754  -6.009  0.00  0.00    +0.000 A 
ATOM     15  C   UNL     1      13.808 -18.968  -4.035  0.00  0.00    +0.000 A 
ATOM     16  C   UNL     1      14.501 -18.702  -5.213  0.00  0.00    +0.000 A 
ENDBRANCH  10  11
ENDBRANCH   1  10
TORSDOF 2
ENDMDL
