MODEL 1
REMARK VINA RESULT:    -5.197      0.000      0.000
REMARK INTER + INTRA:          -5.985
REMARK INTER:                  -5.804
REMARK INTRA:                  -0.181
REMARK UNBOUND:                -0.181
REMARK  Name = 1550473
REMARK  2 active torsions:
REMARK  status: ('A' for Active; 'I' for Inactive)
REMARK    1  A    between atoms: N_1  and  C_4
REMARK    2  A    between atoms: C_4  and  C_5
REMARK                            x       y       z     vdW  Elec       q    Type
REMARK                         _______ _______ _______ _____ _____    ______ ____
ROOT
ATOM      1  N   UNL     1      10.501  -2.991  -8.081  0.00  0.00    -0.354 N 
ATOM      2  N   UNL     1      12.272  -3.456  -9.499  0.00  0.00    -0.372 N 
ATOM      3  N   UNL     1      10.464  -2.309 -10.323  0.00  0.00    -0.372 N 
ATOM      4  C   UNL     1      11.065  -2.915  -9.294  0.00  0.00    +0.166 C 
ATOM      5  H   UNL     1      10.996  -3.490  -7.351  0.00  0.00    +0.163 HD
ATOM      6  H   UNL     1      12.725  -3.411 -10.402  0.00  0.00    +0.159 HD
ATOM      7  H   UNL     1      12.784  -3.914  -8.755  0.00  0.00    +0.159 HD
ATOM      8  H   UNL     1       9.549  -1.886 -10.235  0.00  0.00    +0.159 HD
ATOM      9  H   UNL     1      10.895  -2.264 -11.238  0.00  0.00    +0.159 HD
ENDROOT
BRANCH   1  10
ATOM     10  C   UNL     1       9.214  -2.387  -7.739  0.00  0.00    +0.151 C 
BRANCH  10  11
ATOM     11  C   UNL     1       9.454  -1.040  -7.116  0.00  0.00    -0.028 A 
ATOM     12  C   UNL     1       9.992  -0.938  -5.824  0.00  0.00    +0.005 A 
ATOM     13  C   UNL     1       9.151   0.139  -7.814  0.00  0.00    +0.005 A 
ATOM     14  C   UNL     1      10.243   0.314  -5.257  0.00  0.00    +0.000 A 
ATOM     15  C   UNL     1       9.402   1.387  -7.243  0.00  0.00    +0.000 A 
ATOM     16  C   UNL     1       9.950   1.474  -5.966  0.00  0.00    +0.000 A 
ENDBRANCH  10  11
ENDBRANCH   1  10
TORSDOF 2
ENDMDL
MODEL 2
REMARK VINA RESULT:    -5.185     24.711     25.492
REMARK INTER + INTRA:          -5.972
REMARK INTER:                  -5.824
REMARK INTRA:                  -0.148
REMARK UNBOUND:                -0.181
REMARK  Name = 1550473
REMARK  2 active torsions:
REMARK  status: ('A' for Active; 'I' for Inactive)
REMARK    1  A    between atoms: N_1  and  C_4
REMARK    2  A    between atoms: C_4  and  C_5
REMARK                            x       y       z     vdW  Elec       q    Type
REMARK                         _______ _______ _______ _____ _____    ______ ____
ROOT
ATOM      1  N   UNL     1     -10.731   5.098   1.463  0.00  0.00    -0.354 N 
ATOM      2  N   UNL     1      -8.555   4.361   1.756  0.00  0.00    -0.372 N 
ATOM      3  N   UNL     1      -9.163   6.398   2.621  0.00  0.00    -0.372 N 
ATOM      4  C   UNL     1      -9.497   5.293   1.946  0.00  0.00    +0.166 C 
ATOM      5  H   UNL     1     -10.913   4.252   0.933  0.00  0.00    +0.163 HD
ATOM      6  H   UNL     1      -7.616   4.479   2.112  0.00  0.00    +0.159 HD
ATOM      7  H   UNL     1      -8.752   3.496   1.267  0.00  0.00    +0.159 HD
ATOM      8  H   UNL     1      -9.826   7.142   2.792  0.00  0.00    +0.159 HD
ATOM      9  H   UNL     1      -8.225   6.539   2.974  0.00  0.00    +0.159 HD
ENDROOT
BRANCH   1  10
ATOM     10  C   UNL     1     -11.843   6.026   1.661  0.00  0.00    +0.151 C 
BRANCH  10  11
ATOM     11  C   UNL     1     -12.954   5.314   2.383  0.00  0.00    -0.028 A 
ATOM     12  C   UNL     1     -13.991   6.041   2.986  0.00  0.00    +0.005 A 
ATOM     13  C   UNL     1     -12.978   3.914   2.463  0.00  0.00    +0.005 A 
ATOM     14  C   UNL     1     -15.038   5.380   3.632  0.00  0.00    +0.000 A 
ATOM     15  C   UNL     1     -14.026   3.257   3.109  0.00  0.00    +0.000 A 
ATOM     16  C   UNL     1     -15.057   3.990   3.691  0.00  0.00    +0.000 A 
ENDBRANCH  10  11
ENDBRANCH   1  10
TORSDOF 2
ENDMDL
MODEL 3
REMARK VINA RESULT:    -4.626      1.863      2.206
REMARK INTER + INTRA:          -5.347
REMARK INTER:                  -5.207
REMARK INTRA:                  -0.140
REMARK UNBOUND:                -0.181
REMARK  Name = 1550473
REMARK  2 active torsions:
REMARK  status: ('A' for Active; 'I' for Inactive)
REMARK    1  A    between atoms: N_1  and  C_4
REMARK    2  A    between atoms: C_4  and  C_5
REMARK                            x       y       z     vdW  Elec       q    Type
REMARK                         _______ _______ _______ _____ _____    ______ ____
ROOT
ATOM      1  N   UNL     1      10.869  -3.389  -8.271  0.00  0.00    -0.354 N 
ATOM      2  N   UNL     1      12.575  -3.902  -9.751  0.00  0.00    -0.372 N 
ATOM      3  N   UNL     1      10.892  -2.503 -10.441  0.00  0.00    -0.372 N 
ATOM      4  C   UNL     1      11.432  -3.259  -9.480  0.00  0.00    +0.166 C 
ATOM      5  H   UNL     1      11.312  -4.001  -7.596  0.00  0.00    +0.163 HD
ATOM      6  H   UNL     1      13.025  -3.820 -10.653  0.00  0.00    +0.159 HD
ATOM      7  H   UNL     1      13.040  -4.477  -9.059  0.00  0.00    +0.159 HD
ATOM      8  H   UNL     1      10.027  -1.997 -10.301  0.00  0.00    +0.159 HD
ATOM      9  H   UNL     1      11.321  -2.418 -11.354  0.00  0.00    +0.159 HD
ENDROOT
BRANCH   1  10
ATOM     10  C   UNL     1       9.653  -2.690  -7.857  0.00  0.00    +0.151 C 
BRANCH  10  11
ATOM     11  C   UNL     1       9.854  -2.134  -6.474  0.00  0.00    -0.028 A 
ATOM     12  C   UNL     1       8.771  -1.608  -5.754  0.00  0.00    +0.005 A 
ATOM     13  C   UNL     1      11.124  -2.135  -5.876  0.00  0.00    +0.005 A 
ATOM     14  C   UNL     1       8.952  -1.119  -4.458  0.00  0.00    +0.000 A 
ATOM     15  C   UNL     1      11.300  -1.645  -4.582  0.00  0.00    +0.000 A 
ATOM     16  C   UNL     1      10.213  -1.139  -3.873  0.00  0.00    +0.000 A 
ENDBRANCH  10  11
ENDBRANCH   1  10
TORSDOF 2
ENDMDL
MODEL 4
REMARK VINA RESULT:    -4.615     16.157     17.540
REMARK INTER + INTRA:          -5.336
REMARK INTER:                  -5.234
REMARK INTRA:                  -0.101
REMARK UNBOUND:                -0.181
REMARK  Name = 1550473
REMARK  2 active torsions:
REMARK  status: ('A' for Active; 'I' for Inactive)
REMARK    1  A    between atoms: N_1  and  C_4
REMARK    2  A    between atoms: C_4  and  C_5
REMARK                            x       y       z     vdW  Elec       q    Type
REMARK                         _______ _______ _______ _____ _____    ______ ____
ROOT
ATOM      1  N   UNL     1      -4.749  -6.535  -3.460  0.00  0.00    -0.354 N 
ATOM      2  N   UNL     1      -5.231  -4.495  -2.474  0.00  0.00    -0.372 N 
ATOM      3  N   UNL     1      -3.084  -4.913  -3.165  0.00  0.00    -0.372 N 
ATOM      4  C   UNL     1      -4.349  -5.328  -3.040  0.00  0.00    +0.166 C 
ATOM      5  H   UNL     1      -5.716  -6.801  -3.308  0.00  0.00    +0.163 HD
ATOM      6  H   UNL     1      -4.959  -3.577  -2.151  0.00  0.00    +0.159 HD
ATOM      7  H   UNL     1      -6.207  -4.746  -2.366  0.00  0.00    +0.159 HD
ATOM      8  H   UNL     1      -2.368  -5.496  -3.577  0.00  0.00    +0.159 HD
ATOM      9  H   UNL     1      -2.789  -4.002  -2.836  0.00  0.00    +0.159 HD
ENDROOT
BRANCH   1  10
ATOM     10  C   UNL     1      -3.880  -7.495  -4.137  0.00  0.00    +0.151 C 
BRANCH  10  11
ATOM     11  C   UNL     1      -4.684  -8.711  -4.506  0.00  0.00    -0.028 A 
ATOM     12  C   UNL     1      -4.319  -9.978  -4.026  0.00  0.00    +0.005 A 
ATOM     13  C   UNL     1      -5.815  -8.603  -5.329  0.00  0.00    +0.005 A 
ATOM     14  C   UNL     1      -5.083 -11.104  -4.344  0.00  0.00    +0.000 A 
ATOM     15  C   UNL     1      -6.574  -9.729  -5.644  0.00  0.00    +0.000 A 
ATOM     16  C   UNL     1      -6.209 -10.979  -5.150  0.00  0.00    +0.000 A 
ENDBRANCH  10  11
ENDBRANCH   1  10
TORSDOF 2
ENDMDL
MODEL 5
REMARK VINA RESULT:    -4.481     20.241     21.302
REMARK INTER + INTRA:          -5.186
REMARK INTER:                  -5.020
REMARK INTRA:                  -0.166
REMARK UNBOUND:                -0.181
REMARK  Name = 1550473
REMARK  2 active torsions:
REMARK  status: ('A' for Active; 'I' for Inactive)
REMARK    1  A    between atoms: N_1  and  C_4
REMARK    2  A    between atoms: C_4  and  C_5
REMARK                            x       y       z     vdW  Elec       q    Type
REMARK                         _______ _______ _______ _____ _____    ______ ____
ROOT
ATOM      1  N   UNL     1     -10.342   5.970  -8.384  0.00  0.00    -0.354 N 
ATOM      2  N   UNL     1     -11.467   7.646  -7.248  0.00  0.00    -0.372 N 
ATOM      3  N   UNL     1      -9.182   7.525  -7.069  0.00  0.00    -0.372 N 
ATOM      4  C   UNL     1     -10.320   7.036  -7.574  0.00  0.00    +0.166 C 
ATOM      5  H   UNL     1     -11.240   5.630  -8.708  0.00  0.00    +0.163 HD
ATOM      6  H   UNL     1     -11.482   8.455  -6.641  0.00  0.00    +0.159 HD
ATOM      7  H   UNL     1     -12.359   7.332  -7.611  0.00  0.00    +0.159 HD
ATOM      8  H   UNL     1      -8.284   7.108  -7.272  0.00  0.00    +0.159 HD
ATOM      9  H   UNL     1      -9.178   8.327  -6.451  0.00  0.00    +0.159 HD
ENDROOT
BRANCH   1  10
ATOM     10  C   UNL     1      -9.145   5.267  -8.843  0.00  0.00    +0.151 C 
BRANCH  10  11
ATOM     11  C   UNL     1      -8.679   5.881 -10.134  0.00  0.00    -0.028 A 
ATOM     12  C   UNL     1      -9.475   5.804 -11.286  0.00  0.00    +0.005 A 
ATOM     13  C   UNL     1      -7.446   6.547 -10.210  0.00  0.00    +0.005 A 
ATOM     14  C   UNL     1      -9.056   6.400 -12.479  0.00  0.00    +0.000 A 
ATOM     15  C   UNL     1      -7.031   7.140 -11.403  0.00  0.00    +0.000 A 
ATOM     16  C   UNL     1      -7.838   7.068 -12.536  0.00  0.00    +0.000 A 
ENDBRANCH  10  11
ENDBRANCH   1  10
TORSDOF 2
ENDMDL
MODEL 6
REMARK VINA RESULT:    -4.469      8.936     10.249
REMARK INTER + INTRA:          -5.173
REMARK INTER:                  -5.013
REMARK INTRA:                  -0.160
REMARK UNBOUND:                -0.181
REMARK  Name = 1550473
REMARK  2 active torsions:
REMARK  status: ('A' for Active; 'I' for Inactive)
REMARK    1  A    between atoms: N_1  and  C_4
REMARK    2  A    between atoms: C_4  and  C_5
REMARK                            x       y       z     vdW  Elec       q    Type
REMARK                         _______ _______ _______ _____ _____    ______ ____
ROOT
ATOM      1  N   UNL     1       9.089   4.287 -16.224  0.00  0.00    -0.354 N 
ATOM      2  N   UNL     1       7.606   3.550 -17.844  0.00  0.00    -0.372 N 
ATOM      3  N   UNL     1       8.652   5.572 -18.135  0.00  0.00    -0.372 N 
ATOM      4  C   UNL     1       8.459   4.477 -17.391  0.00  0.00    +0.166 C 
ATOM      5  H   UNL     1       8.876   3.449 -15.694  0.00  0.00    +0.163 HD
ATOM      6  H   UNL     1       7.119   3.664 -18.722  0.00  0.00    +0.159 HD
ATOM      7  H   UNL     1       7.430   2.693 -17.333  0.00  0.00    +0.159 HD
ATOM      8  H   UNL     1       9.278   6.311 -17.846  0.00  0.00    +0.159 HD
ATOM      9  H   UNL     1       8.164   5.710 -19.011  0.00  0.00    +0.159 HD
ENDROOT
BRANCH   1  10
ATOM     10  C   UNL     1      10.077   5.209 -15.669  0.00  0.00    +0.151 C 
BRANCH  10  11
ATOM     11  C   UNL     1       9.540   5.794 -14.392  0.00  0.00    -0.028 A 
ATOM     12  C   UNL     1       8.456   6.684 -14.417  0.00  0.00    +0.005 A 
ATOM     13  C   UNL     1      10.107   5.458 -13.153  0.00  0.00    +0.005 A 
ATOM     14  C   UNL     1       7.938   7.204 -13.229  0.00  0.00    +0.000 A 
ATOM     15  C   UNL     1       9.587   5.980 -11.969  0.00  0.00    +0.000 A 
ATOM     16  C   UNL     1       8.501   6.852 -12.007  0.00  0.00    +0.000 A 
ENDBRANCH  10  11
ENDBRANCH   1  10
TORSDOF 2
ENDMDL
MODEL 7
REMARK VINA RESULT:    -4.411      2.406      3.448
REMARK INTER + INTRA:          -5.108
REMARK INTER:                  -4.995
REMARK INTRA:                  -0.112
REMARK UNBOUND:                -0.181
REMARK  Name = 1550473
REMARK  2 active torsions:
REMARK  status: ('A' for Active; 'I' for Inactive)
REMARK    1  A    between atoms: N_1  and  C_4
REMARK    2  A    between atoms: C_4  and  C_5
REMARK                            x       y       z     vdW  Elec       q    Type
REMARK                         _______ _______ _______ _____ _____    ______ ____
ROOT
ATOM      1  N   UNL     1       8.021  -1.725  -6.314  0.00  0.00    -0.354 N 
ATOM      2  N   UNL     1       6.982  -3.522  -5.287  0.00  0.00    -0.372 N 
ATOM      3  N   UNL     1       8.633  -3.928  -6.828  0.00  0.00    -0.372 N 
ATOM      4  C   UNL     1       7.887  -3.048  -6.151  0.00  0.00    +0.166 C 
ATOM      5  H   UNL     1       7.405  -1.111  -5.793  0.00  0.00    +0.163 HD
ATOM      6  H   UNL     1       6.861  -4.515  -5.140  0.00  0.00    +0.159 HD
ATOM      7  H   UNL     1       6.399  -2.905  -4.734  0.00  0.00    +0.159 HD
ATOM      8  H   UNL     1       9.329  -3.635  -7.500  0.00  0.00    +0.159 HD
ATOM      9  H   UNL     1       8.518  -4.926  -6.704  0.00  0.00    +0.159 HD
ENDROOT
BRANCH   1  10
ATOM     10  C   UNL     1       9.013  -1.105  -7.190  0.00  0.00    +0.151 C 
BRANCH  10  11
ATOM     11  C   UNL     1       9.410   0.228  -6.618  0.00  0.00    -0.028 A 
ATOM     12  C   UNL     1       9.077   1.416  -7.283  0.00  0.00    +0.005 A 
ATOM     13  C   UNL     1      10.115   0.309  -5.407  0.00  0.00    +0.005 A 
ATOM     14  C   UNL     1       9.419   2.655  -6.737  0.00  0.00    +0.000 A 
ATOM     15  C   UNL     1      10.455   1.548  -4.865  0.00  0.00    +0.000 A 
ATOM     16  C   UNL     1      10.105   2.721  -5.529  0.00  0.00    +0.000 A 
ENDBRANCH  10  11
ENDBRANCH   1  10
TORSDOF 2
ENDMDL
MODEL 8
REMARK VINA RESULT:    -4.344      1.282      2.102
REMARK INTER + INTRA:          -5.033
REMARK INTER:                  -4.879
REMARK INTRA:                  -0.154
REMARK UNBOUND:                -0.181
REMARK  Name = 1550473
REMARK  2 active torsions:
REMARK  status: ('A' for Active; 'I' for Inactive)
REMARK    1  A    between atoms: N_1  and  C_4
REMARK    2  A    between atoms: C_4  and  C_5
REMARK                            x       y       z     vdW  Elec       q    Type
REMARK                         _______ _______ _______ _____ _____    ______ ____
ROOT
ATOM      1  N   UNL     1      10.719  -2.282  -6.601  0.00  0.00    -0.354 N 
ATOM      2  N   UNL     1      11.478  -3.477  -8.434  0.00  0.00    -0.372 N 
ATOM      3  N   UNL     1       9.218  -3.206  -8.145  0.00  0.00    -0.372 N 
ATOM      4  C   UNL     1      10.464  -2.981  -7.715  0.00  0.00    +0.166 C 
ATOM      5  H   UNL     1      11.685  -2.172  -6.312  0.00  0.00    +0.163 HD
ATOM      6  H   UNL     1      11.316  -4.006  -9.281  0.00  0.00    +0.159 HD
ATOM      7  H   UNL     1      12.443  -3.327  -8.168  0.00  0.00    +0.159 HD
ATOM      8  H   UNL     1       8.408  -2.863  -7.644  0.00  0.00    +0.159 HD
ATOM      9  H   UNL     1       9.035  -3.742  -8.984  0.00  0.00    +0.159 HD
ENDROOT
BRANCH   1  10
ATOM     10  C   UNL     1       9.689  -1.653  -5.776  0.00  0.00    +0.151 C 
BRANCH  10  11
ATOM     11  C   UNL     1       9.677  -0.174  -6.047  0.00  0.00    -0.028 A 
ATOM     12  C   UNL     1       9.037   0.336  -7.186  0.00  0.00    +0.005 A 
ATOM     13  C   UNL     1      10.300   0.724  -5.166  0.00  0.00    +0.005 A 
ATOM     14  C   UNL     1       9.000   1.712  -7.423  0.00  0.00    +0.000 A 
ATOM     15  C   UNL     1      10.261   2.097  -5.407  0.00  0.00    +0.000 A 
ATOM     16  C   UNL     1       9.609   2.591  -6.534  0.00  0.00    +0.000 A 
ENDBRANCH  10  11
ENDBRANCH   1  10
TORSDOF 2
ENDMDL
MODEL 9
REMARK VINA RESULT:    -4.271     21.988     23.071
REMARK INTER + INTRA:          -4.951
REMARK INTER:                  -4.856
REMARK INTRA:                  -0.095
REMARK UNBOUND:                -0.181
REMARK  Name = 1550473
REMARK  2 active torsions:
REMARK  status: ('A' for Active; 'I' for Inactive)
REMARK    1  A    between atoms: N_1  and  C_4
REMARK    2  A    between atoms: C_4  and  C_5
REMARK                            x       y       z     vdW  Elec       q    Type
REMARK                         _______ _______ _______ _____ _____    ______ ____
ROOT
ATOM      1  N   UNL     1      -6.988   8.019   4.720  0.00  0.00    -0.354 N 
ATOM      2  N   UNL     1      -8.366   7.089   3.108  0.00  0.00    -0.372 N 
ATOM      3  N   UNL     1      -8.068   9.364   3.134  0.00  0.00    -0.372 N 
ATOM      4  C   UNL     1      -7.798   8.166   3.664  0.00  0.00    +0.166 C 
ATOM      5  H   UNL     1      -6.848   7.088   5.094  0.00  0.00    +0.163 HD
ATOM      6  H   UNL     1      -8.979   7.168   2.308  0.00  0.00    +0.159 HD
ATOM      7  H   UNL     1      -8.188   6.154   3.455  0.00  0.00    +0.159 HD
ATOM      8  H   UNL     1      -7.676  10.217   3.510  0.00  0.00    +0.159 HD
ATOM      9  H   UNL     1      -8.689   9.465   2.340  0.00  0.00    +0.159 HD
ENDROOT
BRANCH   1  10
ATOM     10  C   UNL     1      -6.278   9.122   5.366  0.00  0.00    +0.151 C 
BRANCH  10  11
ATOM     11  C   UNL     1      -5.280   8.561   6.340  0.00  0.00    -0.028 A 
ATOM     12  C   UNL     1      -4.069   8.017   5.886  0.00  0.00    +0.005 A 
ATOM     13  C   UNL     1      -5.537   8.574   7.720  0.00  0.00    +0.005 A 
ATOM     14  C   UNL     1      -3.129   7.523   6.794  0.00  0.00    +0.000 A 
ATOM     15  C   UNL     1      -4.596   8.079   8.622  0.00  0.00    +0.000 A 
ATOM     16  C   UNL     1      -3.391   7.555   8.159  0.00  0.00    +0.000 A 
ENDBRANCH  10  11
ENDBRANCH   1  10
TORSDOF 2
ENDMDL
