MODEL 1
REMARK VINA RESULT:    -5.796      0.000      0.000
REMARK INTER + INTRA:          -6.636
REMARK INTER:                  -6.473
REMARK INTRA:                  -0.163
REMARK UNBOUND:                -0.163
REMARK  Name = 1550473
REMARK  2 active torsions:
REMARK  status: ('A' for Active; 'I' for Inactive)
REMARK    1  A    between atoms: N_1  and  C_4
REMARK    2  A    between atoms: C_4  and  C_5
REMARK                            x       y       z     vdW  Elec       q    Type
REMARK                         _______ _______ _______ _____ _____    ______ ____
ROOT
ATOM      1  N   UNL     1       0.104  -1.215   1.255  0.00  0.00    -0.354 N 
ATOM      2  N   UNL     1      -1.971  -0.426   0.596  0.00  0.00    -0.372 N 
ATOM      3  N   UNL     1      -0.821  -1.828  -0.809  0.00  0.00    -0.372 N 
ATOM      4  C   UNL     1      -0.882  -1.163   0.349  0.00  0.00    +0.166 C 
ATOM      5  H   UNL     1       0.011  -0.664   2.100  0.00  0.00    +0.163 HD
ATOM      6  H   UNL     1      -2.732  -0.369  -0.067  0.00  0.00    +0.159 HD
ATOM      7  H   UNL     1      -2.082   0.088   1.462  0.00  0.00    +0.159 HD
ATOM      8  H   UNL     1      -0.023  -2.397  -1.059  0.00  0.00    +0.159 HD
ATOM      9  H   UNL     1      -1.567  -1.775  -1.491  0.00  0.00    +0.159 HD
ENDROOT
BRANCH   1  10
ATOM     10  C   UNL     1       1.308  -2.031   1.107  0.00  0.00    +0.151 C 
BRANCH  10  11
ATOM     11  C   UNL     1       2.496  -1.125   0.931  0.00  0.00    -0.028 A 
ATOM     12  C   UNL     1       3.435  -0.975   1.961  0.00  0.00    +0.005 A 
ATOM     13  C   UNL     1       2.691  -0.420  -0.267  0.00  0.00    +0.005 A 
ATOM     14  C   UNL     1       4.555  -0.157   1.787  0.00  0.00    +0.000 A 
ATOM     15  C   UNL     1       3.809   0.396  -0.437  0.00  0.00    +0.000 A 
ATOM     16  C   UNL     1       4.742   0.525   0.589  0.00  0.00    +0.000 A 
ENDBRANCH  10  11
ENDBRANCH   1  10
TORSDOF 2
ENDMDL
MODEL 2
REMARK VINA RESULT:    -5.677      1.611      2.732
REMARK INTER + INTRA:          -6.504
REMARK INTER:                  -6.344
REMARK INTRA:                  -0.160
REMARK UNBOUND:                -0.163
REMARK  Name = 1550473
REMARK  2 active torsions:
REMARK  status: ('A' for Active; 'I' for Inactive)
REMARK    1  A    between atoms: N_1  and  C_4
REMARK    2  A    between atoms: C_4  and  C_5
REMARK                            x       y       z     vdW  Elec       q    Type
REMARK                         _______ _______ _______ _____ _____    ______ ____
ROOT
ATOM      1  N   UNL     1       1.327  -1.078  -2.171  0.00  0.00    -0.354 N 
ATOM      2  N   UNL     1       0.324  -2.977  -3.038  0.00  0.00    -0.372 N 
ATOM      3  N   UNL     1      -0.816  -1.733  -1.483  0.00  0.00    -0.372 N 
ATOM      4  C   UNL     1       0.283  -1.916  -2.223  0.00  0.00    +0.166 C 
ATOM      5  H   UNL     1       2.142  -1.289  -2.734  0.00  0.00    +0.163 HD
ATOM      6  H   UNL     1      -0.449  -3.625  -3.101  0.00  0.00    +0.159 HD
ATOM      7  H   UNL     1       1.122  -3.161  -3.634  0.00  0.00    +0.159 HD
ATOM      8  H   UNL     1      -0.907  -0.955  -0.844  0.00  0.00    +0.159 HD
ATOM      9  H   UNL     1      -1.596  -2.377  -1.524  0.00  0.00    +0.159 HD
ENDROOT
BRANCH   1  10
ATOM     10  C   UNL     1       1.360   0.136  -1.357  0.00  0.00    +0.151 C 
BRANCH  10  11
ATOM     11  C   UNL     1       2.462   0.016  -0.341  0.00  0.00    -0.028 A 
ATOM     12  C   UNL     1       3.716   0.597  -0.578  0.00  0.00    +0.005 A 
ATOM     13  C   UNL     1       2.257  -0.674   0.864  0.00  0.00    +0.005 A 
ATOM     14  C   UNL     1       4.731   0.511   0.378  0.00  0.00    +0.000 A 
ATOM     15  C   UNL     1       3.273  -0.758   1.816  0.00  0.00    +0.000 A 
ATOM     16  C   UNL     1       4.508  -0.163   1.574  0.00  0.00    +0.000 A 
ENDBRANCH  10  11
ENDBRANCH   1  10
TORSDOF 2
ENDMDL
MODEL 3
REMARK VINA RESULT:    -5.654      1.937      2.589
REMARK INTER + INTRA:          -6.478
REMARK INTER:                  -6.368
REMARK INTRA:                  -0.110
REMARK UNBOUND:                -0.163
REMARK  Name = 1550473
REMARK  2 active torsions:
REMARK  status: ('A' for Active; 'I' for Inactive)
REMARK    1  A    between atoms: N_1  and  C_4
REMARK    2  A    between atoms: C_4  and  C_5
REMARK                            x       y       z     vdW  Elec       q    Type
REMARK                         _______ _______ _______ _____ _____    ______ ____
ROOT
ATOM      1  N   UNL     1       1.010  -0.914  -2.235  0.00  0.00    -0.354 N 
ATOM      2  N   UNL     1      -1.103  -1.859  -2.314  0.00  0.00    -0.372 N 
ATOM      3  N   UNL     1       0.719  -3.174  -2.782  0.00  0.00    -0.372 N 
ATOM      4  C   UNL     1       0.224  -1.979  -2.444  0.00  0.00    +0.166 C 
ATOM      5  H   UNL     1       0.571  -0.028  -2.010  0.00  0.00    +0.163 HD
ATOM      6  H   UNL     1      -1.721  -2.646  -2.462  0.00  0.00    +0.159 HD
ATOM      7  H   UNL     1      -1.535  -0.984  -2.045  0.00  0.00    +0.159 HD
ATOM      8  H   UNL     1       1.711  -3.329  -2.901  0.00  0.00    +0.159 HD
ATOM      9  H   UNL     1       0.115  -3.970  -2.946  0.00  0.00    +0.159 HD
ENDROOT
BRANCH   1  10
ATOM     10  C   UNL     1       2.470  -0.951  -2.298  0.00  0.00    +0.151 C 
BRANCH  10  11
ATOM     11  C   UNL     1       3.028  -0.655  -0.933  0.00  0.00    -0.028 A 
ATOM     12  C   UNL     1       2.458  -1.233   0.210  0.00  0.00    +0.005 A 
ATOM     13  C   UNL     1       4.131   0.199  -0.777  0.00  0.00    +0.005 A 
ATOM     14  C   UNL     1       2.995  -0.982   1.475  0.00  0.00    +0.000 A 
ATOM     15  C   UNL     1       4.664   0.448   0.488  0.00  0.00    +0.000 A 
ATOM     16  C   UNL     1       4.097  -0.145   1.613  0.00  0.00    +0.000 A 
ENDBRANCH  10  11
ENDBRANCH   1  10
TORSDOF 2
ENDMDL
MODEL 4
REMARK VINA RESULT:    -5.615      1.113      2.012
REMARK INTER + INTRA:          -6.434
REMARK INTER:                  -6.306
REMARK INTRA:                  -0.127
REMARK UNBOUND:                -0.163
REMARK  Name = 1550473
REMARK  2 active torsions:
REMARK  status: ('A' for Active; 'I' for Inactive)
REMARK    1  A    between atoms: N_1  and  C_4
REMARK    2  A    between atoms: C_4  and  C_5
REMARK                            x       y       z     vdW  Elec       q    Type
REMARK                         _______ _______ _______ _____ _____    ______ ____
ROOT
ATOM      1  N   UNL     1       0.102  -1.593   1.177  0.00  0.00    -0.354 N 
ATOM      2  N   UNL     1      -1.845  -0.473   0.609  0.00  0.00    -0.372 N 
ATOM      3  N   UNL     1      -0.852  -1.834  -0.949  0.00  0.00    -0.372 N 
ATOM      4  C   UNL     1      -0.852  -1.308   0.280  0.00  0.00    +0.166 C 
ATOM      5  H   UNL     1       0.062  -1.138   2.083  0.00  0.00    +0.163 HD
ATOM      6  H   UNL     1      -2.580  -0.243  -0.045  0.00  0.00    +0.159 HD
ATOM      7  H   UNL     1      -1.907  -0.056   1.530  0.00  0.00    +0.159 HD
ATOM      8  H   UNL     1      -0.128  -2.466  -1.262  0.00  0.00    +0.159 HD
ATOM      9  H   UNL     1      -1.573  -1.606  -1.623  0.00  0.00    +0.159 HD
ENDROOT
BRANCH   1  10
ATOM     10  C   UNL     1       1.197  -2.531   0.938  0.00  0.00    +0.151 C 
BRANCH  10  11
ATOM     11  C   UNL     1       2.440  -2.017   1.609  0.00  0.00    -0.028 A 
ATOM     12  C   UNL     1       2.872  -0.699   1.396  0.00  0.00    +0.005 A 
ATOM     13  C   UNL     1       3.189  -2.840   2.464  0.00  0.00    +0.005 A 
ATOM     14  C   UNL     1       4.010  -0.212   2.043  0.00  0.00    +0.000 A 
ATOM     15  C   UNL     1       4.325  -2.350   3.107  0.00  0.00    +0.000 A 
ATOM     16  C   UNL     1       4.734  -1.035   2.898  0.00  0.00    +0.000 A 
ENDBRANCH  10  11
ENDBRANCH   1  10
TORSDOF 2
ENDMDL
MODEL 5
REMARK VINA RESULT:    -5.493      2.560      3.677
REMARK INTER + INTRA:          -6.298
REMARK INTER:                  -6.205
REMARK INTRA:                  -0.093
REMARK UNBOUND:                -0.163
REMARK  Name = 1550473
REMARK  2 active torsions:
REMARK  status: ('A' for Active; 'I' for Inactive)
REMARK    1  A    between atoms: N_1  and  C_4
REMARK    2  A    between atoms: C_4  and  C_5
REMARK                            x       y       z     vdW  Elec       q    Type
REMARK                         _______ _______ _______ _____ _____    ______ ____
ROOT
ATOM      1  N   UNL     1       0.193  -2.455   0.072  0.00  0.00    -0.354 N 
ATOM      2  N   UNL     1      -0.873  -1.781  -1.871  0.00  0.00    -0.372 N 
ATOM      3  N   UNL     1      -1.489  -0.823   0.121  0.00  0.00    -0.372 N 
ATOM      4  C   UNL     1      -0.717  -1.689  -0.545  0.00  0.00    +0.166 C 
ATOM      5  H   UNL     1       0.725  -3.113  -0.485  0.00  0.00    +0.163 HD
ATOM      6  H   UNL     1      -1.549  -1.213  -2.364  0.00  0.00    +0.159 HD
ATOM      7  H   UNL     1      -0.307  -2.407  -2.432  0.00  0.00    +0.159 HD
ATOM      8  H   UNL     1      -1.425  -0.711   1.124  0.00  0.00    +0.159 HD
ATOM      9  H   UNL     1      -2.179  -0.255  -0.353  0.00  0.00    +0.159 HD
ENDROOT
BRANCH   1  10
ATOM     10  C   UNL     1       0.478  -2.394   1.504  0.00  0.00    +0.151 C 
BRANCH  10  11
ATOM     11  C   UNL     1       1.569  -3.376   1.831  0.00  0.00    -0.028 A 
ATOM     12  C   UNL     1       1.267  -4.593   2.459  0.00  0.00    +0.005 A 
ATOM     13  C   UNL     1       2.906  -3.097   1.509  0.00  0.00    +0.005 A 
ATOM     14  C   UNL     1       2.276  -5.518   2.735  0.00  0.00    +0.000 A 
ATOM     15  C   UNL     1       3.911  -4.023   1.787  0.00  0.00    +0.000 A 
ATOM     16  C   UNL     1       3.596  -5.235   2.398  0.00  0.00    +0.000 A 
ENDBRANCH  10  11
ENDBRANCH   1  10
TORSDOF 2
ENDMDL
MODEL 6
REMARK VINA RESULT:    -5.469      3.404      4.720
REMARK INTER + INTRA:          -6.271
REMARK INTER:                  -6.166
REMARK INTRA:                  -0.104
REMARK UNBOUND:                -0.163
REMARK  Name = 1550473
REMARK  2 active torsions:
REMARK  status: ('A' for Active; 'I' for Inactive)
REMARK    1  A    between atoms: N_1  and  C_4
REMARK    2  A    between atoms: C_4  and  C_5
REMARK                            x       y       z     vdW  Elec       q    Type
REMARK                         _______ _______ _______ _____ _____    ______ ____
ROOT
ATOM      1  N   UNL     1       4.283  -2.250   3.106  0.00  0.00    -0.354 N 
ATOM      2  N   UNL     1       4.296  -4.255   4.266  0.00  0.00    -0.372 N 
ATOM      3  N   UNL     1       4.719  -2.310   5.408  0.00  0.00    -0.372 N 
ATOM      4  C   UNL     1       4.433  -2.923   4.255  0.00  0.00    +0.166 C 
ATOM      5  H   UNL     1       4.097  -2.776   2.260  0.00  0.00    +0.163 HD
ATOM      6  H   UNL     1       4.400  -4.789   5.118  0.00  0.00    +0.159 HD
ATOM      7  H   UNL     1       4.064  -4.774   3.428  0.00  0.00    +0.159 HD
ATOM      8  H   UNL     1       4.841  -1.308   5.466  0.00  0.00    +0.159 HD
ATOM      9  H   UNL     1       4.838  -2.829   6.269  0.00  0.00    +0.159 HD
ENDROOT
BRANCH   1  10
ATOM     10  C   UNL     1       4.360  -0.794   2.996  0.00  0.00    +0.151 C 
BRANCH  10  11
ATOM     11  C   UNL     1       3.849  -0.376   1.645  0.00  0.00    -0.028 A 
ATOM     12  C   UNL     1       2.543  -0.697   1.247  0.00  0.00    +0.005 A 
ATOM     13  C   UNL     1       4.664   0.346   0.760  0.00  0.00    +0.005 A 
ATOM     14  C   UNL     1       2.057  -0.283   0.004  0.00  0.00    +0.000 A 
ATOM     15  C   UNL     1       4.176   0.757  -0.480  0.00  0.00    +0.000 A 
ATOM     16  C   UNL     1       2.872   0.444  -0.857  0.00  0.00    +0.000 A 
ENDBRANCH  10  11
ENDBRANCH   1  10
TORSDOF 2
ENDMDL
MODEL 7
REMARK VINA RESULT:    -5.304      4.699      5.368
REMARK INTER + INTRA:          -6.086
REMARK INTER:                  -5.945
REMARK INTRA:                  -0.141
REMARK UNBOUND:                -0.163
REMARK  Name = 1550473
REMARK  2 active torsions:
REMARK  status: ('A' for Active; 'I' for Inactive)
REMARK    1  A    between atoms: N_1  and  C_4
REMARK    2  A    between atoms: C_4  and  C_5
REMARK                            x       y       z     vdW  Elec       q    Type
REMARK                         _______ _______ _______ _____ _____    ______ ____
ROOT
ATOM      1  N   UNL     1       4.686  -4.015   4.548  0.00  0.00    -0.354 N 
ATOM      2  N   UNL     1       4.114  -6.235   4.881  0.00  0.00    -0.372 N 
ATOM      3  N   UNL     1       2.795  -4.600   5.804  0.00  0.00    -0.372 N 
ATOM      4  C   UNL     1       3.867  -4.934   5.077  0.00  0.00    +0.166 C 
ATOM      5  H   UNL     1       5.498  -4.334   4.033  0.00  0.00    +0.163 HD
ATOM      6  H   UNL     1       3.512  -6.951   5.264  0.00  0.00    +0.159 HD
ATOM      7  H   UNL     1       4.901  -6.550   4.326  0.00  0.00    +0.159 HD
ATOM      8  H   UNL     1       2.557  -3.635   5.994  0.00  0.00    +0.159 HD
ATOM      9  H   UNL     1       2.187  -5.302   6.206  0.00  0.00    +0.159 HD
ENDROOT
BRANCH   1  10
ATOM     10  C   UNL     1       4.475  -2.572   4.658  0.00  0.00    +0.151 C 
BRANCH  10  11
ATOM     11  C   UNL     1       4.661  -1.945   3.304  0.00  0.00    -0.028 A 
ATOM     12  C   UNL     1       4.709  -0.550   3.167  0.00  0.00    +0.005 A 
ATOM     13  C   UNL     1       4.795  -2.740   2.155  0.00  0.00    +0.005 A 
ATOM     14  C   UNL     1       4.911   0.033   1.913  0.00  0.00    +0.000 A 
ATOM     15  C   UNL     1       4.996  -2.154   0.906  0.00  0.00    +0.000 A 
ATOM     16  C   UNL     1       5.057  -0.767   0.785  0.00  0.00    +0.000 A 
ENDBRANCH  10  11
ENDBRANCH   1  10
TORSDOF 2
ENDMDL
MODEL 8
REMARK VINA RESULT:    -5.115      4.438      5.978
REMARK INTER + INTRA:          -5.876
REMARK INTER:                  -5.739
REMARK INTRA:                  -0.137
REMARK UNBOUND:                -0.163
REMARK  Name = 1550473
REMARK  2 active torsions:
REMARK  status: ('A' for Active; 'I' for Inactive)
REMARK    1  A    between atoms: N_1  and  C_4
REMARK    2  A    between atoms: C_4  and  C_5
REMARK                            x       y       z     vdW  Elec       q    Type
REMARK                         _______ _______ _______ _____ _____    ______ ____
ROOT
ATOM      1  N   UNL     1       4.585  -0.803   2.768  0.00  0.00    -0.354 N 
ATOM      2  N   UNL     1       5.077   0.399   0.850  0.00  0.00    -0.372 N 
ATOM      3  N   UNL     1       6.629   0.320   2.538  0.00  0.00    -0.372 N 
ATOM      4  C   UNL     1       5.430  -0.035   2.066  0.00  0.00    +0.166 C 
ATOM      5  H   UNL     1       3.678  -1.012   2.366  0.00  0.00    +0.163 HD
ATOM      6  H   UNL     1       5.695   0.977   0.296  0.00  0.00    +0.159 HD
ATOM      7  H   UNL     1       4.189   0.151   0.433  0.00  0.00    +0.159 HD
ATOM      8  H   UNL     1       6.953   0.029   3.452  0.00  0.00    +0.159 HD
ATOM      9  H   UNL     1       7.257   0.907   2.004  0.00  0.00    +0.159 HD
ENDROOT
BRANCH   1  10
ATOM     10  C   UNL     1       4.894  -1.372   4.078  0.00  0.00    +0.151 C 
BRANCH  10  11
ATOM     11  C   UNL     1       4.608  -2.849   4.052  0.00  0.00    -0.028 A 
ATOM     12  C   UNL     1       4.136  -3.503   5.199  0.00  0.00    +0.005 A 
ATOM     13  C   UNL     1       4.802  -3.598   2.881  0.00  0.00    +0.005 A 
ATOM     14  C   UNL     1       3.842  -4.868   5.167  0.00  0.00    +0.000 A 
ATOM     15  C   UNL     1       4.508  -4.961   2.853  0.00  0.00    +0.000 A 
ATOM     16  C   UNL     1       4.026  -5.595   3.996  0.00  0.00    +0.000 A 
ENDBRANCH  10  11
ENDBRANCH   1  10
TORSDOF 2
ENDMDL
MODEL 9
REMARK VINA RESULT:    -4.777     29.006     30.120
REMARK INTER + INTRA:          -5.498
REMARK INTER:                  -5.353
REMARK INTRA:                  -0.145
REMARK UNBOUND:                -0.163
REMARK  Name = 1550473
REMARK  2 active torsions:
REMARK  status: ('A' for Active; 'I' for Inactive)
REMARK    1  A    between atoms: N_1  and  C_4
REMARK    2  A    between atoms: C_4  and  C_5
REMARK                            x       y       z     vdW  Elec       q    Type
REMARK                         _______ _______ _______ _____ _____    ______ ____
ROOT
ATOM      1  N   UNL     1     -11.131  10.716  24.765  0.00  0.00    -0.354 N 
ATOM      2  N   UNL     1     -10.754  12.783  25.741  0.00  0.00    -0.372 N 
ATOM      3  N   UNL     1     -11.294  12.690  23.513  0.00  0.00    -0.372 N 
ATOM      4  C   UNL     1     -11.062  12.050  24.664  0.00  0.00    +0.166 C 
ATOM      5  H   UNL     1     -10.914  10.290  25.658  0.00  0.00    +0.163 HD
ATOM      6  H   UNL     1     -10.698  13.791  25.696  0.00  0.00    +0.159 HD
ATOM      7  H   UNL     1     -10.583  12.357  26.644  0.00  0.00    +0.159 HD
ATOM      8  H   UNL     1     -11.526  12.195  22.662  0.00  0.00    +0.159 HD
ATOM      9  H   UNL     1     -11.232  13.699  23.445  0.00  0.00    +0.159 HD
ENDROOT
BRANCH   1  10
ATOM     10  C   UNL     1     -11.511   9.831  23.665  0.00  0.00    +0.151 C 
BRANCH  10  11
ATOM     11  C   UNL     1     -12.746   9.067  24.054  0.00  0.00    -0.028 A 
ATOM     12  C   UNL     1     -12.969   8.707  25.391  0.00  0.00    +0.005 A 
ATOM     13  C   UNL     1     -13.701   8.705  23.091  0.00  0.00    +0.005 A 
ATOM     14  C   UNL     1     -14.131   8.024  25.758  0.00  0.00    +0.000 A 
ATOM     15  C   UNL     1     -14.859   8.022  23.461  0.00  0.00    +0.000 A 
ATOM     16  C   UNL     1     -15.075   7.684  24.795  0.00  0.00    +0.000 A 
ENDBRANCH  10  11
ENDBRANCH   1  10
TORSDOF 2
ENDMDL
