MODEL 1
REMARK VINA RESULT:    -5.142      0.000      0.000
REMARK INTER + INTRA:          -5.887
REMARK INTER:                  -5.744
REMARK INTRA:                  -0.143
REMARK UNBOUND:                -0.143
REMARK  Name = 1550473
REMARK  2 active torsions:
REMARK  status: ('A' for Active; 'I' for Inactive)
REMARK    1  A    between atoms: N_1  and  C_4
REMARK    2  A    between atoms: C_4  and  C_5
REMARK                            x       y       z     vdW  Elec       q    Type
REMARK                         _______ _______ _______ _____ _____    ______ ____
ROOT
ATOM      1  N   UNL     1       9.231  -5.987 -21.346  0.00  0.00    -0.354 N 
ATOM      2  N   UNL     1      10.928  -5.117 -20.031  0.00  0.00    -0.372 N 
ATOM      3  N   UNL     1      11.174  -7.222 -20.910  0.00  0.00    -0.372 N 
ATOM      4  C   UNL     1      10.434  -6.117 -20.772  0.00  0.00    +0.166 C 
ATOM      5  H   UNL     1       8.707  -5.136 -21.178  0.00  0.00    +0.163 HD
ATOM      6  H   UNL     1      11.834  -5.185 -19.588  0.00  0.00    +0.159 HD
ATOM      7  H   UNL     1      10.422  -4.249 -19.902  0.00  0.00    +0.159 HD
ATOM      8  H   UNL     1      10.856  -8.015 -21.451  0.00  0.00    +0.159 HD
ATOM      9  H   UNL     1      12.079  -7.314 -20.465  0.00  0.00    +0.159 HD
ENDROOT
BRANCH   1  10
ATOM     10  C   UNL     1       8.627  -6.994 -22.216  0.00  0.00    +0.151 C 
BRANCH  10  11
ATOM     11  C   UNL     1       8.374  -6.388 -23.569  0.00  0.00    -0.028 A 
ATOM     12  C   UNL     1       8.589  -5.020 -23.787  0.00  0.00    +0.005 A 
ATOM     13  C   UNL     1       7.925  -7.178 -24.638  0.00  0.00    +0.005 A 
ATOM     14  C   UNL     1       8.384  -4.462 -25.051  0.00  0.00    +0.000 A 
ATOM     15  C   UNL     1       7.720  -6.618 -25.898  0.00  0.00    +0.000 A 
ATOM     16  C   UNL     1       7.952  -5.260 -26.105  0.00  0.00    +0.000 A 
ENDBRANCH  10  11
ENDBRANCH   1  10
TORSDOF 2
ENDMDL
MODEL 2
REMARK VINA RESULT:    -5.037      2.699      5.379
REMARK INTER + INTRA:          -5.769
REMARK INTER:                  -5.619
REMARK INTRA:                  -0.150
REMARK UNBOUND:                -0.143
REMARK  Name = 1550473
REMARK  2 active torsions:
REMARK  status: ('A' for Active; 'I' for Inactive)
REMARK    1  A    between atoms: N_1  and  C_4
REMARK    2  A    between atoms: C_4  and  C_5
REMARK                            x       y       z     vdW  Elec       q    Type
REMARK                         _______ _______ _______ _____ _____    ______ ____
ROOT
ATOM      1  N   UNL     1       7.466  -7.630 -23.023  0.00  0.00    -0.354 N 
ATOM      2  N   UNL     1       8.294  -7.641 -25.186  0.00  0.00    -0.372 N 
ATOM      3  N   UNL     1       8.093  -5.638 -24.086  0.00  0.00    -0.372 N 
ATOM      4  C   UNL     1       7.945  -6.967 -24.083  0.00  0.00    +0.166 C 
ATOM      5  H   UNL     1       7.350  -8.634 -23.095  0.00  0.00    +0.163 HD
ATOM      6  H   UNL     1       8.661  -7.169 -26.000  0.00  0.00    +0.159 HD
ATOM      7  H   UNL     1       8.220  -8.650 -25.239  0.00  0.00    +0.159 HD
ATOM      8  H   UNL     1       7.843  -5.070 -23.287  0.00  0.00    +0.159 HD
ATOM      9  H   UNL     1       8.448  -5.145 -24.896  0.00  0.00    +0.159 HD
ENDROOT
BRANCH   1  10
ATOM     10  C   UNL     1       7.109  -6.995 -21.755  0.00  0.00    +0.151 C 
BRANCH  10  11
ATOM     11  C   UNL     1       8.069  -7.449 -20.690  0.00  0.00    -0.028 A 
ATOM     12  C   UNL     1       7.627  -8.252 -19.629  0.00  0.00    +0.005 A 
ATOM     13  C   UNL     1       9.423  -7.085 -20.741  0.00  0.00    +0.005 A 
ATOM     14  C   UNL     1       8.525  -8.699 -18.656  0.00  0.00    +0.000 A 
ATOM     15  C   UNL     1      10.316  -7.532 -19.767  0.00  0.00    +0.000 A 
ATOM     16  C   UNL     1       9.867  -8.341 -18.726  0.00  0.00    +0.000 A 
ENDBRANCH  10  11
ENDBRANCH   1  10
TORSDOF 2
ENDMDL
MODEL 3
REMARK VINA RESULT:    -4.788      9.498     11.409
REMARK INTER + INTRA:          -5.491
REMARK INTER:                  -5.348
REMARK INTRA:                  -0.143
REMARK UNBOUND:                -0.143
REMARK  Name = 1550473
REMARK  2 active torsions:
REMARK  status: ('A' for Active; 'I' for Inactive)
REMARK    1  A    between atoms: N_1  and  C_4
REMARK    2  A    between atoms: C_4  and  C_5
REMARK                            x       y       z     vdW  Elec       q    Type
REMARK                         _______ _______ _______ _____ _____    ______ ____
ROOT
ATOM      1  N   UNL     1       1.209  -7.244 -31.976  0.00  0.00    -0.354 N 
ATOM      2  N   UNL     1      -1.071  -6.866 -31.821  0.00  0.00    -0.372 N 
ATOM      3  N   UNL     1       0.150  -5.672 -33.354  0.00  0.00    -0.372 N 
ATOM      4  C   UNL     1       0.112  -6.595 -32.387  0.00  0.00    +0.166 C 
ATOM      5  H   UNL     1       1.119  -7.910 -31.218  0.00  0.00    +0.163 HD
ATOM      6  H   UNL     1      -1.917  -6.395 -32.113  0.00  0.00    +0.159 HD
ATOM      7  H   UNL     1      -1.166  -7.566 -31.095  0.00  0.00    +0.159 HD
ATOM      8  H   UNL     1       1.012  -5.417 -33.817  0.00  0.00    +0.159 HD
ATOM      9  H   UNL     1      -0.684  -5.181 -33.651  0.00  0.00    +0.159 HD
ENDROOT
BRANCH   1  10
ATOM     10  C   UNL     1       2.535  -7.061 -32.563  0.00  0.00    +0.151 C 
BRANCH  10  11
ATOM     11  C   UNL     1       3.528  -6.807 -31.463  0.00  0.00    -0.028 A 
ATOM     12  C   UNL     1       4.819  -6.345 -31.762  0.00  0.00    +0.005 A 
ATOM     13  C   UNL     1       3.184  -7.021 -30.120  0.00  0.00    +0.005 A 
ATOM     14  C   UNL     1       5.732  -6.080 -30.738  0.00  0.00    +0.000 A 
ATOM     15  C   UNL     1       4.099  -6.756 -29.101  0.00  0.00    +0.000 A 
ATOM     16  C   UNL     1       5.372  -6.284 -29.410  0.00  0.00    +0.000 A 
ENDBRANCH  10  11
ENDBRANCH   1  10
TORSDOF 2
ENDMDL
MODEL 4
REMARK VINA RESULT:    -4.714      3.743      4.862
REMARK INTER + INTRA:          -5.409
REMARK INTER:                  -5.297
REMARK INTRA:                  -0.112
REMARK UNBOUND:                -0.143
REMARK  Name = 1550473
REMARK  2 active torsions:
REMARK  status: ('A' for Active; 'I' for Inactive)
REMARK    1  A    between atoms: N_1  and  C_4
REMARK    2  A    between atoms: C_4  and  C_5
REMARK                            x       y       z     vdW  Elec       q    Type
REMARK                         _______ _______ _______ _____ _____    ______ ____
ROOT
ATOM      1  N   UNL     1       8.654  -9.103 -18.090  0.00  0.00    -0.354 N 
ATOM      2  N   UNL     1       8.975 -11.128 -17.012  0.00  0.00    -0.372 N 
ATOM      3  N   UNL     1       6.844 -10.301 -17.207  0.00  0.00    -0.372 N 
ATOM      4  C   UNL     1       8.153 -10.164 -17.443  0.00  0.00    +0.166 C 
ATOM      5  H   UNL     1       9.659  -9.044 -18.211  0.00  0.00    +0.163 HD
ATOM      6  H   UNL     1       8.625 -11.941 -16.524  0.00  0.00    +0.159 HD
ATOM      7  H   UNL     1       9.974 -11.088 -17.174  0.00  0.00    +0.159 HD
ATOM      8  H   UNL     1       6.171  -9.605 -17.501  0.00  0.00    +0.159 HD
ATOM      9  H   UNL     1       6.476 -11.102 -16.710  0.00  0.00    +0.159 HD
ENDROOT
BRANCH   1  10
ATOM     10  C   UNL     1       7.839  -8.025 -18.648  0.00  0.00    +0.151 C 
BRANCH  10  11
ATOM     11  C   UNL     1       8.400  -7.626 -19.984  0.00  0.00    -0.028 A 
ATOM     12  C   UNL     1       9.750  -7.265 -20.111  0.00  0.00    +0.005 A 
ATOM     13  C   UNL     1       7.589  -7.612 -21.129  0.00  0.00    +0.005 A 
ATOM     14  C   UNL     1      10.279  -6.923 -21.358  0.00  0.00    +0.000 A 
ATOM     15  C   UNL     1       8.121  -7.269 -22.373  0.00  0.00    +0.000 A 
ATOM     16  C   UNL     1       9.466  -6.927 -22.487  0.00  0.00    +0.000 A 
ENDBRANCH  10  11
ENDBRANCH   1  10
TORSDOF 2
ENDMDL
MODEL 5
REMARK VINA RESULT:    -4.615      6.562      7.412
REMARK INTER + INTRA:          -5.298
REMARK INTER:                  -5.157
REMARK INTRA:                  -0.141
REMARK UNBOUND:                -0.143
REMARK  Name = 1550473
REMARK  2 active torsions:
REMARK  status: ('A' for Active; 'I' for Inactive)
REMARK    1  A    between atoms: N_1  and  C_4
REMARK    2  A    between atoms: C_4  and  C_5
REMARK                            x       y       z     vdW  Elec       q    Type
REMARK                         _______ _______ _______ _____ _____    ______ ____
ROOT
ATOM      1  N   UNL     1       6.880  -3.527 -27.941  0.00  0.00    -0.354 N 
ATOM      2  N   UNL     1       8.309  -1.705 -27.914  0.00  0.00    -0.372 N 
ATOM      3  N   UNL     1       6.059  -1.346 -28.185  0.00  0.00    -0.372 N 
ATOM      4  C   UNL     1       7.071  -2.203 -28.014  0.00  0.00    +0.166 C 
ATOM      5  H   UNL     1       7.692  -4.126 -27.841  0.00  0.00    +0.163 HD
ATOM      6  H   UNL     1       8.484  -0.710 -27.961  0.00  0.00    +0.159 HD
ATOM      7  H   UNL     1       9.114  -2.303 -27.768  0.00  0.00    +0.159 HD
ATOM      8  H   UNL     1       5.102  -1.658 -28.274  0.00  0.00    +0.159 HD
ATOM      9  H   UNL     1       6.215  -0.348 -28.247  0.00  0.00    +0.159 HD
ENDROOT
BRANCH   1  10
ATOM     10  C   UNL     1       5.567  -4.168 -27.986  0.00  0.00    +0.151 C 
BRANCH  10  11
ATOM     11  C   UNL     1       5.539  -5.154 -29.120  0.00  0.00    -0.028 A 
ATOM     12  C   UNL     1       6.040  -4.802 -30.382  0.00  0.00    +0.005 A 
ATOM     13  C   UNL     1       5.019  -6.445 -28.938  0.00  0.00    +0.005 A 
ATOM     14  C   UNL     1       6.042  -5.728 -31.428  0.00  0.00    +0.000 A 
ATOM     15  C   UNL     1       5.022  -7.366 -29.985  0.00  0.00    +0.000 A 
ATOM     16  C   UNL     1       5.536  -7.009 -31.229  0.00  0.00    +0.000 A 
ENDBRANCH  10  11
ENDBRANCH   1  10
TORSDOF 2
ENDMDL
MODEL 6
REMARK VINA RESULT:    -4.548      8.730     10.101
REMARK INTER + INTRA:          -5.223
REMARK INTER:                  -5.084
REMARK INTRA:                  -0.138
REMARK UNBOUND:                -0.143
REMARK  Name = 1550473
REMARK  2 active torsions:
REMARK  status: ('A' for Active; 'I' for Inactive)
REMARK    1  A    between atoms: N_1  and  C_4
REMARK    2  A    between atoms: C_4  and  C_5
REMARK                            x       y       z     vdW  Elec       q    Type
REMARK                         _______ _______ _______ _____ _____    ______ ____
ROOT
ATOM      1  N   UNL     1       6.213  -3.741 -32.773  0.00  0.00    -0.354 N 
ATOM      2  N   UNL     1       6.310  -3.419 -35.065  0.00  0.00    -0.372 N 
ATOM      3  N   UNL     1       8.265  -3.736 -33.906  0.00  0.00    -0.372 N 
ATOM      4  C   UNL     1       6.931  -3.634 -33.899  0.00  0.00    +0.166 C 
ATOM      5  H   UNL     1       5.208  -3.624 -32.831  0.00  0.00    +0.163 HD
ATOM      6  H   UNL     1       6.825  -3.338 -35.931  0.00  0.00    +0.159 HD
ATOM      7  H   UNL     1       5.301  -3.349 -35.126  0.00  0.00    +0.159 HD
ATOM      8  H   UNL     1       8.794  -3.892 -33.059  0.00  0.00    +0.159 HD
ATOM      9  H   UNL     1       8.799  -3.645 -34.761  0.00  0.00    +0.159 HD
ENDROOT
BRANCH   1  10
ATOM     10  C   UNL     1       6.789  -4.029 -31.461  0.00  0.00    +0.151 C 
BRANCH  10  11
ATOM     11  C   UNL     1       6.118  -5.246 -30.886  0.00  0.00    -0.028 A 
ATOM     12  C   UNL     1       5.691  -5.259 -29.550  0.00  0.00    +0.005 A 
ATOM     13  C   UNL     1       5.900  -6.386 -31.674  0.00  0.00    +0.005 A 
ATOM     14  C   UNL     1       5.041  -6.379 -29.024  0.00  0.00    +0.000 A 
ATOM     15  C   UNL     1       5.251  -7.502 -31.145  0.00  0.00    +0.000 A 
ATOM     16  C   UNL     1       4.820  -7.497 -29.821  0.00  0.00    +0.000 A 
ENDBRANCH  10  11
ENDBRANCH   1  10
TORSDOF 2
ENDMDL
MODEL 7
REMARK VINA RESULT:    -4.481      9.725     11.199
REMARK INTER + INTRA:          -5.148
REMARK INTER:                  -5.072
REMARK INTRA:                  -0.075
REMARK UNBOUND:                -0.143
REMARK  Name = 1550473
REMARK  2 active torsions:
REMARK  status: ('A' for Active; 'I' for Inactive)
REMARK    1  A    between atoms: N_1  and  C_4
REMARK    2  A    between atoms: C_4  and  C_5
REMARK                            x       y       z     vdW  Elec       q    Type
REMARK                         _______ _______ _______ _____ _____    ______ ____
ROOT
ATOM      1  N   UNL     1       6.954  -5.917 -35.051  0.00  0.00    -0.354 N 
ATOM      2  N   UNL     1       8.528  -4.604 -36.129  0.00  0.00    -0.372 N 
ATOM      3  N   UNL     1       9.221  -6.509 -35.054  0.00  0.00    -0.372 N 
ATOM      4  C   UNL     1       8.226  -5.687 -35.403  0.00  0.00    +0.166 C 
ATOM      5  H   UNL     1       6.250  -5.239 -35.321  0.00  0.00    +0.163 HD
ATOM      6  H   UNL     1       9.479  -4.407 -36.412  0.00  0.00    +0.159 HD
ATOM      7  H   UNL     1       7.816  -3.953 -36.436  0.00  0.00    +0.159 HD
ATOM      8  H   UNL     1       9.060  -7.341 -34.501  0.00  0.00    +0.159 HD
ATOM      9  H   UNL     1      10.180  -6.323 -35.318  0.00  0.00    +0.159 HD
ENDROOT
BRANCH   1  10
ATOM     10  C   UNL     1       6.511  -7.095 -34.307  0.00  0.00    +0.151 C 
BRANCH  10  11
ATOM     11  C   UNL     1       6.166  -6.687 -32.902  0.00  0.00    -0.028 A 
ATOM     12  C   UNL     1       5.522  -7.585 -32.037  0.00  0.00    +0.005 A 
ATOM     13  C   UNL     1       6.484  -5.406 -32.426  0.00  0.00    +0.005 A 
ATOM     14  C   UNL     1       5.229  -7.217 -30.722  0.00  0.00    +0.000 A 
ATOM     15  C   UNL     1       6.188  -5.042 -31.112  0.00  0.00    +0.000 A 
ATOM     16  C   UNL     1       5.563  -5.949 -30.260  0.00  0.00    +0.000 A 
ENDBRANCH  10  11
ENDBRANCH   1  10
TORSDOF 2
ENDMDL
MODEL 8
REMARK VINA RESULT:    -4.377     39.970     41.268
REMARK INTER + INTRA:          -5.032
REMARK INTER:                  -4.919
REMARK INTRA:                  -0.112
REMARK UNBOUND:                -0.143
REMARK  Name = 1550473
REMARK  2 active torsions:
REMARK  status: ('A' for Active; 'I' for Inactive)
REMARK    1  A    between atoms: N_1  and  C_4
REMARK    2  A    between atoms: C_4  and  C_5
REMARK                            x       y       z     vdW  Elec       q    Type
REMARK                         _______ _______ _______ _____ _____    ______ ____
ROOT
ATOM      1  N   UNL     1      -0.559  -4.527  16.182  0.00  0.00    -0.354 N 
ATOM      2  N   UNL     1      -1.942  -4.548  14.324  0.00  0.00    -0.372 N 
ATOM      3  N   UNL     1      -2.566  -5.738  16.185  0.00  0.00    -0.372 N 
ATOM      4  C   UNL     1      -1.681  -4.939  15.578  0.00  0.00    +0.166 C 
ATOM      5  H   UNL     1       0.085  -3.947  15.657  0.00  0.00    +0.163 HD
ATOM      6  H   UNL     1      -2.782  -4.841  13.844  0.00  0.00    +0.159 HD
ATOM      7  H   UNL     1      -1.318  -3.932  13.818  0.00  0.00    +0.159 HD
ATOM      8  H   UNL     1      -2.425  -6.073  17.128  0.00  0.00    +0.159 HD
ATOM      9  H   UNL     1      -3.407  -6.050  15.716  0.00  0.00    +0.159 HD
ENDROOT
BRANCH   1  10
ATOM     10  C   UNL     1      -0.208  -4.852  17.564  0.00  0.00    +0.151 C 
BRANCH  10  11
ATOM     11  C   UNL     1       1.277  -4.701  17.741  0.00  0.00    -0.028 A 
ATOM     12  C   UNL     1       1.997  -5.613  18.527  0.00  0.00    +0.005 A 
ATOM     13  C   UNL     1       1.972  -3.651  17.122  0.00  0.00    +0.005 A 
ATOM     14  C   UNL     1       3.381  -5.490  18.668  0.00  0.00    +0.000 A 
ATOM     15  C   UNL     1       3.354  -3.531  17.266  0.00  0.00    +0.000 A 
ATOM     16  C   UNL     1       4.059  -4.452  18.037  0.00  0.00    +0.000 A 
ENDBRANCH  10  11
ENDBRANCH   1  10
TORSDOF 2
ENDMDL
MODEL 9
REMARK VINA RESULT:    -4.290      8.858     10.628
REMARK INTER + INTRA:          -4.935
REMARK INTER:                  -4.773
REMARK INTRA:                  -0.162
REMARK UNBOUND:                -0.143
REMARK  Name = 1550473
REMARK  2 active torsions:
REMARK  status: ('A' for Active; 'I' for Inactive)
REMARK    1  A    between atoms: N_1  and  C_4
REMARK    2  A    between atoms: C_4  and  C_5
REMARK                            x       y       z     vdW  Elec       q    Type
REMARK                         _______ _______ _______ _____ _____    ______ ____
ROOT
ATOM      1  N   UNL     1       5.780  -4.613 -33.334  0.00  0.00    -0.354 N 
ATOM      2  N   UNL     1       4.623  -4.552 -35.339  0.00  0.00    -0.372 N 
ATOM      3  N   UNL     1       6.352  -6.041 -35.101  0.00  0.00    -0.372 N 
ATOM      4  C   UNL     1       5.595  -5.071 -34.579  0.00  0.00    +0.166 C 
ATOM      5  H   UNL     1       5.192  -3.855 -33.007  0.00  0.00    +0.163 HD
ATOM      6  H   UNL     1       4.457  -4.880 -36.281  0.00  0.00    +0.159 HD
ATOM      7  H   UNL     1       4.006  -3.827 -34.993  0.00  0.00    +0.159 HD
ATOM      8  H   UNL     1       7.106  -6.470 -34.581  0.00  0.00    +0.159 HD
ATOM      9  H   UNL     1       6.209  -6.375 -36.046  0.00  0.00    +0.159 HD
ENDROOT
BRANCH   1  10
ATOM     10  C   UNL     1       6.776  -5.147 -32.406  0.00  0.00    +0.151 C 
BRANCH  10  11
ATOM     11  C   UNL     1       6.070  -5.772 -31.235  0.00  0.00    -0.028 A 
ATOM     12  C   UNL     1       5.535  -7.065 -31.333  0.00  0.00    +0.005 A 
ATOM     13  C   UNL     1       5.937  -5.080 -30.021  0.00  0.00    +0.005 A 
ATOM     14  C   UNL     1       4.906  -7.659 -30.236  0.00  0.00    +0.000 A 
ATOM     15  C   UNL     1       5.307  -5.675 -28.929  0.00  0.00    +0.000 A 
ATOM     16  C   UNL     1       4.794  -6.966 -29.036  0.00  0.00    +0.000 A 
ENDBRANCH  10  11
ENDBRANCH   1  10
TORSDOF 2
ENDMDL
