MODEL 1
REMARK VINA RESULT:    -4.225      0.000      0.000
REMARK INTER + INTRA:          -4.851
REMARK INTER:                  -4.719
REMARK INTRA:                  -0.132
REMARK UNBOUND:                -0.132
REMARK  Name = 1550473
REMARK  2 active torsions:
REMARK  status: ('A' for Active; 'I' for Inactive)
REMARK    1  A    between atoms: N_1  and  C_4
REMARK    2  A    between atoms: C_4  and  C_5
REMARK                            x       y       z     vdW  Elec       q    Type
REMARK                         _______ _______ _______ _____ _____    ______ ____
ROOT
ATOM      1  N   UNL     1      -3.927 -11.595   3.030  0.00  0.00    -0.354 N 
ATOM      2  N   UNL     1      -1.808 -10.796   2.544  0.00  0.00    -0.372 N 
ATOM      3  N   UNL     1      -2.227 -11.622   4.643  0.00  0.00    -0.372 N 
ATOM      4  C   UNL     1      -2.667 -11.343   3.412  0.00  0.00    +0.166 C 
ATOM      5  H   UNL     1      -4.207 -11.333   2.092  0.00  0.00    +0.163 HD
ATOM      6  H   UNL     1      -0.850 -10.598   2.802  0.00  0.00    +0.159 HD
ATOM      7  H   UNL     1      -2.078 -10.578   1.592  0.00  0.00    +0.159 HD
ATOM      8  H   UNL     1      -2.828 -12.030   5.347  0.00  0.00    +0.159 HD
ATOM      9  H   UNL     1      -1.276 -11.420   4.924  0.00  0.00    +0.159 HD
ENDROOT
BRANCH   1  10
ATOM     10  C   UNL     1      -4.926 -12.238   3.881  0.00  0.00    +0.151 C 
BRANCH  10  11
ATOM     11  C   UNL     1      -5.874 -13.024   3.018  0.00  0.00    -0.028 A 
ATOM     12  C   UNL     1      -5.704 -13.063   1.626  0.00  0.00    +0.005 A 
ATOM     13  C   UNL     1      -6.940 -13.738   3.587  0.00  0.00    +0.005 A 
ATOM     14  C   UNL     1      -6.567 -13.817   0.827  0.00  0.00    +0.000 A 
ATOM     15  C   UNL     1      -7.799 -14.490   2.785  0.00  0.00    +0.000 A 
ATOM     16  C   UNL     1      -7.611 -14.531   1.406  0.00  0.00    +0.000 A 
ENDBRANCH  10  11
ENDBRANCH   1  10
TORSDOF 2
ENDMDL
MODEL 2
REMARK VINA RESULT:    -4.089     32.533     34.803
REMARK INTER + INTRA:          -4.698
REMARK INTER:                  -4.594
REMARK INTRA:                  -0.104
REMARK UNBOUND:                -0.132
REMARK  Name = 1550473
REMARK  2 active torsions:
REMARK  status: ('A' for Active; 'I' for Inactive)
REMARK    1  A    between atoms: N_1  and  C_4
REMARK    2  A    between atoms: C_4  and  C_5
REMARK                            x       y       z     vdW  Elec       q    Type
REMARK                         _______ _______ _______ _____ _____    ______ ____
ROOT
ATOM      1  N   UNL     1       2.447  18.229  11.309  0.00  0.00    -0.354 N 
ATOM      2  N   UNL     1       1.378  16.215  10.900  0.00  0.00    -0.372 N 
ATOM      3  N   UNL     1       3.668  16.298  10.784  0.00  0.00    -0.372 N 
ATOM      4  C   UNL     1       2.507  16.926  11.000  0.00  0.00    +0.166 C 
ATOM      5  H   UNL     1       1.535  18.653  11.431  0.00  0.00    +0.163 HD
ATOM      6  H   UNL     1       1.392  15.230  10.671  0.00  0.00    +0.159 HD
ATOM      7  H   UNL     1       0.470  16.631  11.067  0.00  0.00    +0.159 HD
ATOM      8  H   UNL     1       4.556  16.780  10.839  0.00  0.00    +0.159 HD
ATOM      9  H   UNL     1       3.702  15.316  10.543  0.00  0.00    +0.159 HD
ENDROOT
BRANCH   1  10
ATOM     10  C   UNL     1       3.621  19.080  11.495  0.00  0.00    +0.151 C 
BRANCH  10  11
ATOM     11  C   UNL     1       3.243  20.507  11.207  0.00  0.00    -0.028 A 
ATOM     12  C   UNL     1       3.087  21.427  12.254  0.00  0.00    +0.005 A 
ATOM     13  C   UNL     1       3.047  20.946   9.889  0.00  0.00    +0.005 A 
ATOM     14  C   UNL     1       2.766  22.760  11.985  0.00  0.00    +0.000 A 
ATOM     15  C   UNL     1       2.725  22.277   9.624  0.00  0.00    +0.000 A 
ATOM     16  C   UNL     1       2.587  23.184  10.672  0.00  0.00    +0.000 A 
ENDBRANCH  10  11
ENDBRANCH   1  10
TORSDOF 2
ENDMDL
MODEL 3
REMARK VINA RESULT:    -4.073     32.193     34.416
REMARK INTER + INTRA:          -4.681
REMARK INTER:                  -4.567
REMARK INTRA:                  -0.114
REMARK UNBOUND:                -0.132
REMARK  Name = 1550473
REMARK  2 active torsions:
REMARK  status: ('A' for Active; 'I' for Inactive)
REMARK    1  A    between atoms: N_1  and  C_4
REMARK    2  A    between atoms: C_4  and  C_5
REMARK                            x       y       z     vdW  Elec       q    Type
REMARK                         _______ _______ _______ _____ _____    ______ ____
ROOT
ATOM      1  N   UNL     1       1.452  17.882  11.369  0.00  0.00    -0.354 N 
ATOM      2  N   UNL     1      -0.273  16.589  12.213  0.00  0.00    -0.372 N 
ATOM      3  N   UNL     1       1.860  16.230  12.980  0.00  0.00    -0.372 N 
ATOM      4  C   UNL     1       1.026  16.907  12.183  0.00  0.00    +0.166 C 
ATOM      5  H   UNL     1       0.775  18.337  10.768  0.00  0.00    +0.163 HD
ATOM      6  H   UNL     1      -0.624  15.860  12.820  0.00  0.00    +0.159 HD
ATOM      7  H   UNL     1      -0.955  17.076  11.645  0.00  0.00    +0.159 HD
ATOM      8  H   UNL     1       2.853  16.418  13.000  0.00  0.00    +0.159 HD
ATOM      9  H   UNL     1       1.529  15.489  13.585  0.00  0.00    +0.159 HD
ENDROOT
BRANCH   1  10
ATOM     10  C   UNL     1       2.838  18.343  11.300  0.00  0.00    +0.151 C 
BRANCH  10  11
ATOM     11  C   UNL     1       2.853  19.845  11.223  0.00  0.00    -0.028 A 
ATOM     12  C   UNL     1       2.836  20.495   9.980  0.00  0.00    +0.005 A 
ATOM     13  C   UNL     1       2.879  20.624  12.390  0.00  0.00    +0.005 A 
ATOM     14  C   UNL     1       2.820  21.890   9.909  0.00  0.00    +0.000 A 
ATOM     15  C   UNL     1       2.863  22.017  12.315  0.00  0.00    +0.000 A 
ATOM     16  C   UNL     1       2.831  22.649  11.075  0.00  0.00    +0.000 A 
ENDBRANCH  10  11
ENDBRANCH   1  10
TORSDOF 2
ENDMDL
MODEL 4
REMARK VINA RESULT:    -4.069     26.532     27.485
REMARK INTER + INTRA:          -4.676
REMARK INTER:                  -4.519
REMARK INTRA:                  -0.157
REMARK UNBOUND:                -0.132
REMARK  Name = 1550473
REMARK  2 active torsions:
REMARK  status: ('A' for Active; 'I' for Inactive)
REMARK    1  A    between atoms: N_1  and  C_4
REMARK    2  A    between atoms: C_4  and  C_5
REMARK                            x       y       z     vdW  Elec       q    Type
REMARK                         _______ _______ _______ _____ _____    ______ ____
ROOT
ATOM      1  N   UNL     1      12.264   7.036  11.824  0.00  0.00    -0.354 N 
ATOM      2  N   UNL     1      13.031   9.054  12.664  0.00  0.00    -0.372 N 
ATOM      3  N   UNL     1      13.866   8.295  10.666  0.00  0.00    -0.372 N 
ATOM      4  C   UNL     1      13.050   8.115  11.710  0.00  0.00    +0.166 C 
ATOM      5  H   UNL     1      11.691   6.944  12.655  0.00  0.00    +0.163 HD
ATOM      6  H   UNL     1      13.611   9.880  12.604  0.00  0.00    +0.159 HD
ATOM      7  H   UNL     1      12.423   8.982  13.470  0.00  0.00    +0.159 HD
ATOM      8  H   UNL     1      13.932   7.621   9.915  0.00  0.00    +0.159 HD
ATOM      9  H   UNL     1      14.463   9.110  10.593  0.00  0.00    +0.159 HD
ENDROOT
BRANCH   1  10
ATOM     10  C   UNL     1      12.170   5.983  10.815  0.00  0.00    +0.151 C 
BRANCH  10  11
ATOM     11  C   UNL     1      12.852   4.746  11.332  0.00  0.00    -0.028 A 
ATOM     12  C   UNL     1      12.917   4.491  12.709  0.00  0.00    +0.005 A 
ATOM     13  C   UNL     1      13.432   3.822  10.448  0.00  0.00    +0.005 A 
ATOM     14  C   UNL     1      13.524   3.328  13.188  0.00  0.00    +0.000 A 
ATOM     15  C   UNL     1      14.038   2.662  10.931  0.00  0.00    +0.000 A 
ATOM     16  C   UNL     1      14.081   2.414  12.300  0.00  0.00    +0.000 A 
ENDBRANCH  10  11
ENDBRANCH   1  10
TORSDOF 2
ENDMDL
MODEL 5
REMARK VINA RESULT:    -4.014     20.056     20.982
REMARK INTER + INTRA:          -4.615
REMARK INTER:                  -4.476
REMARK INTRA:                  -0.139
REMARK UNBOUND:                -0.132
REMARK  Name = 1550473
REMARK  2 active torsions:
REMARK  status: ('A' for Active; 'I' for Inactive)
REMARK    1  A    between atoms: N_1  and  C_4
REMARK    2  A    between atoms: C_4  and  C_5
REMARK                            x       y       z     vdW  Elec       q    Type
REMARK                         _______ _______ _______ _____ _____    ______ ____
ROOT
ATOM      1  N   UNL     1     -13.655   4.966   3.079  0.00  0.00    -0.354 N 
ATOM      2  N   UNL     1     -13.941   3.809   1.093  0.00  0.00    -0.372 N 
ATOM      3  N   UNL     1     -15.051   5.795   1.389  0.00  0.00    -0.372 N 
ATOM      4  C   UNL     1     -14.216   4.866   1.866  0.00  0.00    +0.166 C 
ATOM      5  H   UNL     1     -13.054   4.213   3.394  0.00  0.00    +0.163 HD
ATOM      6  H   UNL     1     -14.347   3.708   0.172  0.00  0.00    +0.159 HD
ATOM      7  H   UNL     1     -13.305   3.080   1.393  0.00  0.00    +0.159 HD
ATOM      8  H   UNL     1     -15.303   6.615   1.925  0.00  0.00    +0.159 HD
ATOM      9  H   UNL     1     -15.476   5.707   0.474  0.00  0.00    +0.159 HD
ENDROOT
BRANCH   1  10
ATOM     10  C   UNL     1     -13.846   6.103   3.977  0.00  0.00    +0.151 C 
BRANCH  10  11
ATOM     11  C   UNL     1     -12.501   6.621   4.407  0.00  0.00    -0.028 A 
ATOM     12  C   UNL     1     -12.270   6.980   5.742  0.00  0.00    +0.005 A 
ATOM     13  C   UNL     1     -11.452   6.749   3.483  0.00  0.00    +0.005 A 
ATOM     14  C   UNL     1     -11.012   7.433   6.148  0.00  0.00    +0.000 A 
ATOM     15  C   UNL     1     -10.197   7.202   3.892  0.00  0.00    +0.000 A 
ATOM     16  C   UNL     1      -9.977   7.541   5.225  0.00  0.00    +0.000 A 
ENDBRANCH  10  11
ENDBRANCH   1  10
TORSDOF 2
ENDMDL
MODEL 6
REMARK VINA RESULT:    -4.005     20.597     21.595
REMARK INTER + INTRA:          -4.605
REMARK INTER:                  -4.482
REMARK INTRA:                  -0.123
REMARK UNBOUND:                -0.132
REMARK  Name = 1550473
REMARK  2 active torsions:
REMARK  status: ('A' for Active; 'I' for Inactive)
REMARK    1  A    between atoms: N_1  and  C_4
REMARK    2  A    between atoms: C_4  and  C_5
REMARK                            x       y       z     vdW  Elec       q    Type
REMARK                         _______ _______ _______ _____ _____    ______ ____
ROOT
ATOM      1  N   UNL     1     -12.166   7.464   3.655  0.00  0.00    -0.354 N 
ATOM      2  N   UNL     1     -12.257   7.440   1.341  0.00  0.00    -0.372 N 
ATOM      3  N   UNL     1     -11.848   5.476   2.455  0.00  0.00    -0.372 N 
ATOM      4  C   UNL     1     -12.089   6.790   2.499  0.00  0.00    +0.166 C 
ATOM      5  H   UNL     1     -12.321   8.464   3.619  0.00  0.00    +0.163 HD
ATOM      6  H   UNL     1     -12.208   6.958   0.453  0.00  0.00    +0.159 HD
ATOM      7  H   UNL     1     -12.458   8.432   1.310  0.00  0.00    +0.159 HD
ATOM      8  H   UNL     1     -11.706   4.929   3.293  0.00  0.00    +0.159 HD
ATOM      9  H   UNL     1     -11.783   4.978   1.576  0.00  0.00    +0.159 HD
ENDROOT
BRANCH   1  10
ATOM     10  C   UNL     1     -12.051   6.841   4.972  0.00  0.00    +0.151 C 
BRANCH  10  11
ATOM     11  C   UNL     1     -10.874   7.436   5.695  0.00  0.00    -0.028 A 
ATOM     12  C   UNL     1      -9.714   7.793   4.993  0.00  0.00    +0.005 A 
ATOM     13  C   UNL     1     -10.915   7.650   7.082  0.00  0.00    +0.005 A 
ATOM     14  C   UNL     1      -8.631   8.373   5.660  0.00  0.00    +0.000 A 
ATOM     15  C   UNL     1      -9.832   8.228   7.744  0.00  0.00    +0.000 A 
ATOM     16  C   UNL     1      -8.692   8.592   7.032  0.00  0.00    +0.000 A 
ENDBRANCH  10  11
ENDBRANCH   1  10
TORSDOF 2
ENDMDL
MODEL 7
REMARK VINA RESULT:    -3.869     11.863     13.338
REMARK INTER + INTRA:          -4.453
REMARK INTER:                  -4.292
REMARK INTRA:                  -0.161
REMARK UNBOUND:                -0.132
REMARK  Name = 1550473
REMARK  2 active torsions:
REMARK  status: ('A' for Active; 'I' for Inactive)
REMARK    1  A    between atoms: N_1  and  C_4
REMARK    2  A    between atoms: C_4  and  C_5
REMARK                            x       y       z     vdW  Elec       q    Type
REMARK                         _______ _______ _______ _____ _____    ______ ____
ROOT
ATOM      1  N   UNL     1      -6.234  -7.777  13.664  0.00  0.00    -0.354 N 
ATOM      2  N   UNL     1      -3.998  -8.259  13.300  0.00  0.00    -0.372 N 
ATOM      3  N   UNL     1      -5.312  -7.676  11.512  0.00  0.00    -0.372 N 
ATOM      4  C   UNL     1      -5.197  -7.901  12.825  0.00  0.00    +0.166 C 
ATOM      5  H   UNL     1      -6.088  -7.991  14.644  0.00  0.00    +0.163 HD
ATOM      6  H   UNL     1      -3.196  -8.356  12.691  0.00  0.00    +0.159 HD
ATOM      7  H   UNL     1      -3.844  -8.427  14.287  0.00  0.00    +0.159 HD
ATOM      8  H   UNL     1      -6.191  -7.409  11.090  0.00  0.00    +0.159 HD
ATOM      9  H   UNL     1      -4.524  -7.780  10.885  0.00  0.00    +0.159 HD
ENDROOT
BRANCH   1  10
ATOM     10  C   UNL     1      -7.568  -7.341  13.257  0.00  0.00    +0.151 C 
BRANCH  10  11
ATOM     11  C   UNL     1      -7.794  -5.936  13.742  0.00  0.00    -0.028 A 
ATOM     12  C   UNL     1      -8.368  -4.974  12.898  0.00  0.00    +0.005 A 
ATOM     13  C   UNL     1      -7.443  -5.561  15.048  0.00  0.00    +0.005 A 
ATOM     14  C   UNL     1      -8.607  -3.677  13.358  0.00  0.00    +0.000 A 
ATOM     15  C   UNL     1      -7.681  -4.264  15.504  0.00  0.00    +0.000 A 
ATOM     16  C   UNL     1      -8.266  -3.323  14.659  0.00  0.00    +0.000 A 
ENDBRANCH  10  11
ENDBRANCH   1  10
TORSDOF 2
ENDMDL
MODEL 8
REMARK VINA RESULT:    -3.812     14.684     15.884
REMARK INTER + INTRA:          -4.389
REMARK INTER:                  -4.257
REMARK INTRA:                  -0.132
REMARK UNBOUND:                -0.132
REMARK  Name = 1550473
REMARK  2 active torsions:
REMARK  status: ('A' for Active; 'I' for Inactive)
REMARK    1  A    between atoms: N_1  and  C_4
REMARK    2  A    between atoms: C_4  and  C_5
REMARK                            x       y       z     vdW  Elec       q    Type
REMARK                         _______ _______ _______ _____ _____    ______ ____
ROOT
ATOM      1  N   UNL     1     -10.068  -1.879  14.791  0.00  0.00    -0.354 N 
ATOM      2  N   UNL     1     -10.122   0.232  15.742  0.00  0.00    -0.372 N 
ATOM      3  N   UNL     1     -10.514   0.020  13.491  0.00  0.00    -0.372 N 
ATOM      4  C   UNL     1     -10.235  -0.555  14.666  0.00  0.00    +0.166 C 
ATOM      5  H   UNL     1      -9.828  -2.250  15.703  0.00  0.00    +0.163 HD
ATOM      6  H   UNL     1     -10.246   1.234  15.680  0.00  0.00    +0.159 HD
ATOM      7  H   UNL     1      -9.928  -0.146  16.661  0.00  0.00    +0.159 HD
ATOM      8  H   UNL     1     -10.606  -0.518  12.640  0.00  0.00    +0.159 HD
ATOM      9  H   UNL     1     -10.630   1.022  13.406  0.00  0.00    +0.159 HD
ENDROOT
BRANCH   1  10
ATOM     10  C   UNL     1     -10.223  -2.830  13.691  0.00  0.00    +0.151 C 
BRANCH  10  11
ATOM     11  C   UNL     1      -9.207  -3.928  13.845  0.00  0.00    -0.028 A 
ATOM     12  C   UNL     1      -8.485  -4.067  15.039  0.00  0.00    +0.005 A 
ATOM     13  C   UNL     1      -8.965  -4.835  12.802  0.00  0.00    +0.005 A 
ATOM     14  C   UNL     1      -7.562  -5.105  15.194  0.00  0.00    +0.000 A 
ATOM     15  C   UNL     1      -8.043  -5.870  12.960  0.00  0.00    +0.000 A 
ATOM     16  C   UNL     1      -7.344  -6.006  14.156  0.00  0.00    +0.000 A 
ENDBRANCH  10  11
ENDBRANCH   1  10
TORSDOF 2
ENDMDL
MODEL 9
REMARK VINA RESULT:    -3.750      6.261      9.896
REMARK INTER + INTRA:          -4.320
REMARK INTER:                  -4.193
REMARK INTRA:                  -0.127
REMARK UNBOUND:                -0.132
REMARK  Name = 1550473
REMARK  2 active torsions:
REMARK  status: ('A' for Active; 'I' for Inactive)
REMARK    1  A    between atoms: N_1  and  C_4
REMARK    2  A    between atoms: C_4  and  C_5
REMARK                            x       y       z     vdW  Elec       q    Type
REMARK                         _______ _______ _______ _____ _____    ______ ____
ROOT
ATOM      1  N   UNL     1       0.351  -8.467   3.436  0.00  0.00    -0.354 N 
ATOM      2  N   UNL     1      -1.596  -9.253   2.459  0.00  0.00    -0.372 N 
ATOM      3  N   UNL     1      -1.221  -9.677   4.683  0.00  0.00    -0.372 N 
ATOM      4  C   UNL     1      -0.810  -9.128   3.535  0.00  0.00    +0.166 C 
ATOM      5  H   UNL     1       0.621  -8.101   2.530  0.00  0.00    +0.163 HD
ATOM      6  H   UNL     1      -2.480  -9.743   2.505  0.00  0.00    +0.159 HD
ATOM      7  H   UNL     1      -1.347  -8.846   1.566  0.00  0.00    +0.159 HD
ATOM      8  H   UNL     1      -0.671  -9.623   5.530  0.00  0.00    +0.159 HD
ATOM      9  H   UNL     1      -2.096 -10.182   4.745  0.00  0.00    +0.159 HD
ENDROOT
BRANCH   1  10
ATOM     10  C   UNL     1       1.255  -8.229   4.559  0.00  0.00    +0.151 C 
BRANCH  10  11
ATOM     11  C   UNL     1       2.183  -7.097   4.212  0.00  0.00    -0.028 A 
ATOM     12  C   UNL     1       1.984  -6.347   3.044  0.00  0.00    +0.005 A 
ATOM     13  C   UNL     1       3.258  -6.766   5.051  0.00  0.00    +0.005 A 
ATOM     14  C   UNL     1       2.827  -5.276   2.737  0.00  0.00    +0.000 A 
ATOM     15  C   UNL     1       4.099  -5.697   4.740  0.00  0.00    +0.000 A 
ATOM     16  C   UNL     1       3.881  -4.951   3.584  0.00  0.00    +0.000 A 
ENDBRANCH  10  11
ENDBRANCH   1  10
TORSDOF 2
ENDMDL
