MODEL 1
REMARK VINA RESULT:    -6.728      0.000      0.000
REMARK INTER + INTRA:          -7.640
REMARK INTER:                  -7.515
REMARK INTRA:                  -0.125
REMARK UNBOUND:                -0.125
REMARK  Name = 1550473
REMARK  2 active torsions:
REMARK  status: ('A' for Active; 'I' for Inactive)
REMARK    1  A    between atoms: N_1  and  C_4
REMARK    2  A    between atoms: C_4  and  C_5
REMARK                            x       y       z     vdW  Elec       q    Type
REMARK                         _______ _______ _______ _____ _____    ______ ____
ROOT
ATOM      1  N   UNL     1      -5.700   1.023   2.745  0.00  0.00    -0.354 N 
ATOM      2  N   UNL     1      -8.013   0.941   2.830  0.00  0.00    -0.372 N 
ATOM      3  N   UNL     1      -6.876  -0.793   1.846  0.00  0.00    -0.372 N 
ATOM      4  C   UNL     1      -6.847   0.389   2.471  0.00  0.00    +0.166 C 
ATOM      5  H   UNL     1      -5.747   1.931   3.194  0.00  0.00    +0.163 HD
ATOM      6  H   UNL     1      -8.894   0.483   2.640  0.00  0.00    +0.159 HD
ATOM      7  H   UNL     1      -8.055   1.826   3.320  0.00  0.00    +0.159 HD
ATOM      8  H   UNL     1      -6.031  -1.260   1.544  0.00  0.00    +0.159 HD
ATOM      9  H   UNL     1      -7.749  -1.261   1.637  0.00  0.00    +0.159 HD
ENDROOT
BRANCH   1  10
ATOM     10  C   UNL     1      -4.375   0.483   2.446  0.00  0.00    +0.151 C 
BRANCH  10  11
ATOM     11  C   UNL     1      -3.483   1.600   1.977  0.00  0.00    -0.028 A 
ATOM     12  C   UNL     1      -2.464   1.354   1.046  0.00  0.00    +0.005 A 
ATOM     13  C   UNL     1      -3.657   2.907   2.456  0.00  0.00    +0.005 A 
ATOM     14  C   UNL     1      -1.655   2.396   0.587  0.00  0.00    +0.000 A 
ATOM     15  C   UNL     1      -2.846   3.945   1.996  0.00  0.00    +0.000 A 
ATOM     16  C   UNL     1      -1.847   3.690   1.060  0.00  0.00    +0.000 A 
ENDBRANCH  10  11
ENDBRANCH   1  10
TORSDOF 2
ENDMDL
MODEL 2
REMARK VINA RESULT:    -6.127      2.752      3.801
REMARK INTER + INTRA:          -6.968
REMARK INTER:                  -6.812
REMARK INTRA:                  -0.156
REMARK UNBOUND:                -0.125
REMARK  Name = 1550473
REMARK  2 active torsions:
REMARK  status: ('A' for Active; 'I' for Inactive)
REMARK    1  A    between atoms: N_1  and  C_4
REMARK    2  A    between atoms: C_4  and  C_5
REMARK                            x       y       z     vdW  Elec       q    Type
REMARK                         _______ _______ _______ _____ _____    ______ ____
ROOT
ATOM      1  N   UNL     1      -4.364   3.121   2.816  0.00  0.00    -0.354 N 
ATOM      2  N   UNL     1      -5.637   1.186   2.784  0.00  0.00    -0.372 N 
ATOM      3  N   UNL     1      -3.687   1.251   1.575  0.00  0.00    -0.372 N 
ATOM      4  C   UNL     1      -4.552   1.865   2.390  0.00  0.00    +0.166 C 
ATOM      5  H   UNL     1      -5.072   3.539   3.408  0.00  0.00    +0.163 HD
ATOM      6  H   UNL     1      -5.804   0.235   2.482  0.00  0.00    +0.159 HD
ATOM      7  H   UNL     1      -6.319   1.591   3.413  0.00  0.00    +0.159 HD
ATOM      8  H   UNL     1      -2.852   1.711   1.237  0.00  0.00    +0.159 HD
ATOM      9  H   UNL     1      -3.843   0.305   1.253  0.00  0.00    +0.159 HD
ENDROOT
BRANCH   1  10
ATOM     10  C   UNL     1      -3.190   3.928   2.489  0.00  0.00    +0.151 C 
BRANCH  10  11
ATOM     11  C   UNL     1      -2.192   3.819   3.609  0.00  0.00    -0.028 A 
ATOM     12  C   UNL     1      -2.273   4.670   4.720  0.00  0.00    +0.005 A 
ATOM     13  C   UNL     1      -1.166   2.863   3.567  0.00  0.00    +0.005 A 
ATOM     14  C   UNL     1      -1.365   4.550   5.775  0.00  0.00    +0.000 A 
ATOM     15  C   UNL     1      -0.260   2.746   4.621  0.00  0.00    +0.000 A 
ATOM     16  C   UNL     1      -0.361   3.588   5.726  0.00  0.00    +0.000 A 
ENDBRANCH  10  11
ENDBRANCH   1  10
TORSDOF 2
ENDMDL
MODEL 3
REMARK VINA RESULT:    -6.074      1.950      2.598
REMARK INTER + INTRA:          -6.909
REMARK INTER:                  -6.768
REMARK INTRA:                  -0.141
REMARK UNBOUND:                -0.125
REMARK  Name = 1550473
REMARK  2 active torsions:
REMARK  status: ('A' for Active; 'I' for Inactive)
REMARK    1  A    between atoms: N_1  and  C_4
REMARK    2  A    between atoms: C_4  and  C_5
REMARK                            x       y       z     vdW  Elec       q    Type
REMARK                         _______ _______ _______ _____ _____    ______ ____
ROOT
ATOM      1  N   UNL     1      -4.393   1.688   1.538  0.00  0.00    -0.354 N 
ATOM      2  N   UNL     1      -6.357   0.617   2.136  0.00  0.00    -0.372 N 
ATOM      3  N   UNL     1      -4.365  -0.189   2.940  0.00  0.00    -0.372 N 
ATOM      4  C   UNL     1      -5.024   0.710   2.202  0.00  0.00    +0.166 C 
ATOM      5  H   UNL     1      -4.947   2.320   0.971  0.00  0.00    +0.163 HD
ATOM      6  H   UNL     1      -6.861  -0.108   2.629  0.00  0.00    +0.159 HD
ATOM      7  H   UNL     1      -6.913   1.277   1.606  0.00  0.00    +0.159 HD
ATOM      8  H   UNL     1      -3.358  -0.177   3.026  0.00  0.00    +0.159 HD
ATOM      9  H   UNL     1      -4.850  -0.929   3.431  0.00  0.00    +0.159 HD
ENDROOT
BRANCH   1  10
ATOM     10  C   UNL     1      -2.949   1.911   1.587  0.00  0.00    +0.151 C 
BRANCH  10  11
ATOM     11  C   UNL     1      -2.630   2.809   2.750  0.00  0.00    -0.028 A 
ATOM     12  C   UNL     1      -1.552   2.518   3.599  0.00  0.00    +0.005 A 
ATOM     13  C   UNL     1      -3.397   3.956   3.004  0.00  0.00    +0.005 A 
ATOM     14  C   UNL     1      -1.237   3.368   4.662  0.00  0.00    +0.000 A 
ATOM     15  C   UNL     1      -3.079   4.802   4.067  0.00  0.00    +0.000 A 
ATOM     16  C   UNL     1      -1.998   4.509   4.894  0.00  0.00    +0.000 A 
ENDBRANCH  10  11
ENDBRANCH   1  10
TORSDOF 2
ENDMDL
MODEL 4
REMARK VINA RESULT:    -6.052      2.352      3.218
REMARK INTER + INTRA:          -6.884
REMARK INTER:                  -6.736
REMARK INTRA:                  -0.148
REMARK UNBOUND:                -0.125
REMARK  Name = 1550473
REMARK  2 active torsions:
REMARK  status: ('A' for Active; 'I' for Inactive)
REMARK    1  A    between atoms: N_1  and  C_4
REMARK    2  A    between atoms: C_4  and  C_5
REMARK                            x       y       z     vdW  Elec       q    Type
REMARK                         _______ _______ _______ _____ _____    ______ ____
ROOT
ATOM      1  N   UNL     1      -2.096  -0.226   2.375  0.00  0.00    -0.354 N 
ATOM      2  N   UNL     1      -2.421  -1.806   4.036  0.00  0.00    -0.372 N 
ATOM      3  N   UNL     1      -4.130  -1.374   2.568  0.00  0.00    -0.372 N 
ATOM      4  C   UNL     1      -2.883  -1.125   2.981  0.00  0.00    +0.166 C 
ATOM      5  H   UNL     1      -1.171  -0.061   2.755  0.00  0.00    +0.163 HD
ATOM      6  H   UNL     1      -2.990  -2.494   4.512  0.00  0.00    +0.159 HD
ATOM      7  H   UNL     1      -1.479  -1.673   4.386  0.00  0.00    +0.159 HD
ATOM      8  H   UNL     1      -4.540  -0.889   1.781  0.00  0.00    +0.159 HD
ATOM      9  H   UNL     1      -4.719  -2.050   3.038  0.00  0.00    +0.159 HD
ENDROOT
BRANCH   1  10
ATOM     10  C   UNL     1      -2.485   0.531   1.186  0.00  0.00    +0.151 C 
BRANCH  10  11
ATOM     11  C   UNL     1      -2.561   1.991   1.536  0.00  0.00    -0.028 A 
ATOM     12  C   UNL     1      -3.460   2.443   2.513  0.00  0.00    +0.005 A 
ATOM     13  C   UNL     1      -1.733   2.928   0.898  0.00  0.00    +0.005 A 
ATOM     14  C   UNL     1      -3.510   3.796   2.859  0.00  0.00    +0.000 A 
ATOM     15  C   UNL     1      -1.787   4.277   1.246  0.00  0.00    +0.000 A 
ATOM     16  C   UNL     1      -2.674   4.710   2.228  0.00  0.00    +0.000 A 
ENDBRANCH  10  11
ENDBRANCH   1  10
TORSDOF 2
ENDMDL
MODEL 5
REMARK VINA RESULT:    -5.872      4.117      5.293
REMARK INTER + INTRA:          -6.683
REMARK INTER:                  -6.519
REMARK INTRA:                  -0.164
REMARK UNBOUND:                -0.125
REMARK  Name = 1550473
REMARK  2 active torsions:
REMARK  status: ('A' for Active; 'I' for Inactive)
REMARK    1  A    between atoms: N_1  and  C_4
REMARK    2  A    between atoms: C_4  and  C_5
REMARK                            x       y       z     vdW  Elec       q    Type
REMARK                         _______ _______ _______ _____ _____    ______ ____
ROOT
ATOM      1  N   UNL     1      -0.286  -0.395   2.102  0.00  0.00    -0.354 N 
ATOM      2  N   UNL     1       1.944  -0.974   1.861  0.00  0.00    -0.372 N 
ATOM      3  N   UNL     1       1.253  -0.018   3.829  0.00  0.00    -0.372 N 
ATOM      4  C   UNL     1       0.956  -0.457   2.601  0.00  0.00    +0.166 C 
ATOM      5  H   UNL     1      -0.439  -0.717   1.153  0.00  0.00    +0.163 HD
ATOM      6  H   UNL     1       2.890  -1.037   2.212  0.00  0.00    +0.159 HD
ATOM      7  H   UNL     1       1.778  -1.337   0.930  0.00  0.00    +0.159 HD
ATOM      8  H   UNL     1       0.554   0.389   4.436  0.00  0.00    +0.159 HD
ATOM      9  H   UNL     1       2.196  -0.062   4.194  0.00  0.00    +0.159 HD
ENDROOT
BRANCH   1  10
ATOM     10  C   UNL     1      -1.442   0.100   2.845  0.00  0.00    +0.151 C 
BRANCH  10  11
ATOM     11  C   UNL     1      -1.623   1.565   2.556  0.00  0.00    -0.028 A 
ATOM     12  C   UNL     1      -1.685   2.496   3.603  0.00  0.00    +0.005 A 
ATOM     13  C   UNL     1      -1.726   2.029   1.236  0.00  0.00    +0.005 A 
ATOM     14  C   UNL     1      -1.822   3.859   3.334  0.00  0.00    +0.000 A 
ATOM     15  C   UNL     1      -1.864   3.392   0.971  0.00  0.00    +0.000 A 
ATOM     16  C   UNL     1      -1.909   4.307   2.020  0.00  0.00    +0.000 A 
ENDBRANCH  10  11
ENDBRANCH   1  10
TORSDOF 2
ENDMDL
MODEL 6
REMARK VINA RESULT:    -5.829      3.348      3.719
REMARK INTER + INTRA:          -6.636
REMARK INTER:                  -6.536
REMARK INTRA:                  -0.100
REMARK UNBOUND:                -0.125
REMARK  Name = 1550473
REMARK  2 active torsions:
REMARK  status: ('A' for Active; 'I' for Inactive)
REMARK    1  A    between atoms: N_1  and  C_4
REMARK    2  A    between atoms: C_4  and  C_5
REMARK                            x       y       z     vdW  Elec       q    Type
REMARK                         _______ _______ _______ _____ _____    ______ ____
ROOT
ATOM      1  N   UNL     1      -1.920  -0.117   3.405  0.00  0.00    -0.354 N 
ATOM      2  N   UNL     1      -2.967  -2.176   3.579  0.00  0.00    -0.372 N 
ATOM      3  N   UNL     1      -0.936  -2.050   2.518  0.00  0.00    -0.372 N 
ATOM      4  C   UNL     1      -1.932  -1.435   3.165  0.00  0.00    +0.166 C 
ATOM      5  H   UNL     1      -2.720   0.294   3.873  0.00  0.00    +0.163 HD
ATOM      6  H   UNL     1      -3.002  -3.173   3.415  0.00  0.00    +0.159 HD
ATOM      7  H   UNL     1      -3.743  -1.770   4.087  0.00  0.00    +0.159 HD
ATOM      8  H   UNL     1      -0.129  -1.547   2.175  0.00  0.00    +0.159 HD
ATOM      9  H   UNL     1      -0.958  -3.046   2.335  0.00  0.00    +0.159 HD
ENDROOT
BRANCH   1  10
ATOM     10  C   UNL     1      -0.816   0.770   3.043  0.00  0.00    +0.151 C 
BRANCH  10  11
ATOM     11  C   UNL     1      -1.361   2.143   2.761  0.00  0.00    -0.028 A 
ATOM     12  C   UNL     1      -1.631   2.545   1.444  0.00  0.00    +0.005 A 
ATOM     13  C   UNL     1      -1.616   3.044   3.806  0.00  0.00    +0.005 A 
ATOM     14  C   UNL     1      -2.166   3.809   1.184  0.00  0.00    +0.000 A 
ATOM     15  C   UNL     1      -2.150   4.306   3.541  0.00  0.00    +0.000 A 
ATOM     16  C   UNL     1      -2.426   4.687   2.231  0.00  0.00    +0.000 A 
ENDBRANCH  10  11
ENDBRANCH   1  10
TORSDOF 2
ENDMDL
MODEL 7
REMARK VINA RESULT:    -5.724      4.304      5.166
REMARK INTER + INTRA:          -6.518
REMARK INTER:                  -6.382
REMARK INTRA:                  -0.136
REMARK UNBOUND:                -0.125
REMARK  Name = 1550473
REMARK  2 active torsions:
REMARK  status: ('A' for Active; 'I' for Inactive)
REMARK    1  A    between atoms: N_1  and  C_4
REMARK    2  A    between atoms: C_4  and  C_5
REMARK                            x       y       z     vdW  Elec       q    Type
REMARK                         _______ _______ _______ _____ _____    ______ ____
ROOT
ATOM      1  N   UNL     1      -0.028  -1.537   2.568  0.00  0.00    -0.354 N 
ATOM      2  N   UNL     1       0.119  -3.790   2.053  0.00  0.00    -0.372 N 
ATOM      3  N   UNL     1      -0.465  -3.176   4.185  0.00  0.00    -0.372 N 
ATOM      4  C   UNL     1      -0.126  -2.820   2.941  0.00  0.00    +0.166 C 
ATOM      5  H   UNL     1       0.263  -1.333   1.619  0.00  0.00    +0.163 HD
ATOM      6  H   UNL     1       0.049  -4.767   2.305  0.00  0.00    +0.159 HD
ATOM      7  H   UNL     1       0.364  -3.583   1.092  0.00  0.00    +0.159 HD
ATOM      8  H   UNL     1      -0.657  -2.491   4.905  0.00  0.00    +0.159 HD
ATOM      9  H   UNL     1      -0.529  -4.148   4.459  0.00  0.00    +0.159 HD
ENDROOT
BRANCH   1  10
ATOM     10  C   UNL     1      -0.325  -0.405   3.444  0.00  0.00    +0.151 C 
BRANCH  10  11
ATOM     11  C   UNL     1      -1.009   0.669   2.644  0.00  0.00    -0.028 A 
ATOM     12  C   UNL     1      -1.109   1.975   3.144  0.00  0.00    +0.005 A 
ATOM     13  C   UNL     1      -1.554   0.388   1.381  0.00  0.00    +0.005 A 
ATOM     14  C   UNL     1      -1.718   2.980   2.388  0.00  0.00    +0.000 A 
ATOM     15  C   UNL     1      -2.161   1.394   0.630  0.00  0.00    +0.000 A 
ATOM     16  C   UNL     1      -2.241   2.690   1.133  0.00  0.00    +0.000 A 
ENDBRANCH  10  11
ENDBRANCH   1  10
TORSDOF 2
ENDMDL
MODEL 8
REMARK VINA RESULT:    -5.680      9.375     10.351
REMARK INTER + INTRA:          -6.469
REMARK INTER:                  -6.306
REMARK INTRA:                  -0.162
REMARK UNBOUND:                -0.125
REMARK  Name = 1550473
REMARK  2 active torsions:
REMARK  status: ('A' for Active; 'I' for Inactive)
REMARK    1  A    between atoms: N_1  and  C_4
REMARK    2  A    between atoms: C_4  and  C_5
REMARK                            x       y       z     vdW  Elec       q    Type
REMARK                         _______ _______ _______ _____ _____    ______ ____
ROOT
ATOM      1  N   UNL     1       1.363  -3.552   4.035  0.00  0.00    -0.354 N 
ATOM      2  N   UNL     1       0.088  -4.030   2.162  0.00  0.00    -0.372 N 
ATOM      3  N   UNL     1       2.026  -2.828   1.907  0.00  0.00    -0.372 N 
ATOM      4  C   UNL     1       1.169  -3.465   2.712  0.00  0.00    +0.166 C 
ATOM      5  H   UNL     1       0.661  -4.022   4.595  0.00  0.00    +0.163 HD
ATOM      6  H   UNL     1      -0.084  -3.985   1.167  0.00  0.00    +0.159 HD
ATOM      7  H   UNL     1      -0.589  -4.540   2.718  0.00  0.00    +0.159 HD
ATOM      8  H   UNL     1       2.858  -2.376   2.260  0.00  0.00    +0.159 HD
ATOM      9  H   UNL     1       1.865  -2.762   0.909  0.00  0.00    +0.159 HD
ENDROOT
BRANCH   1  10
ATOM     10  C   UNL     1       2.535  -3.017   4.726  0.00  0.00    +0.151 C 
BRANCH  10  11
ATOM     11  C   UNL     1       3.410  -4.160   5.164  0.00  0.00    -0.028 A 
ATOM     12  C   UNL     1       2.888  -5.194   5.954  0.00  0.00    +0.005 A 
ATOM     13  C   UNL     1       4.761  -4.216   4.788  0.00  0.00    +0.005 A 
ATOM     14  C   UNL     1       3.692  -6.270   6.336  0.00  0.00    +0.000 A 
ATOM     15  C   UNL     1       5.561  -5.292   5.172  0.00  0.00    +0.000 A 
ATOM     16  C   UNL     1       5.026  -6.320   5.944  0.00  0.00    +0.000 A 
ENDBRANCH  10  11
ENDBRANCH   1  10
TORSDOF 2
ENDMDL
MODEL 9
REMARK VINA RESULT:    -5.675      4.435      5.155
REMARK INTER + INTRA:          -6.463
REMARK INTER:                  -6.350
REMARK INTRA:                  -0.113
REMARK UNBOUND:                -0.125
REMARK  Name = 1550473
REMARK  2 active torsions:
REMARK  status: ('A' for Active; 'I' for Inactive)
REMARK    1  A    between atoms: N_1  and  C_4
REMARK    2  A    between atoms: C_4  and  C_5
REMARK                            x       y       z     vdW  Elec       q    Type
REMARK                         _______ _______ _______ _____ _____    ______ ____
ROOT
ATOM      1  N   UNL     1       0.355   1.713   4.358  0.00  0.00    -0.354 N 
ATOM      2  N   UNL     1       1.618  -0.149   3.808  0.00  0.00    -0.372 N 
ATOM      3  N   UNL     1      -0.416  -0.450   4.826  0.00  0.00    -0.372 N 
ATOM      4  C   UNL     1       0.509   0.382   4.336  0.00  0.00    +0.166 C 
ATOM      5  H   UNL     1       1.106   2.290   3.998  0.00  0.00    +0.163 HD
ATOM      6  H   UNL     1       1.760  -1.150   3.774  0.00  0.00    +0.159 HD
ATOM      7  H   UNL     1       2.347   0.429   3.407  0.00  0.00    +0.159 HD
ATOM      8  H   UNL     1      -1.273  -0.113   5.244  0.00  0.00    +0.159 HD
ATOM      9  H   UNL     1      -0.286  -1.454   4.812  0.00  0.00    +0.159 HD
ENDROOT
BRANCH   1  10
ATOM     10  C   UNL     1      -0.839   2.389   4.861  0.00  0.00    +0.151 C 
BRANCH  10  11
ATOM     11  C   UNL     1      -1.464   3.179   3.745  0.00  0.00    -0.028 A 
ATOM     12  C   UNL     1      -1.325   2.761   2.413  0.00  0.00    +0.005 A 
ATOM     13  C   UNL     1      -2.200   4.343   4.012  0.00  0.00    +0.005 A 
ATOM     14  C   UNL     1      -1.930   3.478   1.378  0.00  0.00    +0.000 A 
ATOM     15  C   UNL     1      -2.802   5.057   2.976  0.00  0.00    +0.000 A 
ATOM     16  C   UNL     1      -2.669   4.622   1.659  0.00  0.00    +0.000 A 
ENDBRANCH  10  11
ENDBRANCH   1  10
TORSDOF 2
ENDMDL
