MODEL 1
REMARK VINA RESULT:    -5.304      0.000      0.000
REMARK INTER + INTRA:          -6.103
REMARK INTER:                  -5.924
REMARK INTRA:                  -0.179
REMARK UNBOUND:                -0.179
REMARK  Name = 1550473
REMARK  2 active torsions:
REMARK  status: ('A' for Active; 'I' for Inactive)
REMARK    1  A    between atoms: N_1  and  C_4
REMARK    2  A    between atoms: C_4  and  C_5
REMARK                            x       y       z     vdW  Elec       q    Type
REMARK                         _______ _______ _______ _____ _____    ______ ____
ROOT
ATOM      1  N   UNL     1      -2.937  -3.138  -5.175  0.00  0.00    -0.354 N 
ATOM      2  N   UNL     1      -1.759  -2.082  -6.866  0.00  0.00    -0.372 N 
ATOM      3  N   UNL     1      -3.606  -3.330  -7.413  0.00  0.00    -0.372 N 
ATOM      4  C   UNL     1      -2.777  -2.858  -6.475  0.00  0.00    +0.166 C 
ATOM      5  H   UNL     1      -2.257  -2.775  -4.517  0.00  0.00    +0.163 HD
ATOM      6  H   UNL     1      -1.615  -1.851  -7.840  0.00  0.00    +0.159 HD
ATOM      7  H   UNL     1      -1.108  -1.683  -6.202  0.00  0.00    +0.159 HD
ATOM      8  H   UNL     1      -4.390  -3.926  -7.184  0.00  0.00    +0.159 HD
ATOM      9  H   UNL     1      -3.471  -3.119  -8.394  0.00  0.00    +0.159 HD
ENDROOT
BRANCH   1  10
ATOM     10  C   UNL     1      -4.044  -3.929  -4.639  0.00  0.00    +0.151 C 
BRANCH  10  11
ATOM     11  C   UNL     1      -3.546  -5.309  -4.309  0.00  0.00    -0.028 A 
ATOM     12  C   UNL     1      -3.649  -6.347  -5.247  0.00  0.00    +0.005 A 
ATOM     13  C   UNL     1      -2.966  -5.585  -3.062  0.00  0.00    +0.005 A 
ATOM     14  C   UNL     1      -3.160  -7.622  -4.952  0.00  0.00    +0.000 A 
ATOM     15  C   UNL     1      -2.479  -6.859  -2.770  0.00  0.00    +0.000 A 
ATOM     16  C   UNL     1      -2.574  -7.876  -3.717  0.00  0.00    +0.000 A 
ENDBRANCH  10  11
ENDBRANCH   1  10
TORSDOF 2
ENDMDL
MODEL 2
REMARK VINA RESULT:    -5.119      3.303      4.697
REMARK INTER + INTRA:          -5.896
REMARK INTER:                  -5.785
REMARK INTRA:                  -0.112
REMARK UNBOUND:                -0.179
REMARK  Name = 1550473
REMARK  2 active torsions:
REMARK  status: ('A' for Active; 'I' for Inactive)
REMARK    1  A    between atoms: N_1  and  C_4
REMARK    2  A    between atoms: C_4  and  C_5
REMARK                            x       y       z     vdW  Elec       q    Type
REMARK                         _______ _______ _______ _____ _____    ______ ____
ROOT
ATOM      1  N   UNL     1      -5.343  -3.227  -1.984  0.00  0.00    -0.354 N 
ATOM      2  N   UNL     1      -7.352  -2.414  -1.165  0.00  0.00    -0.372 N 
ATOM      3  N   UNL     1      -6.566  -4.422  -0.381  0.00  0.00    -0.372 N 
ATOM      4  C   UNL     1      -6.407  -3.362  -1.181  0.00  0.00    +0.166 C 
ATOM      5  H   UNL     1      -5.297  -2.415  -2.588  0.00  0.00    +0.163 HD
ATOM      6  H   UNL     1      -8.164  -2.486  -0.567  0.00  0.00    +0.159 HD
ATOM      7  H   UNL     1      -7.279  -1.580  -1.736  0.00  0.00    +0.159 HD
ATOM      8  H   UNL     1      -5.893  -5.175  -0.350  0.00  0.00    +0.159 HD
ATOM      9  H   UNL     1      -7.378  -4.518   0.216  0.00  0.00    +0.159 HD
ENDROOT
BRANCH   1  10
ATOM     10  C   UNL     1      -4.233  -4.176  -2.036  0.00  0.00    +0.151 C 
BRANCH  10  11
ATOM     11  C   UNL     1      -3.724  -4.260  -3.449  0.00  0.00    -0.028 A 
ATOM     12  C   UNL     1      -3.515  -5.506  -4.058  0.00  0.00    +0.005 A 
ATOM     13  C   UNL     1      -3.455  -3.096  -4.186  0.00  0.00    +0.005 A 
ATOM     14  C   UNL     1      -3.072  -5.583  -5.380  0.00  0.00    +0.000 A 
ATOM     15  C   UNL     1      -3.011  -3.178  -5.506  0.00  0.00    +0.000 A 
ATOM     16  C   UNL     1      -2.822  -4.422  -6.103  0.00  0.00    +0.000 A 
ENDBRANCH  10  11
ENDBRANCH   1  10
TORSDOF 2
ENDMDL
MODEL 3
REMARK VINA RESULT:    -5.094     50.468     51.578
REMARK INTER + INTRA:          -5.869
REMARK INTER:                  -5.768
REMARK INTRA:                  -0.101
REMARK UNBOUND:                -0.179
REMARK  Name = 1550473
REMARK  2 active torsions:
REMARK  status: ('A' for Active; 'I' for Inactive)
REMARK    1  A    between atoms: N_1  and  C_4
REMARK    2  A    between atoms: C_4  and  C_5
REMARK                            x       y       z     vdW  Elec       q    Type
REMARK                         _______ _______ _______ _____ _____    ______ ____
ROOT
ATOM      1  N   UNL     1       6.278  27.922  33.394  0.00  0.00    -0.354 N 
ATOM      2  N   UNL     1       7.775  26.611  34.579  0.00  0.00    -0.372 N 
ATOM      3  N   UNL     1       7.160  25.959  32.467  0.00  0.00    -0.372 N 
ATOM      4  C   UNL     1       7.061  26.837  33.470  0.00  0.00    +0.166 C 
ATOM      5  H   UNL     1       6.223  28.533  34.200  0.00  0.00    +0.163 HD
ATOM      6  H   UNL     1       8.377  25.803  34.664  0.00  0.00    +0.159 HD
ATOM      7  H   UNL     1       7.753  27.248  35.366  0.00  0.00    +0.159 HD
ATOM      8  H   UNL     1       6.642  26.069  31.605  0.00  0.00    +0.159 HD
ATOM      9  H   UNL     1       7.748  25.138  32.537  0.00  0.00    +0.159 HD
ENDROOT
BRANCH   1  10
ATOM     10  C   UNL     1       5.501  28.288  32.211  0.00  0.00    +0.151 C 
BRANCH  10  11
ATOM     11  C   UNL     1       4.306  29.095  32.638  0.00  0.00    -0.028 A 
ATOM     12  C   UNL     1       4.342  30.497  32.598  0.00  0.00    +0.005 A 
ATOM     13  C   UNL     1       3.133  28.464  33.079  0.00  0.00    +0.005 A 
ATOM     14  C   UNL     1       3.222  31.246  32.967  0.00  0.00    +0.000 A 
ATOM     15  C   UNL     1       2.017  29.216  33.447  0.00  0.00    +0.000 A 
ATOM     16  C   UNL     1       2.061  30.607  33.388  0.00  0.00    +0.000 A 
ENDBRANCH  10  11
ENDBRANCH   1  10
TORSDOF 2
ENDMDL
MODEL 4
REMARK VINA RESULT:    -5.023      3.942      4.864
REMARK INTER + INTRA:          -5.789
REMARK INTER:                  -5.686
REMARK INTRA:                  -0.103
REMARK UNBOUND:                -0.179
REMARK  Name = 1550473
REMARK  2 active torsions:
REMARK  status: ('A' for Active; 'I' for Inactive)
REMARK    1  A    between atoms: N_1  and  C_4
REMARK    2  A    between atoms: C_4  and  C_5
REMARK                            x       y       z     vdW  Elec       q    Type
REMARK                         _______ _______ _______ _____ _____    ______ ____
ROOT
ATOM      1  N   UNL     1      -5.597  -4.515  -1.270  0.00  0.00    -0.354 N 
ATOM      2  N   UNL     1      -6.737  -2.519  -0.987  0.00  0.00    -0.372 N 
ATOM      3  N   UNL     1      -7.517  -4.401   0.069  0.00  0.00    -0.372 N 
ATOM      4  C   UNL     1      -6.611  -3.826  -0.730  0.00  0.00    +0.166 C 
ATOM      5  H   UNL     1      -4.961  -4.028  -1.891  0.00  0.00    +0.163 HD
ATOM      6  H   UNL     1      -7.490  -1.972  -0.591  0.00  0.00    +0.159 HD
ATOM      7  H   UNL     1      -6.074  -2.025  -1.572  0.00  0.00    +0.159 HD
ATOM      8  H   UNL     1      -7.482  -5.385   0.297  0.00  0.00    +0.159 HD
ATOM      9  H   UNL     1      -8.285  -3.873   0.465  0.00  0.00    +0.159 HD
ENDROOT
BRANCH   1  10
ATOM     10  C   UNL     1      -5.340  -5.930  -1.010  0.00  0.00    +0.151 C 
BRANCH  10  11
ATOM     11  C   UNL     1      -4.615  -6.522  -2.188  0.00  0.00    -0.028 A 
ATOM     12  C   UNL     1      -3.233  -6.752  -2.130  0.00  0.00    +0.005 A 
ATOM     13  C   UNL     1      -5.306  -6.860  -3.361  0.00  0.00    +0.005 A 
ATOM     14  C   UNL     1      -2.564  -7.330  -3.212  0.00  0.00    +0.000 A 
ATOM     15  C   UNL     1      -4.634  -7.436  -4.440  0.00  0.00    +0.000 A 
ATOM     16  C   UNL     1      -3.264  -7.673  -4.364  0.00  0.00    +0.000 A 
ENDBRANCH  10  11
ENDBRANCH   1  10
TORSDOF 2
ENDMDL
MODEL 5
REMARK VINA RESULT:    -4.856      3.298      4.736
REMARK INTER + INTRA:          -5.603
REMARK INTER:                  -5.428
REMARK INTRA:                  -0.175
REMARK UNBOUND:                -0.179
REMARK  Name = 1550473
REMARK  2 active torsions:
REMARK  status: ('A' for Active; 'I' for Inactive)
REMARK    1  A    between atoms: N_1  and  C_4
REMARK    2  A    between atoms: C_4  and  C_5
REMARK                            x       y       z     vdW  Elec       q    Type
REMARK                         _______ _______ _______ _____ _____    ______ ____
ROOT
ATOM      1  N   UNL     1      -5.872  -4.094  -3.552  0.00  0.00    -0.354 N 
ATOM      2  N   UNL     1      -6.268  -2.970  -1.566  0.00  0.00    -0.372 N 
ATOM      3  N   UNL     1      -4.450  -4.362  -1.709  0.00  0.00    -0.372 N 
ATOM      4  C   UNL     1      -5.525  -3.817  -2.288  0.00  0.00    +0.166 C 
ATOM      5  H   UNL     1      -6.716  -3.672  -3.923  0.00  0.00    +0.163 HD
ATOM      6  H   UNL     1      -6.030  -2.739  -0.611  0.00  0.00    +0.159 HD
ATOM      7  H   UNL     1      -7.085  -2.513  -1.955  0.00  0.00    +0.159 HD
ATOM      8  H   UNL     1      -3.851  -5.014  -2.197  0.00  0.00    +0.159 HD
ATOM      9  H   UNL     1      -4.201  -4.153  -0.750  0.00  0.00    +0.159 HD
ENDROOT
BRANCH   1  10
ATOM     10  C   UNL     1      -5.101  -4.961  -4.441  0.00  0.00    +0.151 C 
BRANCH  10  11
ATOM     11  C   UNL     1      -4.399  -4.115  -5.467  0.00  0.00    -0.028 A 
ATOM     12  C   UNL     1      -4.997  -3.860  -6.709  0.00  0.00    +0.005 A 
ATOM     13  C   UNL     1      -3.138  -3.560  -5.200  0.00  0.00    +0.005 A 
ATOM     14  C   UNL     1      -4.360  -3.050  -7.651  0.00  0.00    +0.000 A 
ATOM     15  C   UNL     1      -2.504  -2.751  -6.143  0.00  0.00    +0.000 A 
ATOM     16  C   UNL     1      -3.116  -2.494  -7.368  0.00  0.00    +0.000 A 
ENDBRANCH  10  11
ENDBRANCH   1  10
TORSDOF 2
ENDMDL
MODEL 6
REMARK VINA RESULT:    -4.800     18.867     21.034
REMARK INTER + INTRA:          -5.540
REMARK INTER:                  -5.414
REMARK INTRA:                  -0.126
REMARK UNBOUND:                -0.179
REMARK  Name = 1550473
REMARK  2 active torsions:
REMARK  status: ('A' for Active; 'I' for Inactive)
REMARK    1  A    between atoms: N_1  and  C_4
REMARK    2  A    between atoms: C_4  and  C_5
REMARK                            x       y       z     vdW  Elec       q    Type
REMARK                         _______ _______ _______ _____ _____    ______ ____
ROOT
ATOM      1  N   UNL     1      11.846   7.246  -3.793  0.00  0.00    -0.354 N 
ATOM      2  N   UNL     1      10.336   5.734  -2.900  0.00  0.00    -0.372 N 
ATOM      3  N   UNL     1      12.039   4.951  -4.223  0.00  0.00    -0.372 N 
ATOM      4  C   UNL     1      11.419   5.985  -3.646  0.00  0.00    +0.166 C 
ATOM      5  H   UNL     1      11.314   7.989  -3.354  0.00  0.00    +0.163 HD
ATOM      6  H   UNL     1       9.992   4.793  -2.768  0.00  0.00    +0.159 HD
ATOM      7  H   UNL     1       9.833   6.474  -2.425  0.00  0.00    +0.159 HD
ATOM      8  H   UNL     1      12.858   5.074  -4.803  0.00  0.00    +0.159 HD
ATOM      9  H   UNL     1      11.703   4.002  -4.112  0.00  0.00    +0.159 HD
ENDROOT
BRANCH   1  10
ATOM     10  C   UNL     1      13.045   7.621  -4.540  0.00  0.00    +0.151 C 
BRANCH  10  11
ATOM     11  C   UNL     1      12.894   9.033  -5.035  0.00  0.00    -0.028 A 
ATOM     12  C   UNL     1      14.020   9.854  -5.199  0.00  0.00    +0.005 A 
ATOM     13  C   UNL     1      11.629   9.554  -5.347  0.00  0.00    +0.005 A 
ATOM     14  C   UNL     1      13.883  11.156  -5.687  0.00  0.00    +0.000 A 
ATOM     15  C   UNL     1      11.497  10.855  -5.833  0.00  0.00    +0.000 A 
ATOM     16  C   UNL     1      12.624  11.655  -6.005  0.00  0.00    +0.000 A 
ENDBRANCH  10  11
ENDBRANCH   1  10
TORSDOF 2
ENDMDL
MODEL 7
REMARK VINA RESULT:    -4.689      3.447      4.168
REMARK INTER + INTRA:          -5.416
REMARK INTER:                  -5.291
REMARK INTRA:                  -0.125
REMARK UNBOUND:                -0.179
REMARK  Name = 1550473
REMARK  2 active torsions:
REMARK  status: ('A' for Active; 'I' for Inactive)
REMARK    1  A    between atoms: N_1  and  C_4
REMARK    2  A    between atoms: C_4  and  C_5
REMARK                            x       y       z     vdW  Elec       q    Type
REMARK                         _______ _______ _______ _____ _____    ______ ____
ROOT
ATOM      1  N   UNL     1      -5.120  -4.398  -1.383  0.00  0.00    -0.354 N 
ATOM      2  N   UNL     1      -7.035  -4.320  -0.082  0.00  0.00    -0.372 N 
ATOM      3  N   UNL     1      -7.005  -3.193  -2.081  0.00  0.00    -0.372 N 
ATOM      4  C   UNL     1      -6.375  -3.969  -1.192  0.00  0.00    +0.166 C 
ATOM      5  H   UNL     1      -4.688  -4.959  -0.657  0.00  0.00    +0.163 HD
ATOM      6  H   UNL     1      -7.984  -4.014   0.087  0.00  0.00    +0.159 HD
ATOM      7  H   UNL     1      -6.617  -4.918   0.620  0.00  0.00    +0.159 HD
ATOM      8  H   UNL     1      -6.559  -2.888  -2.936  0.00  0.00    +0.159 HD
ATOM      9  H   UNL     1      -7.950  -2.867  -1.923  0.00  0.00    +0.159 HD
ENDROOT
BRANCH   1  10
ATOM     10  C   UNL     1      -4.333  -4.117  -2.582  0.00  0.00    +0.151 C 
BRANCH  10  11
ATOM     11  C   UNL     1      -3.838  -5.415  -3.159  0.00  0.00    -0.028 A 
ATOM     12  C   UNL     1      -4.327  -5.879  -4.389  0.00  0.00    +0.005 A 
ATOM     13  C   UNL     1      -2.876  -6.182  -2.484  0.00  0.00    +0.005 A 
ATOM     14  C   UNL     1      -3.845  -7.069  -4.940  0.00  0.00    +0.000 A 
ATOM     15  C   UNL     1      -2.398  -7.369  -3.038  0.00  0.00    +0.000 A 
ATOM     16  C   UNL     1      -2.881  -7.812  -4.267  0.00  0.00    +0.000 A 
ENDBRANCH  10  11
ENDBRANCH   1  10
TORSDOF 2
ENDMDL
MODEL 8
REMARK VINA RESULT:    -4.654      2.805      4.828
REMARK INTER + INTRA:          -5.377
REMARK INTER:                  -5.234
REMARK INTRA:                  -0.143
REMARK UNBOUND:                -0.179
REMARK  Name = 1550473
REMARK  2 active torsions:
REMARK  status: ('A' for Active; 'I' for Inactive)
REMARK    1  A    between atoms: N_1  and  C_4
REMARK    2  A    between atoms: C_4  and  C_5
REMARK                            x       y       z     vdW  Elec       q    Type
REMARK                         _______ _______ _______ _____ _____    ______ ____
ROOT
ATOM      1  N   UNL     1      -4.537  -5.501  -3.403  0.00  0.00    -0.354 N 
ATOM      2  N   UNL     1      -3.241  -6.939  -2.131  0.00  0.00    -0.372 N 
ATOM      3  N   UNL     1      -4.245  -7.740  -4.033  0.00  0.00    -0.372 N 
ATOM      4  C   UNL     1      -4.017  -6.719  -3.199  0.00  0.00    +0.166 C 
ATOM      5  H   UNL     1      -4.351  -4.778  -2.718  0.00  0.00    +0.163 HD
ATOM      6  H   UNL     1      -2.832  -7.846  -1.953  0.00  0.00    +0.159 HD
ATOM      7  H   UNL     1      -3.019  -6.202  -1.473  0.00  0.00    +0.159 HD
ATOM      8  H   UNL     1      -4.827  -7.641  -4.854  0.00  0.00    +0.159 HD
ATOM      9  H   UNL     1      -3.854  -8.658  -3.865  0.00  0.00    +0.159 HD
ENDROOT
BRANCH   1  10
ATOM     10  C   UNL     1      -5.351  -5.143  -4.564  0.00  0.00    +0.151 C 
BRANCH  10  11
ATOM     11  C   UNL     1      -4.550  -4.250  -5.469  0.00  0.00    -0.028 A 
ATOM     12  C   UNL     1      -3.410  -3.587  -4.989  0.00  0.00    +0.005 A 
ATOM     13  C   UNL     1      -4.921  -4.067  -6.810  0.00  0.00    +0.005 A 
ATOM     14  C   UNL     1      -2.648  -2.781  -5.838  0.00  0.00    +0.000 A 
ATOM     15  C   UNL     1      -4.157  -3.260  -7.654  0.00  0.00    +0.000 A 
ATOM     16  C   UNL     1      -3.020  -2.620  -7.169  0.00  0.00    +0.000 A 
ENDBRANCH  10  11
ENDBRANCH   1  10
TORSDOF 2
ENDMDL
MODEL 9
REMARK VINA RESULT:    -4.589     48.248     49.410
REMARK INTER + INTRA:          -5.305
REMARK INTER:                  -5.183
REMARK INTRA:                  -0.122
REMARK UNBOUND:                -0.179
REMARK  Name = 1550473
REMARK  2 active torsions:
REMARK  status: ('A' for Active; 'I' for Inactive)
REMARK    1  A    between atoms: N_1  and  C_4
REMARK    2  A    between atoms: C_4  and  C_5
REMARK                            x       y       z     vdW  Elec       q    Type
REMARK                         _______ _______ _______ _____ _____    ______ ____
ROOT
ATOM      1  N   UNL     1       8.049  23.309  31.896  0.00  0.00    -0.354 N 
ATOM      2  N   UNL     1       9.297  21.705  30.785  0.00  0.00    -0.372 N 
ATOM      3  N   UNL     1       7.845  21.037  32.431  0.00  0.00    -0.372 N 
ATOM      4  C   UNL     1       8.387  22.026  31.713  0.00  0.00    +0.166 C 
ATOM      5  H   UNL     1       8.519  24.014  31.340  0.00  0.00    +0.163 HD
ATOM      6  H   UNL     1       9.570  20.745  30.623  0.00  0.00    +0.159 HD
ATOM      7  H   UNL     1       9.731  22.407  30.199  0.00  0.00    +0.159 HD
ATOM      8  H   UNL     1       7.157  21.213  33.151  0.00  0.00    +0.159 HD
ATOM      9  H   UNL     1       8.113  20.071  32.291  0.00  0.00    +0.159 HD
ENDROOT
BRANCH   1  10
ATOM     10  C   UNL     1       7.031  23.760  32.843  0.00  0.00    +0.151 C 
BRANCH  10  11
ATOM     11  C   UNL     1       7.272  25.207  33.171  0.00  0.00    -0.028 A 
ATOM     12  C   UNL     1       6.745  25.768  34.344  0.00  0.00    +0.005 A 
ATOM     13  C   UNL     1       8.030  26.022  32.317  0.00  0.00    +0.005 A 
ATOM     14  C   UNL     1       6.994  27.105  34.665  0.00  0.00    +0.000 A 
ATOM     15  C   UNL     1       8.276  27.356  32.640  0.00  0.00    +0.000 A 
ATOM     16  C   UNL     1       7.760  27.897  33.816  0.00  0.00    +0.000 A 
ENDBRANCH  10  11
ENDBRANCH   1  10
TORSDOF 2
ENDMDL
