MODEL 1
REMARK VINA RESULT:    -5.193      0.000      0.000
REMARK INTER + INTRA:          -5.918
REMARK INTER:                  -5.800
REMARK INTRA:                  -0.118
REMARK UNBOUND:                -0.118
REMARK  Name = 1550473
REMARK  2 active torsions:
REMARK  status: ('A' for Active; 'I' for Inactive)
REMARK    1  A    between atoms: N_1  and  C_4
REMARK    2  A    between atoms: C_4  and  C_5
REMARK                            x       y       z     vdW  Elec       q    Type
REMARK                         _______ _______ _______ _____ _____    ______ ____
ROOT
ATOM      1  N   UNL     1      22.159   3.103   7.107  0.00  0.00    -0.354 N 
ATOM      2  N   UNL     1      21.577   2.771   9.323  0.00  0.00    -0.372 N 
ATOM      3  N   UNL     1      22.943   4.535   8.788  0.00  0.00    -0.372 N 
ATOM      4  C   UNL     1      22.232   3.474   8.392  0.00  0.00    +0.166 C 
ATOM      5  H   UNL     1      21.629   2.271   6.875  0.00  0.00    +0.163 HD
ATOM      6  H   UNL     1      21.610   3.029  10.301  0.00  0.00    +0.159 HD
ATOM      7  H   UNL     1      21.010   1.967   9.084  0.00  0.00    +0.159 HD
ATOM      8  H   UNL     1      23.465   5.104   8.135  0.00  0.00    +0.159 HD
ATOM      9  H   UNL     1      22.998   4.803   9.763  0.00  0.00    +0.159 HD
ENDROOT
BRANCH   1  10
ATOM     10  C   UNL     1      22.791   3.831   6.008  0.00  0.00    +0.151 C 
BRANCH  10  11
ATOM     11  C   UNL     1      22.673   3.019   4.748  0.00  0.00    -0.028 A 
ATOM     12  C   UNL     1      21.655   2.065   4.608  0.00  0.00    +0.005 A 
ATOM     13  C   UNL     1      23.574   3.203   3.687  0.00  0.00    +0.005 A 
ATOM     14  C   UNL     1      21.526   1.332   3.426  0.00  0.00    +0.000 A 
ATOM     15  C   UNL     1      23.443   2.468   2.509  0.00  0.00    +0.000 A 
ATOM     16  C   UNL     1      22.418   1.535   2.378  0.00  0.00    +0.000 A 
ENDBRANCH  10  11
ENDBRANCH   1  10
TORSDOF 2
ENDMDL
MODEL 2
REMARK VINA RESULT:    -5.054      1.443      2.020
REMARK INTER + INTRA:          -5.763
REMARK INTER:                  -5.636
REMARK INTRA:                  -0.126
REMARK UNBOUND:                -0.118
REMARK  Name = 1550473
REMARK  2 active torsions:
REMARK  status: ('A' for Active; 'I' for Inactive)
REMARK    1  A    between atoms: N_1  and  C_4
REMARK    2  A    between atoms: C_4  and  C_5
REMARK                            x       y       z     vdW  Elec       q    Type
REMARK                         _______ _______ _______ _____ _____    ______ ____
ROOT
ATOM      1  N   UNL     1      22.950   3.885   6.494  0.00  0.00    -0.354 N 
ATOM      2  N   UNL     1      24.265   4.953   8.073  0.00  0.00    -0.372 N 
ATOM      3  N   UNL     1      22.119   4.363   8.632  0.00  0.00    -0.372 N 
ATOM      4  C   UNL     1      23.100   4.393   7.724  0.00  0.00    +0.166 C 
ATOM      5  H   UNL     1      23.722   3.967   5.842  0.00  0.00    +0.163 HD
ATOM      6  H   UNL     1      24.409   5.342   8.995  0.00  0.00    +0.159 HD
ATOM      7  H   UNL     1      25.050   4.992   7.434  0.00  0.00    +0.159 HD
ATOM      8  H   UNL     1      21.214   3.959   8.430  0.00  0.00    +0.159 HD
ATOM      9  H   UNL     1      22.240   4.757   9.557  0.00  0.00    +0.159 HD
ENDROOT
BRANCH   1  10
ATOM     10  C   UNL     1      21.741   3.206   6.032  0.00  0.00    +0.151 C 
BRANCH  10  11
ATOM     11  C   UNL     1      22.117   2.186   4.993  0.00  0.00    -0.028 A 
ATOM     12  C   UNL     1      23.327   1.484   5.090  0.00  0.00    +0.005 A 
ATOM     13  C   UNL     1      21.265   1.913   3.912  0.00  0.00    +0.005 A 
ATOM     14  C   UNL     1      23.663   0.515   4.141  0.00  0.00    +0.000 A 
ATOM     15  C   UNL     1      21.604   0.945   2.967  0.00  0.00    +0.000 A 
ATOM     16  C   UNL     1      22.802   0.244   3.083  0.00  0.00    +0.000 A 
ENDBRANCH  10  11
ENDBRANCH   1  10
TORSDOF 2
ENDMDL
MODEL 3
REMARK VINA RESULT:    -4.642      3.851      6.482
REMARK INTER + INTRA:          -5.303
REMARK INTER:                  -5.153
REMARK INTRA:                  -0.150
REMARK UNBOUND:                -0.118
REMARK  Name = 1550473
REMARK  2 active torsions:
REMARK  status: ('A' for Active; 'I' for Inactive)
REMARK    1  A    between atoms: N_1  and  C_4
REMARK    2  A    between atoms: C_4  and  C_5
REMARK                            x       y       z     vdW  Elec       q    Type
REMARK                         _______ _______ _______ _____ _____    ______ ____
ROOT
ATOM      1  N   UNL     1      22.993   3.891   9.377  0.00  0.00    -0.354 N 
ATOM      2  N   UNL     1      23.183   4.842   7.274  0.00  0.00    -0.372 N 
ATOM      3  N   UNL     1      21.555   3.267   7.636  0.00  0.00    -0.372 N 
ATOM      4  C   UNL     1      22.574   3.992   8.109  0.00  0.00    +0.166 C 
ATOM      5  H   UNL     1      23.791   4.446   9.666  0.00  0.00    +0.163 HD
ATOM      6  H   UNL     1      22.887   4.942   6.312  0.00  0.00    +0.159 HD
ATOM      7  H   UNL     1      23.950   5.429   7.578  0.00  0.00    +0.159 HD
ATOM      8  H   UNL     1      21.057   2.603   8.214  0.00  0.00    +0.159 HD
ATOM      9  H   UNL     1      21.251   3.344   6.674  0.00  0.00    +0.159 HD
ENDROOT
BRANCH   1  10
ATOM     10  C   UNL     1      22.364   3.035  10.381  0.00  0.00    +0.151 C 
BRANCH  10  11
ATOM     11  C   UNL     1      23.356   2.000  10.836  0.00  0.00    -0.028 A 
ATOM     12  C   UNL     1      24.733   2.250  10.755  0.00  0.00    +0.005 A 
ATOM     13  C   UNL     1      22.924   0.770  11.355  0.00  0.00    +0.005 A 
ATOM     14  C   UNL     1      25.655   1.302  11.205  0.00  0.00    +0.000 A 
ATOM     15  C   UNL     1      23.847  -0.175  11.803  0.00  0.00    +0.000 A 
ATOM     16  C   UNL     1      25.212   0.092  11.730  0.00  0.00    +0.000 A 
ENDBRANCH  10  11
ENDBRANCH   1  10
TORSDOF 2
ENDMDL
MODEL 4
REMARK VINA RESULT:    -4.463     12.828     13.931
REMARK INTER + INTRA:          -5.103
REMARK INTER:                  -4.946
REMARK INTRA:                  -0.157
REMARK UNBOUND:                -0.118
REMARK  Name = 1550473
REMARK  2 active torsions:
REMARK  status: ('A' for Active; 'I' for Inactive)
REMARK    1  A    between atoms: N_1  and  C_4
REMARK    2  A    between atoms: C_4  and  C_5
REMARK                            x       y       z     vdW  Elec       q    Type
REMARK                         _______ _______ _______ _____ _____    ______ ____
ROOT
ATOM      1  N   UNL     1      16.274  -9.853   4.490  0.00  0.00    -0.354 N 
ATOM      2  N   UNL     1      18.296  -9.888   5.619  0.00  0.00    -0.372 N 
ATOM      3  N   UNL     1      16.843  -8.152   5.999  0.00  0.00    -0.372 N 
ATOM      4  C   UNL     1      17.123  -9.295   5.363  0.00  0.00    +0.166 C 
ATOM      5  H   UNL     1      16.558 -10.704   4.019  0.00  0.00    +0.163 HD
ATOM      6  H   UNL     1      18.955  -9.492   6.275  0.00  0.00    +0.159 HD
ATOM      7  H   UNL     1      18.558 -10.762   5.181  0.00  0.00    +0.159 HD
ATOM      8  H   UNL     1      15.978  -7.652   5.845  0.00  0.00    +0.159 HD
ATOM      9  H   UNL     1      17.496  -7.734   6.650  0.00  0.00    +0.159 HD
ENDROOT
BRANCH   1  10
ATOM     10  C   UNL     1      14.949  -9.317   4.181  0.00  0.00    +0.151 C 
BRANCH  10  11
ATOM     11  C   UNL     1      14.917  -8.887   2.740  0.00  0.00    -0.028 A 
ATOM     12  C   UNL     1      15.698  -7.807   2.302  0.00  0.00    +0.005 A 
ATOM     13  C   UNL     1      14.113  -9.560   1.807  0.00  0.00    +0.005 A 
ATOM     14  C   UNL     1      15.691  -7.427   0.958  0.00  0.00    +0.000 A 
ATOM     15  C   UNL     1      14.109  -9.176   0.466  0.00  0.00    +0.000 A 
ATOM     16  C   UNL     1      14.900  -8.111   0.042  0.00  0.00    +0.000 A 
ENDBRANCH  10  11
ENDBRANCH   1  10
TORSDOF 2
ENDMDL
MODEL 5
REMARK VINA RESULT:    -4.455     14.046     15.842
REMARK INTER + INTRA:          -5.094
REMARK INTER:                  -4.965
REMARK INTRA:                  -0.129
REMARK UNBOUND:                -0.118
REMARK  Name = 1550473
REMARK  2 active torsions:
REMARK  status: ('A' for Active; 'I' for Inactive)
REMARK    1  A    between atoms: N_1  and  C_4
REMARK    2  A    between atoms: C_4  and  C_5
REMARK                            x       y       z     vdW  Elec       q    Type
REMARK                         _______ _______ _______ _____ _____    ______ ____
ROOT
ATOM      1  N   UNL     1      14.017  -8.163  -1.571  0.00  0.00    -0.354 N 
ATOM      2  N   UNL     1      14.223  -7.280  -3.702  0.00  0.00    -0.372 N 
ATOM      3  N   UNL     1      13.819  -9.527  -3.466  0.00  0.00    -0.372 N 
ATOM      4  C   UNL     1      14.018  -8.332  -2.900  0.00  0.00    +0.166 C 
ATOM      5  H   UNL     1      14.204  -7.237  -1.203  0.00  0.00    +0.163 HD
ATOM      6  H   UNL     1      14.226  -7.376  -4.708  0.00  0.00    +0.159 HD
ATOM      7  H   UNL     1      14.364  -6.348  -3.332  0.00  0.00    +0.159 HD
ATOM      8  H   UNL     1      13.664 -10.361  -2.916  0.00  0.00    +0.159 HD
ATOM      9  H   UNL     1      13.830  -9.645  -4.472  0.00  0.00    +0.159 HD
ENDROOT
BRANCH   1  10
ATOM     10  C   UNL     1      13.750  -9.233  -0.611  0.00  0.00    +0.151 C 
BRANCH  10  11
ATOM     11  C   UNL     1      14.398  -8.888   0.702  0.00  0.00    -0.028 A 
ATOM     12  C   UNL     1      15.361  -7.872   0.775  0.00  0.00    +0.005 A 
ATOM     13  C   UNL     1      14.048  -9.571   1.877  0.00  0.00    +0.005 A 
ATOM     14  C   UNL     1      15.942  -7.531   1.999  0.00  0.00    +0.000 A 
ATOM     15  C   UNL     1      14.631  -9.228   3.097  0.00  0.00    +0.000 A 
ATOM     16  C   UNL     1      15.576  -8.207   3.158  0.00  0.00    +0.000 A 
ENDBRANCH  10  11
ENDBRANCH   1  10
TORSDOF 2
ENDMDL
MODEL 6
REMARK VINA RESULT:    -4.392     19.313     20.801
REMARK INTER + INTRA:          -5.024
REMARK INTER:                  -4.920
REMARK INTRA:                  -0.104
REMARK UNBOUND:                -0.118
REMARK  Name = 1550473
REMARK  2 active torsions:
REMARK  status: ('A' for Active; 'I' for Inactive)
REMARK    1  A    between atoms: N_1  and  C_4
REMARK    2  A    between atoms: C_4  and  C_5
REMARK                            x       y       z     vdW  Elec       q    Type
REMARK                         _______ _______ _______ _____ _____    ______ ____
ROOT
ATOM      1  N   UNL     1      17.925  12.705  22.013  0.00  0.00    -0.354 N 
ATOM      2  N   UNL     1      17.808  13.390  19.804  0.00  0.00    -0.372 N 
ATOM      3  N   UNL     1      18.917  14.711  21.317  0.00  0.00    -0.372 N 
ATOM      4  C   UNL     1      18.219  13.600  21.060  0.00  0.00    +0.166 C 
ATOM      5  H   UNL     1      17.367  11.898  21.760  0.00  0.00    +0.163 HD
ATOM      6  H   UNL     1      18.017  14.046  19.063  0.00  0.00    +0.159 HD
ATOM      7  H   UNL     1      17.289  12.560  19.544  0.00  0.00    +0.159 HD
ATOM      8  H   UNL     1      19.251  14.931  22.246  0.00  0.00    +0.159 HD
ATOM      9  H   UNL     1      19.126  15.385  20.591  0.00  0.00    +0.159 HD
ENDROOT
BRANCH   1  10
ATOM     10  C   UNL     1      18.371  12.813  23.401  0.00  0.00    +0.151 C 
BRANCH  10  11
ATOM     11  C   UNL     1      18.085  11.518  24.111  0.00  0.00    -0.028 A 
ATOM     12  C   UNL     1      16.804  10.948  24.063  0.00  0.00    +0.005 A 
ATOM     13  C   UNL     1      19.092  10.853  24.827  0.00  0.00    +0.005 A 
ATOM     14  C   UNL     1      16.546   9.731  24.697  0.00  0.00    +0.000 A 
ATOM     15  C   UNL     1      18.829   9.638  25.460  0.00  0.00    +0.000 A 
ATOM     16  C   UNL     1      17.557   9.076  25.392  0.00  0.00    +0.000 A 
ENDBRANCH  10  11
ENDBRANCH   1  10
TORSDOF 2
ENDMDL
MODEL 7
REMARK VINA RESULT:    -4.203     29.016     29.804
REMARK INTER + INTRA:          -4.813
REMARK INTER:                  -4.792
REMARK INTRA:                  -0.021
REMARK UNBOUND:                -0.118
REMARK  Name = 1550473
REMARK  2 active torsions:
REMARK  status: ('A' for Active; 'I' for Inactive)
REMARK    1  A    between atoms: N_1  and  C_4
REMARK    2  A    between atoms: C_4  and  C_5
REMARK                            x       y       z     vdW  Elec       q    Type
REMARK                         _______ _______ _______ _____ _____    ______ ____
ROOT
ATOM      1  N   UNL     1      -1.274  -2.978  23.840  0.00  0.00    -0.354 N 
ATOM      2  N   UNL     1      -0.039  -1.293  24.841  0.00  0.00    -0.372 N 
ATOM      3  N   UNL     1      -0.066  -1.438  22.551  0.00  0.00    -0.372 N 
ATOM      4  C   UNL     1      -0.467  -1.914  23.735  0.00  0.00    +0.166 C 
ATOM      5  H   UNL     1      -1.517  -3.307  24.767  0.00  0.00    +0.163 HD
ATOM      6  H   UNL     1       0.568  -0.486  24.792  0.00  0.00    +0.159 HD
ATOM      7  H   UNL     1      -0.320  -1.597  25.765  0.00  0.00    +0.159 HD
ATOM      8  H   UNL     1      -0.349  -1.865  21.679  0.00  0.00    +0.159 HD
ATOM      9  H   UNL     1       0.551  -0.638  22.482  0.00  0.00    +0.159 HD
ENDROOT
BRANCH   1  10
ATOM     10  C   UNL     1      -1.839  -3.692  22.697  0.00  0.00    +0.151 C 
BRANCH  10  11
ATOM     11  C   UNL     1      -1.092  -4.983  22.506  0.00  0.00    -0.028 A 
ATOM     12  C   UNL     1      -1.698  -6.066  21.852  0.00  0.00    +0.005 A 
ATOM     13  C   UNL     1       0.224  -5.128  22.972  0.00  0.00    +0.005 A 
ATOM     14  C   UNL     1      -0.994  -7.256  21.648  0.00  0.00    +0.000 A 
ATOM     15  C   UNL     1       0.923  -6.318  22.767  0.00  0.00    +0.000 A 
ATOM     16  C   UNL     1       0.314  -7.380  22.103  0.00  0.00    +0.000 A 
ENDBRANCH  10  11
ENDBRANCH   1  10
TORSDOF 2
ENDMDL
MODEL 8
REMARK VINA RESULT:    -4.192     62.609     64.295
REMARK INTER + INTRA:          -4.800
REMARK INTER:                  -4.652
REMARK INTRA:                  -0.148
REMARK UNBOUND:                -0.118
REMARK  Name = 1550473
REMARK  2 active torsions:
REMARK  status: ('A' for Active; 'I' for Inactive)
REMARK    1  A    between atoms: N_1  and  C_4
REMARK    2  A    between atoms: C_4  and  C_5
REMARK                            x       y       z     vdW  Elec       q    Type
REMARK                         _______ _______ _______ _____ _____    ______ ____
ROOT
ATOM      1  N   UNL     1     -21.166 -24.751 -35.104  0.00  0.00    -0.354 N 
ATOM      2  N   UNL     1     -22.076 -23.439 -36.783  0.00  0.00    -0.372 N 
ATOM      3  N   UNL     1     -23.432 -24.155 -35.076  0.00  0.00    -0.372 N 
ATOM      4  C   UNL     1     -22.221 -24.124 -35.642  0.00  0.00    +0.166 C 
ATOM      5  H   UNL     1     -20.281 -24.714 -35.598  0.00  0.00    +0.163 HD
ATOM      6  H   UNL     1     -22.853 -22.954 -37.210  0.00  0.00    +0.159 HD
ATOM      7  H   UNL     1     -21.180 -23.366 -37.250  0.00  0.00    +0.159 HD
ATOM      8  H   UNL     1     -23.610 -24.660 -34.218  0.00  0.00    +0.159 HD
ATOM      9  H   UNL     1     -24.225 -23.685 -35.495  0.00  0.00    +0.159 HD
ENDROOT
BRANCH   1  10
ATOM     10  C   UNL     1     -21.205 -25.479 -33.837  0.00  0.00    +0.151 C 
BRANCH  10  11
ATOM     11  C   UNL     1     -20.232 -24.850 -32.879  0.00  0.00    -0.028 A 
ATOM     12  C   UNL     1     -19.165 -24.073 -33.355  0.00  0.00    +0.005 A 
ATOM     13  C   UNL     1     -20.374 -25.023 -31.494  0.00  0.00    +0.005 A 
ATOM     14  C   UNL     1     -18.278 -23.464 -32.464  0.00  0.00    +0.000 A 
ATOM     15  C   UNL     1     -19.486 -24.414 -30.607  0.00  0.00    +0.000 A 
ATOM     16  C   UNL     1     -18.440 -23.633 -31.092  0.00  0.00    +0.000 A 
ENDBRANCH  10  11
ENDBRANCH   1  10
TORSDOF 2
ENDMDL
MODEL 9
REMARK VINA RESULT:    -4.146      4.033      5.736
REMARK INTER + INTRA:          -4.749
REMARK INTER:                  -4.605
REMARK INTRA:                  -0.144
REMARK UNBOUND:                -0.118
REMARK  Name = 1550473
REMARK  2 active torsions:
REMARK  status: ('A' for Active; 'I' for Inactive)
REMARK    1  A    between atoms: N_1  and  C_4
REMARK    2  A    between atoms: C_4  and  C_5
REMARK                            x       y       z     vdW  Elec       q    Type
REMARK                         _______ _______ _______ _____ _____    ______ ____
ROOT
ATOM      1  N   UNL     1      24.476   3.514   7.355  0.00  0.00    -0.354 N 
ATOM      2  N   UNL     1      23.762   5.246   5.994  0.00  0.00    -0.372 N 
ATOM      3  N   UNL     1      24.974   5.743   7.878  0.00  0.00    -0.372 N 
ATOM      4  C   UNL     1      24.410   4.824   7.087  0.00  0.00    +0.166 C 
ATOM      5  H   UNL     1      24.002   2.870   6.732  0.00  0.00    +0.163 HD
ATOM      6  H   UNL     1      23.698   6.228   5.763  0.00  0.00    +0.159 HD
ATOM      7  H   UNL     1      23.329   4.597   5.348  0.00  0.00    +0.159 HD
ATOM      8  H   UNL     1      25.472   5.491   8.721  0.00  0.00    +0.159 HD
ATOM      9  H   UNL     1      24.911   6.732   7.671  0.00  0.00    +0.159 HD
ENDROOT
BRANCH   1  10
ATOM     10  C   UNL     1      25.203   2.947   8.490  0.00  0.00    +0.151 C 
BRANCH  10  11
ATOM     11  C   UNL     1      24.218   2.337   9.449  0.00  0.00    -0.028 A 
ATOM     12  C   UNL     1      23.246   3.133  10.073  0.00  0.00    +0.005 A 
ATOM     13  C   UNL     1      24.248   0.964   9.734  0.00  0.00    +0.005 A 
ATOM     14  C   UNL     1      22.311   2.562  10.940  0.00  0.00    +0.000 A 
ATOM     15  C   UNL     1      23.314   0.397  10.601  0.00  0.00    +0.000 A 
ATOM     16  C   UNL     1      22.345   1.196  11.202  0.00  0.00    +0.000 A 
ENDBRANCH  10  11
ENDBRANCH   1  10
TORSDOF 2
ENDMDL
