MODEL 1
REMARK VINA RESULT:    -5.630      0.000      0.000
REMARK INTER + INTRA:          -6.422
REMARK INTER:                  -6.288
REMARK INTRA:                  -0.134
REMARK UNBOUND:                -0.134
REMARK  Name = 1550473
REMARK  2 active torsions:
REMARK  status: ('A' for Active; 'I' for Inactive)
REMARK    1  A    between atoms: N_1  and  C_4
REMARK    2  A    between atoms: C_4  and  C_5
REMARK                            x       y       z     vdW  Elec       q    Type
REMARK                         _______ _______ _______ _____ _____    ______ ____
ROOT
ATOM      1  N   UNL     1       2.553  -8.046  -7.042  0.00  0.00    -0.354 N 
ATOM      2  N   UNL     1       1.990  -6.095  -8.155  0.00  0.00    -0.372 N 
ATOM      3  N   UNL     1       0.387  -7.161  -6.906  0.00  0.00    -0.372 N 
ATOM      4  C   UNL     1       1.644  -7.114  -7.359  0.00  0.00    +0.166 C 
ATOM      5  H   UNL     1       3.481  -7.970  -7.442  0.00  0.00    +0.163 HD
ATOM      6  H   UNL     1       1.327  -5.375  -8.408  0.00  0.00    +0.159 HD
ATOM      7  H   UNL     1       2.931  -5.996  -8.516  0.00  0.00    +0.159 HD
ATOM      8  H   UNL     1       0.062  -7.908  -6.306  0.00  0.00    +0.159 HD
ATOM      9  H   UNL     1      -0.294  -6.456  -7.158  0.00  0.00    +0.159 HD
ENDROOT
BRANCH   1  10
ATOM     10  C   UNL     1       2.294  -9.167  -6.140  0.00  0.00    +0.151 C 
BRANCH  10  11
ATOM     11  C   UNL     1       3.535  -9.451  -5.340  0.00  0.00    -0.028 A 
ATOM     12  C   UNL     1       4.532  -8.475  -5.202  0.00  0.00    +0.005 A 
ATOM     13  C   UNL     1       3.717 -10.693  -4.711  0.00  0.00    +0.005 A 
ATOM     14  C   UNL     1       5.671  -8.727  -4.434  0.00  0.00    +0.000 A 
ATOM     15  C   UNL     1       4.856 -10.941  -3.946  0.00  0.00    +0.000 A 
ATOM     16  C   UNL     1       5.832  -9.958  -3.806  0.00  0.00    +0.000 A 
ENDBRANCH  10  11
ENDBRANCH   1  10
TORSDOF 2
ENDMDL
MODEL 2
REMARK VINA RESULT:    -5.545      1.378      1.630
REMARK INTER + INTRA:          -6.327
REMARK INTER:                  -6.165
REMARK INTRA:                  -0.162
REMARK UNBOUND:                -0.134
REMARK  Name = 1550473
REMARK  2 active torsions:
REMARK  status: ('A' for Active; 'I' for Inactive)
REMARK    1  A    between atoms: N_1  and  C_4
REMARK    2  A    between atoms: C_4  and  C_5
REMARK                            x       y       z     vdW  Elec       q    Type
REMARK                         _______ _______ _______ _____ _____    ______ ____
ROOT
ATOM      1  N   UNL     1       2.935  -9.549  -7.802  0.00  0.00    -0.354 N 
ATOM      2  N   UNL     1       3.558  -8.787  -9.898  0.00  0.00    -0.372 N 
ATOM      3  N   UNL     1       2.614  -7.311  -8.417  0.00  0.00    -0.372 N 
ATOM      4  C   UNL     1       3.030  -8.551  -8.691  0.00  0.00    +0.166 C 
ATOM      5  H   UNL     1       3.242 -10.474  -8.081  0.00  0.00    +0.163 HD
ATOM      6  H   UNL     1       3.646  -8.053 -10.588  0.00  0.00    +0.159 HD
ATOM      7  H   UNL     1       3.906  -9.702 -10.158  0.00  0.00    +0.159 HD
ATOM      8  H   UNL     1       2.200  -7.069  -7.526  0.00  0.00    +0.159 HD
ATOM      9  H   UNL     1       2.682  -6.566  -9.099  0.00  0.00    +0.159 HD
ENDROOT
BRANCH   1  10
ATOM     10  C   UNL     1       2.426  -9.386  -6.441  0.00  0.00    +0.151 C 
BRANCH  10  11
ATOM     11  C   UNL     1       3.571  -9.490  -5.472  0.00  0.00    -0.028 A 
ATOM     12  C   UNL     1       4.450  -8.413  -5.290  0.00  0.00    +0.005 A 
ATOM     13  C   UNL     1       3.778 -10.662  -4.728  0.00  0.00    +0.005 A 
ATOM     14  C   UNL     1       5.496  -8.498  -4.368  0.00  0.00    +0.000 A 
ATOM     15  C   UNL     1       4.824 -10.743  -3.808  0.00  0.00    +0.000 A 
ATOM     16  C   UNL     1       5.681  -9.661  -3.627  0.00  0.00    +0.000 A 
ENDBRANCH  10  11
ENDBRANCH   1  10
TORSDOF 2
ENDMDL
MODEL 3
REMARK VINA RESULT:    -5.494      1.180      2.049
REMARK INTER + INTRA:          -6.270
REMARK INTER:                  -6.164
REMARK INTRA:                  -0.106
REMARK UNBOUND:                -0.134
REMARK  Name = 1550473
REMARK  2 active torsions:
REMARK  status: ('A' for Active; 'I' for Inactive)
REMARK    1  A    between atoms: N_1  and  C_4
REMARK    2  A    between atoms: C_4  and  C_5
REMARK                            x       y       z     vdW  Elec       q    Type
REMARK                         _______ _______ _______ _____ _____    ______ ____
ROOT
ATOM      1  N   UNL     1       2.755  -9.012  -7.171  0.00  0.00    -0.354 N 
ATOM      2  N   UNL     1       2.287  -9.083  -9.438  0.00  0.00    -0.372 N 
ATOM      3  N   UNL     1       2.334  -7.048  -8.379  0.00  0.00    -0.372 N 
ATOM      4  C   UNL     1       2.461  -8.378  -8.314  0.00  0.00    +0.166 C 
ATOM      5  H   UNL     1       2.808 -10.024  -7.182  0.00  0.00    +0.163 HD
ATOM      6  H   UNL     1       2.068  -8.632 -10.316  0.00  0.00    +0.159 HD
ATOM      7  H   UNL     1       2.386 -10.091  -9.455  0.00  0.00    +0.159 HD
ATOM      8  H   UNL     1       2.447  -6.459  -7.565  0.00  0.00    +0.159 HD
ATOM      9  H   UNL     1       2.103  -6.579  -9.246  0.00  0.00    +0.159 HD
ENDROOT
BRANCH   1  10
ATOM     10  C   UNL     1       3.017  -8.333  -5.903  0.00  0.00    +0.151 C 
BRANCH  10  11
ATOM     11  C   UNL     1       4.012  -9.136  -5.112  0.00  0.00    -0.028 A 
ATOM     12  C   UNL     1       3.760 -10.482  -4.809  0.00  0.00    +0.005 A 
ATOM     13  C   UNL     1       5.211  -8.559  -4.667  0.00  0.00    +0.005 A 
ATOM     14  C   UNL     1       4.697 -11.237  -4.100  0.00  0.00    +0.000 A 
ATOM     15  C   UNL     1       6.144  -9.316  -3.958  0.00  0.00    +0.000 A 
ATOM     16  C   UNL     1       5.888 -10.656  -3.677  0.00  0.00    +0.000 A 
ENDBRANCH  10  11
ENDBRANCH   1  10
TORSDOF 2
ENDMDL
MODEL 4
REMARK VINA RESULT:    -5.108      3.642      5.494
REMARK INTER + INTRA:          -5.839
REMARK INTER:                  -5.668
REMARK INTRA:                  -0.171
REMARK UNBOUND:                -0.134
REMARK  Name = 1550473
REMARK  2 active torsions:
REMARK  status: ('A' for Active; 'I' for Inactive)
REMARK    1  A    between atoms: N_1  and  C_4
REMARK    2  A    between atoms: C_4  and  C_5
REMARK                            x       y       z     vdW  Elec       q    Type
REMARK                         _______ _______ _______ _____ _____    ______ ____
ROOT
ATOM      1  N   UNL     1       2.497  -7.462  -8.478  0.00  0.00    -0.354 N 
ATOM      2  N   UNL     1       3.796  -8.864  -9.787  0.00  0.00    -0.372 N 
ATOM      3  N   UNL     1       3.656  -9.266  -7.532  0.00  0.00    -0.372 N 
ATOM      4  C   UNL     1       3.308  -8.523  -8.588  0.00  0.00    +0.166 C 
ATOM      5  H   UNL     1       2.296  -6.921  -9.312  0.00  0.00    +0.163 HD
ATOM      6  H   UNL     1       4.407  -9.661  -9.901  0.00  0.00    +0.159 HD
ATOM      7  H   UNL     1       3.556  -8.349 -10.625  0.00  0.00    +0.159 HD
ATOM      8  H   UNL     1       3.327  -9.058  -6.599  0.00  0.00    +0.159 HD
ATOM      9  H   UNL     1       4.276 -10.061  -7.624  0.00  0.00    +0.159 HD
ENDROOT
BRANCH   1  10
ATOM     10  C   UNL     1       1.870  -7.038  -7.227  0.00  0.00    +0.151 C 
BRANCH  10  11
ATOM     11  C   UNL     1       0.398  -7.341  -7.288  0.00  0.00    -0.028 A 
ATOM     12  C   UNL     1      -0.520  -6.343  -7.646  0.00  0.00    +0.005 A 
ATOM     13  C   UNL     1      -0.084  -8.626  -6.995  0.00  0.00    +0.005 A 
ATOM     14  C   UNL     1      -1.884  -6.632  -7.732  0.00  0.00    +0.000 A 
ATOM     15  C   UNL     1      -1.446  -8.910  -7.082  0.00  0.00    +0.000 A 
ATOM     16  C   UNL     1      -2.346  -7.914  -7.452  0.00  0.00    +0.000 A 
ENDBRANCH  10  11
ENDBRANCH   1  10
TORSDOF 2
ENDMDL
MODEL 5
REMARK VINA RESULT:    -5.003      7.472     10.585
REMARK INTER + INTRA:          -5.722
REMARK INTER:                  -5.588
REMARK INTRA:                  -0.133
REMARK UNBOUND:                -0.134
REMARK  Name = 1550473
REMARK  2 active torsions:
REMARK  status: ('A' for Active; 'I' for Inactive)
REMARK    1  A    between atoms: N_1  and  C_4
REMARK    2  A    between atoms: C_4  and  C_5
REMARK                            x       y       z     vdW  Elec       q    Type
REMARK                         _______ _______ _______ _____ _____    ______ ____
ROOT
ATOM      1  N   UNL     1      -3.876  -7.854  -8.083  0.00  0.00    -0.354 N 
ATOM      2  N   UNL     1      -1.903  -7.401  -6.957  0.00  0.00    -0.372 N 
ATOM      3  N   UNL     1      -3.308  -9.015  -6.128  0.00  0.00    -0.372 N 
ATOM      4  C   UNL     1      -3.043  -8.095  -7.062  0.00  0.00    +0.166 C 
ATOM      5  H   UNL     1      -3.632  -7.122  -8.740  0.00  0.00    +0.163 HD
ATOM      6  H   UNL     1      -1.253  -7.564  -6.200  0.00  0.00    +0.159 HD
ATOM      7  H   UNL     1      -1.640  -6.702  -7.641  0.00  0.00    +0.159 HD
ATOM      8  H   UNL     1      -4.154  -9.569  -6.147  0.00  0.00    +0.159 HD
ATOM      9  H   UNL     1      -2.675  -9.184  -5.356  0.00  0.00    +0.159 HD
ENDROOT
BRANCH   1  10
ATOM     10  C   UNL     1      -5.116  -8.591  -8.318  0.00  0.00    +0.151 C 
BRANCH  10  11
ATOM     11  C   UNL     1      -6.170  -7.636  -8.806  0.00  0.00    -0.028 A 
ATOM     12  C   UNL     1      -7.519  -8.018  -8.834  0.00  0.00    +0.005 A 
ATOM     13  C   UNL     1      -5.827  -6.345  -9.237  0.00  0.00    +0.005 A 
ATOM     14  C   UNL     1      -8.502  -7.121  -9.260  0.00  0.00    +0.000 A 
ATOM     15  C   UNL     1      -6.811  -5.453  -9.662  0.00  0.00    +0.000 A 
ATOM     16  C   UNL     1      -8.149  -5.840  -9.671  0.00  0.00    +0.000 A 
ENDBRANCH  10  11
ENDBRANCH   1  10
TORSDOF 2
ENDMDL
MODEL 6
REMARK VINA RESULT:    -4.855     24.053     24.943
REMARK INTER + INTRA:          -5.557
REMARK INTER:                  -5.426
REMARK INTRA:                  -0.130
REMARK UNBOUND:                -0.134
REMARK  Name = 1550473
REMARK  2 active torsions:
REMARK  status: ('A' for Active; 'I' for Inactive)
REMARK    1  A    between atoms: N_1  and  C_4
REMARK    2  A    between atoms: C_4  and  C_5
REMARK                            x       y       z     vdW  Elec       q    Type
REMARK                         _______ _______ _______ _____ _____    ______ ____
ROOT
ATOM      1  N   UNL     1     -11.641  10.265   0.862  0.00  0.00    -0.354 N 
ATOM      2  N   UNL     1      -9.538  10.947   0.169  0.00  0.00    -0.372 N 
ATOM      3  N   UNL     1     -10.161  11.313   2.347  0.00  0.00    -0.372 N 
ATOM      4  C   UNL     1     -10.461  10.838   1.133  0.00  0.00    +0.166 C 
ATOM      5  H   UNL     1     -11.817   9.953  -0.086  0.00  0.00    +0.163 HD
ATOM      6  H   UNL     1      -8.638  11.372   0.345  0.00  0.00    +0.159 HD
ATOM      7  H   UNL     1      -9.700  10.592  -0.765  0.00  0.00    +0.159 HD
ATOM      8  H   UNL     1     -10.816  11.267   3.117  0.00  0.00    +0.159 HD
ATOM      9  H   UNL     1      -9.270  11.752   2.540  0.00  0.00    +0.159 HD
ENDROOT
BRANCH   1  10
ATOM     10  C   UNL     1     -12.692  10.050   1.854  0.00  0.00    +0.151 C 
BRANCH  10  11
ATOM     11  C   UNL     1     -13.213   8.645   1.721  0.00  0.00    -0.028 A 
ATOM     12  C   UNL     1     -13.244   8.013   0.470  0.00  0.00    +0.005 A 
ATOM     13  C   UNL     1     -13.671   7.939   2.844  0.00  0.00    +0.005 A 
ATOM     14  C   UNL     1     -13.699   6.698   0.350  0.00  0.00    +0.000 A 
ATOM     15  C   UNL     1     -14.126   6.626   2.720  0.00  0.00    +0.000 A 
ATOM     16  C   UNL     1     -14.137   6.005   1.474  0.00  0.00    +0.000 A 
ENDBRANCH  10  11
ENDBRANCH   1  10
TORSDOF 2
ENDMDL
MODEL 7
REMARK VINA RESULT:    -4.828     12.345     13.166
REMARK INTER + INTRA:          -5.527
REMARK INTER:                  -5.392
REMARK INTRA:                  -0.135
REMARK UNBOUND:                -0.134
REMARK  Name = 1550473
REMARK  2 active torsions:
REMARK  status: ('A' for Active; 'I' for Inactive)
REMARK    1  A    between atoms: N_1  and  C_4
REMARK    2  A    between atoms: C_4  and  C_5
REMARK                            x       y       z     vdW  Elec       q    Type
REMARK                         _______ _______ _______ _____ _____    ______ ____
ROOT
ATOM      1  N   UNL     1      -7.069  -3.828 -13.352  0.00  0.00    -0.354 N 
ATOM      2  N   UNL     1      -5.906  -2.068 -14.309  0.00  0.00    -0.372 N 
ATOM      3  N   UNL     1      -5.547  -4.194 -15.095  0.00  0.00    -0.372 N 
ATOM      4  C   UNL     1      -6.180  -3.377 -14.247  0.00  0.00    +0.166 C 
ATOM      5  H   UNL     1      -7.493  -3.161 -12.717  0.00  0.00    +0.163 HD
ATOM      6  H   UNL     1      -5.242  -1.698 -14.976  0.00  0.00    +0.159 HD
ATOM      7  H   UNL     1      -6.365  -1.399 -13.704  0.00  0.00    +0.159 HD
ATOM      8  H   UNL     1      -5.705  -5.192 -15.096  0.00  0.00    +0.159 HD
ATOM      9  H   UNL     1      -4.870  -3.844 -15.763  0.00  0.00    +0.159 HD
ENDROOT
BRANCH   1  10
ATOM     10  C   UNL     1      -7.479  -5.227 -13.239  0.00  0.00    +0.151 C 
BRANCH  10  11
ATOM     11  C   UNL     1      -7.662  -5.569 -11.787  0.00  0.00    -0.028 A 
ATOM     12  C   UNL     1      -6.931  -4.895 -10.798  0.00  0.00    +0.005 A 
ATOM     13  C   UNL     1      -8.570  -6.564 -11.392  0.00  0.00    +0.005 A 
ATOM     14  C   UNL     1      -7.123  -5.192  -9.447  0.00  0.00    +0.000 A 
ATOM     15  C   UNL     1      -8.759  -6.858 -10.042  0.00  0.00    +0.000 A 
ATOM     16  C   UNL     1      -8.037  -6.170  -9.069  0.00  0.00    +0.000 A 
ENDBRANCH  10  11
ENDBRANCH   1  10
TORSDOF 2
ENDMDL
MODEL 8
REMARK VINA RESULT:    -4.718      4.790      6.508
REMARK INTER + INTRA:          -5.403
REMARK INTER:                  -5.275
REMARK INTRA:                  -0.128
REMARK UNBOUND:                -0.134
REMARK  Name = 1550473
REMARK  2 active torsions:
REMARK  status: ('A' for Active; 'I' for Inactive)
REMARK    1  A    between atoms: N_1  and  C_4
REMARK    2  A    between atoms: C_4  and  C_5
REMARK                            x       y       z     vdW  Elec       q    Type
REMARK                         _______ _______ _______ _____ _____    ______ ____
ROOT
ATOM      1  N   UNL     1      -3.716  -6.574  -7.741  0.00  0.00    -0.354 N 
ATOM      2  N   UNL     1      -5.633  -5.384  -8.263  0.00  0.00    -0.372 N 
ATOM      3  N   UNL     1      -5.449  -7.557  -8.974  0.00  0.00    -0.372 N 
ATOM      4  C   UNL     1      -4.920  -6.515  -8.324  0.00  0.00    +0.166 C 
ATOM      5  H   UNL     1      -3.358  -5.740  -7.289  0.00  0.00    +0.163 HD
ATOM      6  H   UNL     1      -6.546  -5.311  -8.690  0.00  0.00    +0.159 HD
ATOM      7  H   UNL     1      -5.293  -4.566  -7.771  0.00  0.00    +0.159 HD
ATOM      8  H   UNL     1      -4.959  -8.438  -9.062  0.00  0.00    +0.159 HD
ATOM      9  H   UNL     1      -6.356  -7.500  -9.419  0.00  0.00    +0.159 HD
ENDROOT
BRANCH   1  10
ATOM     10  C   UNL     1      -2.883  -7.775  -7.704  0.00  0.00    +0.151 C 
BRANCH  10  11
ATOM     11  C   UNL     1      -1.447  -7.371  -7.507  0.00  0.00    -0.028 A 
ATOM     12  C   UNL     1      -0.470  -8.335  -7.221  0.00  0.00    +0.005 A 
ATOM     13  C   UNL     1      -1.058  -6.027  -7.611  0.00  0.00    +0.005 A 
ATOM     14  C   UNL     1       0.868  -7.965  -7.067  0.00  0.00    +0.000 A 
ATOM     15  C   UNL     1       0.279  -5.661  -7.456  0.00  0.00    +0.000 A 
ATOM     16  C   UNL     1       1.242  -6.630  -7.187  0.00  0.00    +0.000 A 
ENDBRANCH  10  11
ENDBRANCH   1  10
TORSDOF 2
ENDMDL
MODEL 9
REMARK VINA RESULT:    -4.526     14.155     15.400
REMARK INTER + INTRA:          -5.189
REMARK INTER:                  -5.070
REMARK INTRA:                  -0.119
REMARK UNBOUND:                -0.134
REMARK  Name = 1550473
REMARK  2 active torsions:
REMARK  status: ('A' for Active; 'I' for Inactive)
REMARK    1  A    between atoms: N_1  and  C_4
REMARK    2  A    between atoms: C_4  and  C_5
REMARK                            x       y       z     vdW  Elec       q    Type
REMARK                         _______ _______ _______ _____ _____    ______ ____
ROOT
ATOM      1  N   UNL     1      -5.716  -5.464 -18.202  0.00  0.00    -0.354 N 
ATOM      2  N   UNL     1      -4.514  -4.872 -20.091  0.00  0.00    -0.372 N 
ATOM      3  N   UNL     1      -6.571  -5.856 -20.349  0.00  0.00    -0.372 N 
ATOM      4  C   UNL     1      -5.610  -5.402 -19.536  0.00  0.00    +0.166 C 
ATOM      5  H   UNL     1      -4.940  -5.131 -17.642  0.00  0.00    +0.163 HD
ATOM      6  H   UNL     1      -4.407  -4.809 -21.095  0.00  0.00    +0.159 HD
ATOM      7  H   UNL     1      -3.760  -4.498 -19.528  0.00  0.00    +0.159 HD
ATOM      8  H   UNL     1      -7.420  -6.273 -19.993  0.00  0.00    +0.159 HD
ATOM      9  H   UNL     1      -6.477  -5.812 -21.356  0.00  0.00    +0.159 HD
ENDROOT
BRANCH   1  10
ATOM     10  C   UNL     1      -6.892  -5.973 -17.498  0.00  0.00    +0.151 C 
BRANCH  10  11
ATOM     11  C   UNL     1      -6.845  -5.513 -16.067  0.00  0.00    -0.028 A 
ATOM     12  C   UNL     1      -7.286  -6.353 -15.034  0.00  0.00    +0.005 A 
ATOM     13  C   UNL     1      -6.355  -4.240 -15.737  0.00  0.00    +0.005 A 
ATOM     14  C   UNL     1      -7.214  -5.937 -13.702  0.00  0.00    +0.000 A 
ATOM     15  C   UNL     1      -6.286  -3.828 -14.406  0.00  0.00    +0.000 A 
ATOM     16  C   UNL     1      -6.713  -4.678 -13.389  0.00  0.00    +0.000 A 
ENDBRANCH  10  11
ENDBRANCH   1  10
TORSDOF 2
ENDMDL
