MODEL 1
REMARK VINA RESULT:    -5.350      0.000      0.000
REMARK INTER + INTRA:          -6.100
REMARK INTER:                  -5.975
REMARK INTRA:                  -0.125
REMARK UNBOUND:                -0.125
REMARK  Name = 1550473
REMARK  2 active torsions:
REMARK  status: ('A' for Active; 'I' for Inactive)
REMARK    1  A    between atoms: N_1  and  C_4
REMARK    2  A    between atoms: C_4  and  C_5
REMARK                            x       y       z     vdW  Elec       q    Type
REMARK                         _______ _______ _______ _____ _____    ______ ____
ROOT
ATOM      1  N   UNL     1     -11.092   7.359  14.044  0.00  0.00    -0.354 N 
ATOM      2  N   UNL     1      -9.994   9.398  14.103  0.00  0.00    -0.372 N 
ATOM      3  N   UNL     1      -8.775   7.473  14.374  0.00  0.00    -0.372 N 
ATOM      4  C   UNL     1      -9.959   8.061  14.174  0.00  0.00    +0.166 C 
ATOM      5  H   UNL     1     -11.961   7.866  13.924  0.00  0.00    +0.163 HD
ATOM      6  H   UNL     1      -9.155   9.954  14.194  0.00  0.00    +0.159 HD
ATOM      7  H   UNL     1     -10.858   9.900  13.937  0.00  0.00    +0.159 HD
ATOM      8  H   UNL     1      -8.681   6.468  14.443  0.00  0.00    +0.159 HD
ATOM      9  H   UNL     1      -7.925   8.013  14.479  0.00  0.00    +0.159 HD
ENDROOT
BRANCH   1  10
ATOM     10  C   UNL     1     -11.155   5.899  14.052  0.00  0.00    +0.151 C 
BRANCH  10  11
ATOM     11  C   UNL     1     -12.500   5.468  14.566  0.00  0.00    -0.028 A 
ATOM     12  C   UNL     1     -13.114   6.159  15.621  0.00  0.00    +0.005 A 
ATOM     13  C   UNL     1     -13.169   4.372  14.000  0.00  0.00    +0.005 A 
ATOM     14  C   UNL     1     -14.378   5.778  16.079  0.00  0.00    +0.000 A 
ATOM     15  C   UNL     1     -14.430   3.994  14.460  0.00  0.00    +0.000 A 
ATOM     16  C   UNL     1     -15.035   4.698  15.498  0.00  0.00    +0.000 A 
ENDBRANCH  10  11
ENDBRANCH   1  10
TORSDOF 2
ENDMDL
MODEL 2
REMARK VINA RESULT:    -5.075      0.802      1.940
REMARK INTER + INTRA:          -5.794
REMARK INTER:                  -5.653
REMARK INTRA:                  -0.140
REMARK UNBOUND:                -0.125
REMARK  Name = 1550473
REMARK  2 active torsions:
REMARK  status: ('A' for Active; 'I' for Inactive)
REMARK    1  A    between atoms: N_1  and  C_4
REMARK    2  A    between atoms: C_4  and  C_5
REMARK                            x       y       z     vdW  Elec       q    Type
REMARK                         _______ _______ _______ _____ _____    ______ ____
ROOT
ATOM      1  N   UNL     1     -10.872   6.954  14.977  0.00  0.00    -0.354 N 
ATOM      2  N   UNL     1      -8.772   7.526  14.188  0.00  0.00    -0.372 N 
ATOM      3  N   UNL     1     -10.546   8.901  13.715  0.00  0.00    -0.372 N 
ATOM      4  C   UNL     1     -10.079   7.792  14.297  0.00  0.00    +0.166 C 
ATOM      5  H   UNL     1     -10.462   6.114  15.370  0.00  0.00    +0.163 HD
ATOM      6  H   UNL     1      -8.147   8.142  13.683  0.00  0.00    +0.159 HD
ATOM      7  H   UNL     1      -8.356   6.710  14.620  0.00  0.00    +0.159 HD
ATOM      8  H   UNL     1     -11.524   9.156  13.756  0.00  0.00    +0.159 HD
ATOM      9  H   UNL     1      -9.940   9.524  13.196  0.00  0.00    +0.159 HD
ENDROOT
BRANCH   1  10
ATOM     10  C   UNL     1     -12.299   7.180  15.201  0.00  0.00    +0.151 C 
BRANCH  10  11
ATOM     11  C   UNL     1     -13.049   5.910  14.907  0.00  0.00    -0.028 A 
ATOM     12  C   UNL     1     -12.614   5.045  13.893  0.00  0.00    +0.005 A 
ATOM     13  C   UNL     1     -14.193   5.564  15.643  0.00  0.00    +0.005 A 
ATOM     14  C   UNL     1     -13.294   3.851  13.639  0.00  0.00    +0.000 A 
ATOM     15  C   UNL     1     -14.869   4.371  15.386  0.00  0.00    +0.000 A 
ATOM     16  C   UNL     1     -14.417   3.514  14.386  0.00  0.00    +0.000 A 
ENDBRANCH  10  11
ENDBRANCH   1  10
TORSDOF 2
ENDMDL
MODEL 3
REMARK VINA RESULT:    -5.040     21.034     21.779
REMARK INTER + INTRA:          -5.754
REMARK INTER:                  -5.617
REMARK INTRA:                  -0.138
REMARK UNBOUND:                -0.125
REMARK  Name = 1550473
REMARK  2 active torsions:
REMARK  status: ('A' for Active; 'I' for Inactive)
REMARK    1  A    between atoms: N_1  and  C_4
REMARK    2  A    between atoms: C_4  and  C_5
REMARK                            x       y       z     vdW  Elec       q    Type
REMARK                         _______ _______ _______ _____ _____    ______ ____
ROOT
ATOM      1  N   UNL     1       2.771  -7.223  19.639  0.00  0.00    -0.354 N 
ATOM      2  N   UNL     1       3.879  -5.298  20.298  0.00  0.00    -0.372 N 
ATOM      3  N   UNL     1       3.826  -7.092  21.728  0.00  0.00    -0.372 N 
ATOM      4  C   UNL     1       3.485  -6.552  20.553  0.00  0.00    +0.166 C 
ATOM      5  H   UNL     1       2.519  -6.746  18.781  0.00  0.00    +0.163 HD
ATOM      6  H   UNL     1       4.421  -4.768  20.967  0.00  0.00    +0.159 HD
ATOM      7  H   UNL     1       3.665  -4.841  19.420  0.00  0.00    +0.159 HD
ATOM      8  H   UNL     1       3.555  -8.032  21.984  0.00  0.00    +0.159 HD
ATOM      9  H   UNL     1       4.359  -6.573  22.415  0.00  0.00    +0.159 HD
ENDROOT
BRANCH   1  10
ATOM     10  C   UNL     1       2.339  -8.610  19.797  0.00  0.00    +0.151 C 
BRANCH  10  11
ATOM     11  C   UNL     1       2.520  -9.332  18.490  0.00  0.00    -0.028 A 
ATOM     12  C   UNL     1       3.356  -8.805  17.495  0.00  0.00    +0.005 A 
ATOM     13  C   UNL     1       1.862 -10.547  18.243  0.00  0.00    +0.005 A 
ATOM     14  C   UNL     1       3.547  -9.490  16.293  0.00  0.00    +0.000 A 
ATOM     15  C   UNL     1       2.055 -11.227  17.041  0.00  0.00    +0.000 A 
ATOM     16  C   UNL     1       2.899 -10.700  16.067  0.00  0.00    +0.000 A 
ENDBRANCH  10  11
ENDBRANCH   1  10
TORSDOF 2
ENDMDL
MODEL 4
REMARK VINA RESULT:    -4.873     17.972     18.876
REMARK INTER + INTRA:          -5.568
REMARK INTER:                  -5.404
REMARK INTRA:                  -0.165
REMARK UNBOUND:                -0.125
REMARK  Name = 1550473
REMARK  2 active torsions:
REMARK  status: ('A' for Active; 'I' for Inactive)
REMARK    1  A    between atoms: N_1  and  C_4
REMARK    2  A    between atoms: C_4  and  C_5
REMARK                            x       y       z     vdW  Elec       q    Type
REMARK                         _______ _______ _______ _____ _____    ______ ____
ROOT
ATOM      1  N   UNL     1      -5.905  -9.824  17.236  0.00  0.00    -0.354 N 
ATOM      2  N   UNL     1      -4.041  -9.244  15.990  0.00  0.00    -0.372 N 
ATOM      3  N   UNL     1      -3.742 -10.254  18.028  0.00  0.00    -0.372 N 
ATOM      4  C   UNL     1      -4.573  -9.779  17.095  0.00  0.00    +0.166 C 
ATOM      5  H   UNL     1      -6.480  -9.420  16.506  0.00  0.00    +0.163 HD
ATOM      6  H   UNL     1      -3.040  -9.199  15.854  0.00  0.00    +0.159 HD
ATOM      7  H   UNL     1      -4.619  -8.883  15.241  0.00  0.00    +0.159 HD
ATOM      8  H   UNL     1      -4.080 -10.665  18.888  0.00  0.00    +0.159 HD
ATOM      9  H   UNL     1      -2.737 -10.207  17.916  0.00  0.00    +0.159 HD
ENDROOT
BRANCH   1  10
ATOM     10  C   UNL     1      -6.586 -10.434  18.376  0.00  0.00    +0.151 C 
BRANCH  10  11
ATOM     11  C   UNL     1      -7.304 -11.673  17.915  0.00  0.00    -0.028 A 
ATOM     12  C   UNL     1      -6.596 -12.861  17.683  0.00  0.00    +0.005 A 
ATOM     13  C   UNL     1      -8.693 -11.666  17.714  0.00  0.00    +0.005 A 
ATOM     14  C   UNL     1      -7.266 -14.020  17.284  0.00  0.00    +0.000 A 
ATOM     15  C   UNL     1      -9.358 -12.825  17.315  0.00  0.00    +0.000 A 
ATOM     16  C   UNL     1      -8.644 -14.002  17.102  0.00  0.00    +0.000 A 
ENDBRANCH  10  11
ENDBRANCH   1  10
TORSDOF 2
ENDMDL
MODEL 5
REMARK VINA RESULT:    -4.819     20.901     22.218
REMARK INTER + INTRA:          -5.508
REMARK INTER:                  -5.369
REMARK INTRA:                  -0.138
REMARK UNBOUND:                -0.125
REMARK  Name = 1550473
REMARK  2 active torsions:
REMARK  status: ('A' for Active; 'I' for Inactive)
REMARK    1  A    between atoms: N_1  and  C_4
REMARK    2  A    between atoms: C_4  and  C_5
REMARK                            x       y       z     vdW  Elec       q    Type
REMARK                         _______ _______ _______ _____ _____    ______ ____
ROOT
ATOM      1  N   UNL     1     -12.953 -11.298   0.706  0.00  0.00    -0.354 N 
ATOM      2  N   UNL     1     -11.438 -11.257  -1.045  0.00  0.00    -0.372 N 
ATOM      3  N   UNL     1     -12.698 -13.146  -0.712  0.00  0.00    -0.372 N 
ATOM      4  C   UNL     1     -12.374 -11.903  -0.339  0.00  0.00    +0.166 C 
ATOM      5  H   UNL     1     -12.642 -10.367   0.957  0.00  0.00    +0.163 HD
ATOM      6  H   UNL     1     -10.986 -11.686  -1.841  0.00  0.00    +0.159 HD
ATOM      7  H   UNL     1     -11.162 -10.308  -0.821  0.00  0.00    +0.159 HD
ATOM      8  H   UNL     1     -13.392 -13.690  -0.218  0.00  0.00    +0.159 HD
ATOM      9  H   UNL     1     -12.248 -13.597  -1.499  0.00  0.00    +0.159 HD
ENDROOT
BRANCH   1  10
ATOM     10  C   UNL     1     -14.021 -11.895   1.508  0.00  0.00    +0.151 C 
BRANCH  10  11
ATOM     11  C   UNL     1     -15.143 -10.903   1.648  0.00  0.00    -0.028 A 
ATOM     12  C   UNL     1     -15.747 -10.347   0.511  0.00  0.00    +0.005 A 
ATOM     13  C   UNL     1     -15.610 -10.520   2.914  0.00  0.00    +0.005 A 
ATOM     14  C   UNL     1     -16.809  -9.449   0.639  0.00  0.00    +0.000 A 
ATOM     15  C   UNL     1     -16.670  -9.622   3.038  0.00  0.00    +0.000 A 
ATOM     16  C   UNL     1     -17.271  -9.089   1.901  0.00  0.00    +0.000 A 
ENDBRANCH  10  11
ENDBRANCH   1  10
TORSDOF 2
ENDMDL
MODEL 6
REMARK VINA RESULT:    -4.787     29.763     31.125
REMARK INTER + INTRA:          -5.471
REMARK INTER:                  -5.330
REMARK INTRA:                  -0.142
REMARK UNBOUND:                -0.125
REMARK  Name = 1550473
REMARK  2 active torsions:
REMARK  status: ('A' for Active; 'I' for Inactive)
REMARK    1  A    between atoms: N_1  and  C_4
REMARK    2  A    between atoms: C_4  and  C_5
REMARK                            x       y       z     vdW  Elec       q    Type
REMARK                         _______ _______ _______ _____ _____    ______ ____
ROOT
ATOM      1  N   UNL     1       9.566  22.734  -2.926  0.00  0.00    -0.354 N 
ATOM      2  N   UNL     1      11.451  21.592  -2.213  0.00  0.00    -0.372 N 
ATOM      3  N   UNL     1       9.975  20.532  -3.614  0.00  0.00    -0.372 N 
ATOM      4  C   UNL     1      10.317  21.625  -2.924  0.00  0.00    +0.166 C 
ATOM      5  H   UNL     1       9.864  23.519  -2.358  0.00  0.00    +0.163 HD
ATOM      6  H   UNL     1      12.040  20.771  -2.195  0.00  0.00    +0.159 HD
ATOM      7  H   UNL     1      11.770  22.394  -1.683  0.00  0.00    +0.159 HD
ATOM      8  H   UNL     1       9.129  20.490  -4.166  0.00  0.00    +0.159 HD
ATOM      9  H   UNL     1      10.546  19.696  -3.600  0.00  0.00    +0.159 HD
ENDROOT
BRANCH   1  10
ATOM     10  C   UNL     1       8.342  22.891  -3.709  0.00  0.00    +0.151 C 
BRANCH  10  11
ATOM     11  C   UNL     1       7.187  23.126  -2.774  0.00  0.00    -0.028 A 
ATOM     12  C   UNL     1       6.106  22.233  -2.740  0.00  0.00    +0.005 A 
ATOM     13  C   UNL     1       7.171  24.237  -1.916  0.00  0.00    +0.005 A 
ATOM     14  C   UNL     1       5.048  22.435  -1.851  0.00  0.00    +0.000 A 
ATOM     15  C   UNL     1       6.112  24.434  -1.030  0.00  0.00    +0.000 A 
ATOM     16  C   UNL     1       5.052  23.532  -0.996  0.00  0.00    +0.000 A 
ENDBRANCH  10  11
ENDBRANCH   1  10
TORSDOF 2
ENDMDL
MODEL 7
REMARK VINA RESULT:    -4.639      4.300      7.755
REMARK INTER + INTRA:          -5.307
REMARK INTER:                  -5.184
REMARK INTRA:                  -0.123
REMARK UNBOUND:                -0.125
REMARK  Name = 1550473
REMARK  2 active torsions:
REMARK  status: ('A' for Active; 'I' for Inactive)
REMARK    1  A    between atoms: N_1  and  C_4
REMARK    2  A    between atoms: C_4  and  C_5
REMARK                            x       y       z     vdW  Elec       q    Type
REMARK                         _______ _______ _______ _____ _____    ______ ____
ROOT
ATOM      1  N   UNL     1      -9.307   9.790  14.350  0.00  0.00    -0.354 N 
ATOM      2  N   UNL     1     -11.078   8.441  13.712  0.00  0.00    -0.372 N 
ATOM      3  N   UNL     1      -9.103   7.455  14.338  0.00  0.00    -0.372 N 
ATOM      4  C   UNL     1      -9.816   8.569  14.138  0.00  0.00    +0.166 C 
ATOM      5  H   UNL     1      -9.890  10.595  14.151  0.00  0.00    +0.163 HD
ATOM      6  H   UNL     1     -11.491   7.532  13.546  0.00  0.00    +0.159 HD
ATOM      7  H   UNL     1     -11.673   9.246  13.557  0.00  0.00    +0.159 HD
ATOM      8  H   UNL     1      -8.143   7.484  14.653  0.00  0.00    +0.159 HD
ATOM      9  H   UNL     1      -9.494   6.537  14.166  0.00  0.00    +0.159 HD
ENDROOT
BRANCH   1  10
ATOM     10  C   UNL     1      -7.962  10.037  14.866  0.00  0.00    +0.151 C 
BRANCH  10  11
ATOM     11  C   UNL     1      -7.781  11.514  15.078  0.00  0.00    -0.028 A 
ATOM     12  C   UNL     1      -6.592  12.014  15.630  0.00  0.00    +0.005 A 
ATOM     13  C   UNL     1      -8.792  12.421  14.724  0.00  0.00    +0.005 A 
ATOM     14  C   UNL     1      -6.411  13.389  15.800  0.00  0.00    +0.000 A 
ATOM     15  C   UNL     1      -8.608  13.793  14.896  0.00  0.00    +0.000 A 
ATOM     16  C   UNL     1      -7.417  14.276  15.432  0.00  0.00    +0.000 A 
ENDBRANCH  10  11
ENDBRANCH   1  10
TORSDOF 2
ENDMDL
MODEL 8
REMARK VINA RESULT:    -4.592      2.762      5.015
REMARK INTER + INTRA:          -5.254
REMARK INTER:                  -5.131
REMARK INTRA:                  -0.124
REMARK UNBOUND:                -0.125
REMARK  Name = 1550473
REMARK  2 active torsions:
REMARK  status: ('A' for Active; 'I' for Inactive)
REMARK    1  A    between atoms: N_1  and  C_4
REMARK    2  A    between atoms: C_4  and  C_5
REMARK                            x       y       z     vdW  Elec       q    Type
REMARK                         _______ _______ _______ _____ _____    ______ ____
ROOT
ATOM      1  N   UNL     1     -13.828   5.544  15.107  0.00  0.00    -0.354 N 
ATOM      2  N   UNL     1     -15.931   4.994  15.907  0.00  0.00    -0.372 N 
ATOM      3  N   UNL     1     -14.725   3.405  14.773  0.00  0.00    -0.372 N 
ATOM      4  C   UNL     1     -14.814   4.649  15.256  0.00  0.00    +0.166 C 
ATOM      5  H   UNL     1     -13.970   6.480  15.470  0.00  0.00    +0.163 HD
ATOM      6  H   UNL     1     -16.690   4.339  16.038  0.00  0.00    +0.159 HD
ATOM      7  H   UNL     1     -16.051   5.916  16.309  0.00  0.00    +0.159 HD
ATOM      8  H   UNL     1     -13.911   3.084  14.267  0.00  0.00    +0.159 HD
ATOM      9  H   UNL     1     -15.479   2.739  14.884  0.00  0.00    +0.159 HD
ENDROOT
BRANCH   1  10
ATOM     10  C   UNL     1     -12.550   5.253  14.461  0.00  0.00    +0.151 C 
BRANCH  10  11
ATOM     11  C   UNL     1     -11.722   6.508  14.422  0.00  0.00    -0.028 A 
ATOM     12  C   UNL     1     -12.244   7.720  14.896  0.00  0.00    +0.005 A 
ATOM     13  C   UNL     1     -10.413   6.491  13.916  0.00  0.00    +0.005 A 
ATOM     14  C   UNL     1     -11.466   8.880  14.888  0.00  0.00    +0.000 A 
ATOM     15  C   UNL     1      -9.639   7.651  13.909  0.00  0.00    +0.000 A 
ATOM     16  C   UNL     1     -10.165   8.845  14.397  0.00  0.00    +0.000 A 
ENDBRANCH  10  11
ENDBRANCH   1  10
TORSDOF 2
ENDMDL
MODEL 9
REMARK VINA RESULT:    -4.531     22.692     23.374
REMARK INTER + INTRA:          -5.186
REMARK INTER:                  -5.032
REMARK INTRA:                  -0.155
REMARK UNBOUND:                -0.125
REMARK  Name = 1550473
REMARK  2 active torsions:
REMARK  status: ('A' for Active; 'I' for Inactive)
REMARK    1  A    between atoms: N_1  and  C_4
REMARK    2  A    between atoms: C_4  and  C_5
REMARK                            x       y       z     vdW  Elec       q    Type
REMARK                         _______ _______ _______ _____ _____    ______ ____
ROOT
ATOM      1  N   UNL     1       1.306 -12.493  19.592  0.00  0.00    -0.354 N 
ATOM      2  N   UNL     1       1.348 -14.809  19.585  0.00  0.00    -0.372 N 
ATOM      3  N   UNL     1      -0.210 -13.724  18.297  0.00  0.00    -0.372 N 
ATOM      4  C   UNL     1       0.812 -13.660  19.156  0.00  0.00    +0.166 C 
ATOM      5  H   UNL     1       2.062 -12.512  20.267  0.00  0.00    +0.163 HD
ATOM      6  H   UNL     1       0.999 -15.704  19.272  0.00  0.00    +0.159 HD
ATOM      7  H   UNL     1       2.134 -14.824  20.224  0.00  0.00    +0.159 HD
ATOM      8  H   UNL     1      -0.663 -12.894  17.940  0.00  0.00    +0.159 HD
ATOM      9  H   UNL     1      -0.581 -14.611  17.980  0.00  0.00    +0.159 HD
ENDROOT
BRANCH   1  10
ATOM     10  C   UNL     1       0.829 -11.186  19.145  0.00  0.00    +0.151 C 
BRANCH  10  11
ATOM     11  C   UNL     1       1.837 -10.592  18.200  0.00  0.00    -0.028 A 
ATOM     12  C   UNL     1       2.710  -9.582  18.632  0.00  0.00    +0.005 A 
ATOM     13  C   UNL     1       1.929 -11.039  16.873  0.00  0.00    +0.005 A 
ATOM     14  C   UNL     1       3.666  -9.051  17.764  0.00  0.00    +0.000 A 
ATOM     15  C   UNL     1       2.885 -10.505  16.009  0.00  0.00    +0.000 A 
ATOM     16  C   UNL     1       3.755  -9.514  16.455  0.00  0.00    +0.000 A 
ENDBRANCH  10  11
ENDBRANCH   1  10
TORSDOF 2
ENDMDL
