MODEL 1
REMARK VINA RESULT:    -5.746      0.000      0.000
REMARK INTER + INTRA:          -6.549
REMARK INTER:                  -6.418
REMARK INTRA:                  -0.131
REMARK UNBOUND:                -0.131
REMARK  Name = 1550473
REMARK  2 active torsions:
REMARK  status: ('A' for Active; 'I' for Inactive)
REMARK    1  A    between atoms: N_1  and  C_4
REMARK    2  A    between atoms: C_4  and  C_5
REMARK                            x       y       z     vdW  Elec       q    Type
REMARK                         _______ _______ _______ _____ _____    ______ ____
ROOT
ATOM      1  N   UNL     1      -6.981 -12.902 -18.979  0.00  0.00    -0.354 N 
ATOM      2  N   UNL     1      -6.345 -11.036 -20.196  0.00  0.00    -0.372 N 
ATOM      3  N   UNL     1      -5.595 -11.263 -18.039  0.00  0.00    -0.372 N 
ATOM      4  C   UNL     1      -6.310 -11.745 -19.061  0.00  0.00    +0.166 C 
ATOM      5  H   UNL     1      -7.529 -13.198 -19.779  0.00  0.00    +0.163 HD
ATOM      6  H   UNL     1      -5.846 -10.162 -20.288  0.00  0.00    +0.159 HD
ATOM      7  H   UNL     1      -6.856 -11.357 -21.009  0.00  0.00    +0.159 HD
ATOM      8  H   UNL     1      -5.533 -11.747 -17.153  0.00  0.00    +0.159 HD
ATOM      9  H   UNL     1      -5.098 -10.384 -18.108  0.00  0.00    +0.159 HD
ENDROOT
BRANCH   1  10
ATOM     10  C   UNL     1      -6.965 -13.776 -17.808  0.00  0.00    +0.151 C 
BRANCH  10  11
ATOM     11  C   UNL     1      -8.347 -14.324 -17.584  0.00  0.00    -0.028 A 
ATOM     12  C   UNL     1      -9.273 -14.371 -18.637  0.00  0.00    +0.005 A 
ATOM     13  C   UNL     1      -8.736 -14.802 -16.323  0.00  0.00    +0.005 A 
ATOM     14  C   UNL     1     -10.547 -14.908 -18.437  0.00  0.00    +0.000 A 
ATOM     15  C   UNL     1     -10.009 -15.336 -16.128  0.00  0.00    +0.000 A 
ATOM     16  C   UNL     1     -10.914 -15.391 -17.186  0.00  0.00    +0.000 A 
ENDBRANCH  10  11
ENDBRANCH   1  10
TORSDOF 2
ENDMDL
MODEL 2
REMARK VINA RESULT:    -4.571     10.237     10.924
REMARK INTER + INTRA:          -5.236
REMARK INTER:                  -5.117
REMARK INTRA:                  -0.119
REMARK UNBOUND:                -0.131
REMARK  Name = 1550473
REMARK  2 active torsions:
REMARK  status: ('A' for Active; 'I' for Inactive)
REMARK    1  A    between atoms: N_1  and  C_4
REMARK    2  A    between atoms: C_4  and  C_5
REMARK                            x       y       z     vdW  Elec       q    Type
REMARK                         _______ _______ _______ _____ _____    ______ ____
ROOT
ATOM      1  N   UNL     1     -16.694  -7.017 -13.116  0.00  0.00    -0.354 N 
ATOM      2  N   UNL     1     -16.613  -4.823 -13.854  0.00  0.00    -0.372 N 
ATOM      3  N   UNL     1     -14.769  -5.714 -12.819  0.00  0.00    -0.372 N 
ATOM      4  C   UNL     1     -16.024  -5.866 -13.257  0.00  0.00    +0.166 C 
ATOM      5  H   UNL     1     -17.653  -7.058 -13.442  0.00  0.00    +0.163 HD
ATOM      6  H   UNL     1     -16.131  -3.943 -13.978  0.00  0.00    +0.159 HD
ATOM      7  H   UNL     1     -17.556  -4.882 -14.221  0.00  0.00    +0.159 HD
ATOM      8  H   UNL     1     -14.270  -6.461 -12.354  0.00  0.00    +0.159 HD
ATOM      9  H   UNL     1     -14.274  -4.837 -12.923  0.00  0.00    +0.159 HD
ENDROOT
BRANCH   1  10
ATOM     10  C   UNL     1     -16.125  -8.228 -12.528  0.00  0.00    +0.151 C 
BRANCH  10  11
ATOM     11  C   UNL     1     -16.583  -9.421 -13.321  0.00  0.00    -0.028 A 
ATOM     12  C   UNL     1     -17.911  -9.515 -13.763  0.00  0.00    +0.005 A 
ATOM     13  C   UNL     1     -15.693 -10.458 -13.640  0.00  0.00    +0.005 A 
ATOM     14  C   UNL     1     -18.330 -10.608 -14.525  0.00  0.00    +0.000 A 
ATOM     15  C   UNL     1     -16.115 -11.548 -14.400  0.00  0.00    +0.000 A 
ATOM     16  C   UNL     1     -17.433 -11.622 -14.845  0.00  0.00    +0.000 A 
ENDBRANCH  10  11
ENDBRANCH   1  10
TORSDOF 2
ENDMDL
MODEL 3
REMARK VINA RESULT:    -4.542     25.767     27.643
REMARK INTER + INTRA:          -5.204
REMARK INTER:                  -5.083
REMARK INTRA:                  -0.121
REMARK UNBOUND:                -0.131
REMARK  Name = 1550473
REMARK  2 active torsions:
REMARK  status: ('A' for Active; 'I' for Inactive)
REMARK    1  A    between atoms: N_1  and  C_4
REMARK    2  A    between atoms: C_4  and  C_5
REMARK                            x       y       z     vdW  Elec       q    Type
REMARK                         _______ _______ _______ _____ _____    ______ ____
ROOT
ATOM      1  N   UNL     1      15.773  -5.929  -8.488  0.00  0.00    -0.354 N 
ATOM      2  N   UNL     1      14.485  -6.036 -10.411  0.00  0.00    -0.372 N 
ATOM      3  N   UNL     1      15.241  -7.988  -9.471  0.00  0.00    -0.372 N 
ATOM      4  C   UNL     1      15.175  -6.653  -9.444  0.00  0.00    +0.166 C 
ATOM      5  H   UNL     1      15.711  -4.918  -8.541  0.00  0.00    +0.163 HD
ATOM      6  H   UNL     1      14.021  -6.557 -11.143  0.00  0.00    +0.159 HD
ATOM      7  H   UNL     1      14.387  -5.029 -10.435  0.00  0.00    +0.159 HD
ATOM      8  H   UNL     1      15.751  -8.514  -8.774  0.00  0.00    +0.159 HD
ATOM      9  H   UNL     1      14.793  -8.526 -10.203  0.00  0.00    +0.159 HD
ENDROOT
BRANCH   1  10
ATOM     10  C   UNL     1      16.503  -6.505  -7.361  0.00  0.00    +0.151 C 
BRANCH  10  11
ATOM     11  C   UNL     1      16.095  -5.798  -6.098  0.00  0.00    -0.028 A 
ATOM     12  C   UNL     1      16.013  -4.398  -6.061  0.00  0.00    +0.005 A 
ATOM     13  C   UNL     1      15.784  -6.522  -4.937  0.00  0.00    +0.005 A 
ATOM     14  C   UNL     1      15.605  -3.742  -4.897  0.00  0.00    +0.000 A 
ATOM     15  C   UNL     1      15.378  -5.864  -3.777  0.00  0.00    +0.000 A 
ATOM     16  C   UNL     1      15.286  -4.474  -3.757  0.00  0.00    +0.000 A 
ENDBRANCH  10  11
ENDBRANCH   1  10
TORSDOF 2
ENDMDL
MODEL 4
REMARK VINA RESULT:    -4.459     44.768     45.503
REMARK INTER + INTRA:          -5.111
REMARK INTER:                  -4.989
REMARK INTRA:                  -0.122
REMARK UNBOUND:                -0.131
REMARK  Name = 1550473
REMARK  2 active torsions:
REMARK  status: ('A' for Active; 'I' for Inactive)
REMARK    1  A    between atoms: N_1  and  C_4
REMARK    2  A    between atoms: C_4  and  C_5
REMARK                            x       y       z     vdW  Elec       q    Type
REMARK                         _______ _______ _______ _____ _____    ______ ____
ROOT
ATOM      1  N   UNL     1     -10.513  15.463  15.792  0.00  0.00    -0.354 N 
ATOM      2  N   UNL     1      -8.435  15.210  14.799  0.00  0.00    -0.372 N 
ATOM      3  N   UNL     1      -8.584  15.163  17.089  0.00  0.00    -0.372 N 
ATOM      4  C   UNL     1      -9.190  15.281  15.903  0.00  0.00    +0.166 C 
ATOM      5  H   UNL     1     -10.907  15.575  14.865  0.00  0.00    +0.163 HD
ATOM      6  H   UNL     1      -7.435  15.069  14.852  0.00  0.00    +0.159 HD
ATOM      7  H   UNL     1      -8.839  15.276  13.873  0.00  0.00    +0.159 HD
ATOM      8  H   UNL     1      -9.096  15.214  17.959  0.00  0.00    +0.159 HD
ATOM      9  H   UNL     1      -7.583  15.034  17.162  0.00  0.00    +0.159 HD
ENDROOT
BRANCH   1  10
ATOM     10  C   UNL     1     -11.431  15.500  16.929  0.00  0.00    +0.151 C 
BRANCH  10  11
ATOM     11  C   UNL     1     -12.711  16.165  16.504  0.00  0.00    -0.028 A 
ATOM     12  C   UNL     1     -12.698  17.190  15.547  0.00  0.00    +0.005 A 
ATOM     13  C   UNL     1     -13.942  15.771  17.052  0.00  0.00    +0.005 A 
ATOM     14  C   UNL     1     -13.890  17.788  15.130  0.00  0.00    +0.000 A 
ATOM     15  C   UNL     1     -15.130  16.371  16.634  0.00  0.00    +0.000 A 
ATOM     16  C   UNL     1     -15.104  17.377  15.671  0.00  0.00    +0.000 A 
ENDBRANCH  10  11
ENDBRANCH   1  10
TORSDOF 2
ENDMDL
MODEL 5
REMARK VINA RESULT:    -4.414      5.448      6.917
REMARK INTER + INTRA:          -5.061
REMARK INTER:                  -5.030
REMARK INTRA:                  -0.031
REMARK UNBOUND:                -0.131
REMARK  Name = 1550473
REMARK  2 active torsions:
REMARK  status: ('A' for Active; 'I' for Inactive)
REMARK    1  A    between atoms: N_1  and  C_4
REMARK    2  A    between atoms: C_4  and  C_5
REMARK                            x       y       z     vdW  Elec       q    Type
REMARK                         _______ _______ _______ _____ _____    ______ ____
ROOT
ATOM      1  N   UNL     1     -13.025 -18.113 -16.249  0.00  0.00    -0.354 N 
ATOM      2  N   UNL     1     -13.148 -19.390 -14.321  0.00  0.00    -0.372 N 
ATOM      3  N   UNL     1     -11.753 -20.067 -16.013  0.00  0.00    -0.372 N 
ATOM      4  C   UNL     1     -12.639 -19.183 -15.542  0.00  0.00    +0.166 C 
ATOM      5  H   UNL     1     -13.723 -17.497 -15.848  0.00  0.00    +0.163 HD
ATOM      6  H   UNL     1     -12.873 -20.187 -13.763  0.00  0.00    +0.159 HD
ATOM      7  H   UNL     1     -13.811 -18.748 -13.904  0.00  0.00    +0.159 HD
ATOM      8  H   UNL     1     -11.337 -19.971 -16.930  0.00  0.00    +0.159 HD
ATOM      9  H   UNL     1     -11.474 -20.877 -15.474  0.00  0.00    +0.159 HD
ENDROOT
BRANCH   1  10
ATOM     10  C   UNL     1     -12.492 -17.767 -17.566  0.00  0.00    +0.151 C 
BRANCH  10  11
ATOM     11  C   UNL     1     -11.539 -16.613 -17.422  0.00  0.00    -0.028 A 
ATOM     12  C   UNL     1     -11.304 -15.745 -18.499  0.00  0.00    +0.005 A 
ATOM     13  C   UNL     1     -10.872 -16.378 -16.210  0.00  0.00    +0.005 A 
ATOM     14  C   UNL     1     -10.442 -14.655 -18.357  0.00  0.00    +0.000 A 
ATOM     15  C   UNL     1     -10.011 -15.289 -16.073  0.00  0.00    +0.000 A 
ATOM     16  C   UNL     1      -9.798 -14.426 -17.146  0.00  0.00    +0.000 A 
ENDBRANCH  10  11
ENDBRANCH   1  10
TORSDOF 2
ENDMDL
MODEL 6
REMARK VINA RESULT:    -4.354     14.479     15.238
REMARK INTER + INTRA:          -4.994
REMARK INTER:                  -4.857
REMARK INTRA:                  -0.137
REMARK UNBOUND:                -0.131
REMARK  Name = 1550473
REMARK  2 active torsions:
REMARK  status: ('A' for Active; 'I' for Inactive)
REMARK    1  A    between atoms: N_1  and  C_4
REMARK    2  A    between atoms: C_4  and  C_5
REMARK                            x       y       z     vdW  Elec       q    Type
REMARK                         _______ _______ _______ _____ _____    ______ ____
ROOT
ATOM      1  N   UNL     1      -7.255  -3.435  -5.622  0.00  0.00    -0.354 N 
ATOM      2  N   UNL     1      -6.927  -2.979  -3.375  0.00  0.00    -0.372 N 
ATOM      3  N   UNL     1      -6.543  -5.107  -4.143  0.00  0.00    -0.372 N 
ATOM      4  C   UNL     1      -6.910  -3.846  -4.395  0.00  0.00    +0.166 C 
ATOM      5  H   UNL     1      -7.552  -2.473  -5.742  0.00  0.00    +0.163 HD
ATOM      6  H   UNL     1      -6.669  -3.260  -2.439  0.00  0.00    +0.159 HD
ATOM      7  H   UNL     1      -7.181  -2.008  -3.506  0.00  0.00    +0.159 HD
ATOM      8  H   UNL     1      -6.515  -5.812  -4.868  0.00  0.00    +0.159 HD
ATOM      9  H   UNL     1      -6.293  -5.410  -3.210  0.00  0.00    +0.159 HD
ENDROOT
BRANCH   1  10
ATOM     10  C   UNL     1      -7.218  -4.286  -6.810  0.00  0.00    +0.151 C 
BRANCH  10  11
ATOM     11  C   UNL     1      -8.478  -4.076  -7.604  0.00  0.00    -0.028 A 
ATOM     12  C   UNL     1      -8.425  -3.929  -8.998  0.00  0.00    +0.005 A 
ATOM     13  C   UNL     1      -9.728  -4.030  -6.969  0.00  0.00    +0.005 A 
ATOM     14  C   UNL     1      -9.598  -3.765  -9.739  0.00  0.00    +0.000 A 
ATOM     15  C   UNL     1     -10.897  -3.864  -7.712  0.00  0.00    +0.000 A 
ATOM     16  C   UNL     1     -10.831  -3.734  -9.097  0.00  0.00    +0.000 A 
ENDBRANCH  10  11
ENDBRANCH   1  10
TORSDOF 2
ENDMDL
MODEL 7
REMARK VINA RESULT:    -4.191     14.440     15.465
REMARK INTER + INTRA:          -4.812
REMARK INTER:                  -4.689
REMARK INTRA:                  -0.123
REMARK UNBOUND:                -0.131
REMARK  Name = 1550473
REMARK  2 active torsions:
REMARK  status: ('A' for Active; 'I' for Inactive)
REMARK    1  A    between atoms: N_1  and  C_4
REMARK    2  A    between atoms: C_4  and  C_5
REMARK                            x       y       z     vdW  Elec       q    Type
REMARK                         _______ _______ _______ _____ _____    ______ ____
ROOT
ATOM      1  N   UNL     1      -8.847 -16.498  -3.611  0.00  0.00    -0.354 N 
ATOM      2  N   UNL     1     -10.476 -17.261  -2.152  0.00  0.00    -0.372 N 
ATOM      3  N   UNL     1      -8.888 -18.733  -2.909  0.00  0.00    -0.372 N 
ATOM      4  C   UNL     1      -9.392 -17.495  -2.901  0.00  0.00    +0.166 C 
ATOM      5  H   UNL     1      -9.294 -15.589  -3.586  0.00  0.00    +0.163 HD
ATOM      6  H   UNL     1     -10.907 -17.992  -1.603  0.00  0.00    +0.159 HD
ATOM      7  H   UNL     1     -10.894 -16.340  -2.093  0.00  0.00    +0.159 HD
ATOM      8  H   UNL     1      -8.074 -18.977  -3.458  0.00  0.00    +0.159 HD
ATOM      9  H   UNL     1      -9.312 -19.482  -2.375  0.00  0.00    +0.159 HD
ENDROOT
BRANCH   1  10
ATOM     10  C   UNL     1      -7.634 -16.635  -4.415  0.00  0.00    +0.151 C 
BRANCH  10  11
ATOM     11  C   UNL     1      -6.734 -15.459  -4.151  0.00  0.00    -0.028 A 
ATOM     12  C   UNL     1      -5.350 -15.640  -4.008  0.00  0.00    +0.005 A 
ATOM     13  C   UNL     1      -7.258 -14.162  -4.049  0.00  0.00    +0.005 A 
ATOM     14  C   UNL     1      -4.510 -14.545  -3.792  0.00  0.00    +0.000 A 
ATOM     15  C   UNL     1      -6.416 -13.071  -3.833  0.00  0.00    +0.000 A 
ATOM     16  C   UNL     1      -5.042 -13.262  -3.708  0.00  0.00    +0.000 A 
ENDBRANCH  10  11
ENDBRANCH   1  10
TORSDOF 2
ENDMDL
MODEL 8
REMARK VINA RESULT:    -4.179      2.402      2.870
REMARK INTER + INTRA:          -4.799
REMARK INTER:                  -4.675
REMARK INTRA:                  -0.123
REMARK UNBOUND:                -0.131
REMARK  Name = 1550473
REMARK  2 active torsions:
REMARK  status: ('A' for Active; 'I' for Inactive)
REMARK    1  A    between atoms: N_1  and  C_4
REMARK    2  A    between atoms: C_4  and  C_5
REMARK                            x       y       z     vdW  Elec       q    Type
REMARK                         _______ _______ _______ _____ _____    ______ ____
ROOT
ATOM      1  N   UNL     1      -6.318 -15.629 -18.281  0.00  0.00    -0.354 N 
ATOM      2  N   UNL     1      -4.118 -14.908 -18.194  0.00  0.00    -0.372 N 
ATOM      3  N   UNL     1      -5.305 -14.618 -20.137  0.00  0.00    -0.372 N 
ATOM      4  C   UNL     1      -5.262 -15.056 -18.874  0.00  0.00    +0.166 C 
ATOM      5  H   UNL     1      -6.211 -15.967 -17.331  0.00  0.00    +0.163 HD
ATOM      6  H   UNL     1      -3.306 -14.476 -18.614  0.00  0.00    +0.159 HD
ATOM      7  H   UNL     1      -4.029 -15.205 -17.230  0.00  0.00    +0.159 HD
ATOM      8  H   UNL     1      -6.136 -14.705 -20.706  0.00  0.00    +0.159 HD
ATOM      9  H   UNL     1      -4.499 -14.194 -20.578  0.00  0.00    +0.159 HD
ENDROOT
BRANCH   1  10
ATOM     10  C   UNL     1      -7.625 -15.789 -18.916  0.00  0.00    +0.151 C 
BRANCH  10  11
ATOM     11  C   UNL     1      -8.693 -15.745 -17.858  0.00  0.00    -0.028 A 
ATOM     12  C   UNL     1      -8.648 -14.780 -16.841  0.00  0.00    +0.005 A 
ATOM     13  C   UNL     1      -9.756 -16.661 -17.871  0.00  0.00    +0.005 A 
ATOM     14  C   UNL     1      -9.656 -14.719 -15.876  0.00  0.00    +0.000 A 
ATOM     15  C   UNL     1     -10.760 -16.598 -16.905  0.00  0.00    +0.000 A 
ATOM     16  C   UNL     1     -10.711 -15.625 -15.909  0.00  0.00    +0.000 A 
ENDBRANCH  10  11
ENDBRANCH   1  10
TORSDOF 2
ENDMDL
MODEL 9
REMARK VINA RESULT:    -4.141     11.373     12.221
REMARK INTER + INTRA:          -4.756
REMARK INTER:                  -4.629
REMARK INTRA:                  -0.127
REMARK UNBOUND:                -0.131
REMARK  Name = 1550473
REMARK  2 active torsions:
REMARK  status: ('A' for Active; 'I' for Inactive)
REMARK    1  A    between atoms: N_1  and  C_4
REMARK    2  A    between atoms: C_4  and  C_5
REMARK                            x       y       z     vdW  Elec       q    Type
REMARK                         _______ _______ _______ _____ _____    ______ ____
ROOT
ATOM      1  N   UNL     1       2.177  -7.399 -23.002  0.00  0.00    -0.354 N 
ATOM      2  N   UNL     1       1.773  -5.169 -23.477  0.00  0.00    -0.372 N 
ATOM      3  N   UNL     1      -0.010  -6.599 -23.266  0.00  0.00    -0.372 N 
ATOM      4  C   UNL     1       1.313  -6.404 -23.246  0.00  0.00    +0.166 C 
ATOM      5  H   UNL     1       3.169  -7.193 -23.030  0.00  0.00    +0.163 HD
ATOM      6  H   UNL     1       1.145  -4.397 -23.660  0.00  0.00    +0.159 HD
ATOM      7  H   UNL     1       2.763  -4.956 -23.459  0.00  0.00    +0.159 HD
ATOM      8  H   UNL     1      -0.420  -7.509 -23.105  0.00  0.00    +0.159 HD
ATOM      9  H   UNL     1      -0.653  -5.842 -23.459  0.00  0.00    +0.159 HD
ENDROOT
BRANCH   1  10
ATOM     10  C   UNL     1       1.778  -8.769 -22.685  0.00  0.00    +0.151 C 
BRANCH  10  11
ATOM     11  C   UNL     1       1.993  -9.016 -21.217  0.00  0.00    -0.028 A 
ATOM     12  C   UNL     1       2.985  -9.908 -20.783  0.00  0.00    +0.005 A 
ATOM     13  C   UNL     1       1.212  -8.357 -20.255  0.00  0.00    +0.005 A 
ATOM     14  C   UNL     1       3.205 -10.115 -19.419  0.00  0.00    +0.000 A 
ATOM     15  C   UNL     1       1.434  -8.568 -18.895  0.00  0.00    +0.000 A 
ATOM     16  C   UNL     1       2.433  -9.445 -18.477  0.00  0.00    +0.000 A 
ENDBRANCH  10  11
ENDBRANCH   1  10
TORSDOF 2
ENDMDL
