MODEL 1
REMARK VINA RESULT:    -5.114      0.000      0.000
REMARK INTER + INTRA:          -5.814
REMARK INTER:                  -5.712
REMARK INTRA:                  -0.102
REMARK UNBOUND:                -0.102
REMARK  Name = 1550473
REMARK  2 active torsions:
REMARK  status: ('A' for Active; 'I' for Inactive)
REMARK    1  A    between atoms: N_1  and  C_4
REMARK    2  A    between atoms: C_4  and  C_5
REMARK                            x       y       z     vdW  Elec       q    Type
REMARK                         _______ _______ _______ _____ _____    ______ ____
ROOT
ATOM      1  N   UNL     1     -11.612  -3.226   8.496  0.00  0.00    -0.354 N 
ATOM      2  N   UNL     1      -9.691  -1.965   8.207  0.00  0.00    -0.372 N 
ATOM      3  N   UNL     1     -11.629  -0.906   8.832  0.00  0.00    -0.372 N 
ATOM      4  C   UNL     1     -10.992  -2.038   8.514  0.00  0.00    +0.166 C 
ATOM      5  H   UNL     1     -11.081  -4.042   8.217  0.00  0.00    +0.163 HD
ATOM      6  H   UNL     1      -9.195  -1.084   8.215  0.00  0.00    +0.159 HD
ATOM      7  H   UNL     1      -9.151  -2.790   7.973  0.00  0.00    +0.159 HD
ATOM      8  H   UNL     1     -12.612  -0.893   9.068  0.00  0.00    +0.159 HD
ATOM      9  H   UNL     1     -11.152  -0.013   8.834  0.00  0.00    +0.159 HD
ENDROOT
BRANCH   1  10
ATOM     10  C   UNL     1     -13.013  -3.422   8.866  0.00  0.00    +0.151 C 
BRANCH  10  11
ATOM     11  C   UNL     1     -13.318  -4.894   8.872  0.00  0.00    -0.028 A 
ATOM     12  C   UNL     1     -12.614  -5.764   9.718  0.00  0.00    +0.005 A 
ATOM     13  C   UNL     1     -14.313  -5.426   8.038  0.00  0.00    +0.005 A 
ATOM     14  C   UNL     1     -12.918  -7.127   9.746  0.00  0.00    +0.000 A 
ATOM     15  C   UNL     1     -14.613  -6.788   8.068  0.00  0.00    +0.000 A 
ATOM     16  C   UNL     1     -13.917  -7.637   8.923  0.00  0.00    +0.000 A 
ENDBRANCH  10  11
ENDBRANCH   1  10
TORSDOF 2
ENDMDL
MODEL 2
REMARK VINA RESULT:    -4.909     20.163     20.935
REMARK INTER + INTRA:          -5.585
REMARK INTER:                  -5.458
REMARK INTRA:                  -0.126
REMARK UNBOUND:                -0.102
REMARK  Name = 1550473
REMARK  2 active torsions:
REMARK  status: ('A' for Active; 'I' for Inactive)
REMARK    1  A    between atoms: N_1  and  C_4
REMARK    2  A    between atoms: C_4  and  C_5
REMARK                            x       y       z     vdW  Elec       q    Type
REMARK                         _______ _______ _______ _____ _____    ______ ____
ROOT
ATOM      1  N   UNL     1      -6.278 -14.783  -7.823  0.00  0.00    -0.354 N 
ATOM      2  N   UNL     1      -7.328 -13.520  -9.456  0.00  0.00    -0.372 N 
ATOM      3  N   UNL     1      -8.243 -13.594  -7.352  0.00  0.00    -0.372 N 
ATOM      4  C   UNL     1      -7.278 -13.974  -8.197  0.00  0.00    +0.166 C 
ATOM      5  H   UNL     1      -5.595 -15.058  -8.519  0.00  0.00    +0.163 HD
ATOM      6  H   UNL     1      -8.068 -12.905  -9.766  0.00  0.00    +0.159 HD
ATOM      7  H   UNL     1      -6.618 -13.759 -10.137  0.00  0.00    +0.159 HD
ATOM      8  H   UNL     1      -8.266 -13.907  -6.391  0.00  0.00    +0.159 HD
ATOM      9  H   UNL     1      -8.998 -12.989  -7.648  0.00  0.00    +0.159 HD
ENDROOT
BRANCH   1  10
ATOM     10  C   UNL     1      -6.102 -15.289  -6.463  0.00  0.00    +0.151 C 
BRANCH  10  11
ATOM     11  C   UNL     1      -5.993 -16.788  -6.507  0.00  0.00    -0.028 A 
ATOM     12  C   UNL     1      -4.855 -17.403  -7.049  0.00  0.00    +0.005 A 
ATOM     13  C   UNL     1      -7.021 -17.600  -6.002  0.00  0.00    +0.005 A 
ATOM     14  C   UNL     1      -4.739 -18.795  -7.063  0.00  0.00    +0.000 A 
ATOM     15  C   UNL     1      -6.902 -18.989  -6.019  0.00  0.00    +0.000 A 
ATOM     16  C   UNL     1      -5.760 -19.587  -6.547  0.00  0.00    +0.000 A 
ENDBRANCH  10  11
ENDBRANCH   1  10
TORSDOF 2
ENDMDL
MODEL 3
REMARK VINA RESULT:    -4.863     19.687     20.546
REMARK INTER + INTRA:          -5.533
REMARK INTER:                  -5.409
REMARK INTRA:                  -0.124
REMARK UNBOUND:                -0.102
REMARK  Name = 1550473
REMARK  2 active torsions:
REMARK  status: ('A' for Active; 'I' for Inactive)
REMARK    1  A    between atoms: N_1  and  C_4
REMARK    2  A    between atoms: C_4  and  C_5
REMARK                            x       y       z     vdW  Elec       q    Type
REMARK                         _______ _______ _______ _____ _____    ______ ____
ROOT
ATOM      1  N   UNL     1      -4.878 -15.963  -7.139  0.00  0.00    -0.354 N 
ATOM      2  N   UNL     1      -2.736 -16.235  -7.976  0.00  0.00    -0.372 N 
ATOM      3  N   UNL     1      -3.693 -17.955  -6.796  0.00  0.00    -0.372 N 
ATOM      4  C   UNL     1      -3.783 -16.718  -7.297  0.00  0.00    +0.166 C 
ATOM      5  H   UNL     1      -4.873 -15.022  -7.517  0.00  0.00    +0.163 HD
ATOM      6  H   UNL     1      -1.898 -16.783  -8.114  0.00  0.00    +0.159 HD
ATOM      7  H   UNL     1      -2.751 -15.312  -8.392  0.00  0.00    +0.159 HD
ATOM      8  H   UNL     1      -4.446 -18.375  -6.268  0.00  0.00    +0.159 HD
ATOM      9  H   UNL     1      -2.858 -18.515  -6.914  0.00  0.00    +0.159 HD
ENDROOT
BRANCH   1  10
ATOM     10  C   UNL     1      -6.093 -16.414  -6.463  0.00  0.00    +0.151 C 
BRANCH  10  11
ATOM     11  C   UNL     1      -7.186 -15.408  -6.693  0.00  0.00    -0.028 A 
ATOM     12  C   UNL     1      -7.004 -14.353  -7.600  0.00  0.00    +0.005 A 
ATOM     13  C   UNL     1      -8.410 -15.507  -6.012  0.00  0.00    +0.005 A 
ATOM     14  C   UNL     1      -8.031 -13.436  -7.836  0.00  0.00    +0.000 A 
ATOM     15  C   UNL     1      -9.432 -14.588  -6.251  0.00  0.00    +0.000 A 
ATOM     16  C   UNL     1      -9.243 -13.554  -7.165  0.00  0.00    +0.000 A 
ENDBRANCH  10  11
ENDBRANCH   1  10
TORSDOF 2
ENDMDL
MODEL 4
REMARK VINA RESULT:    -4.647     18.921     19.763
REMARK INTER + INTRA:          -5.292
REMARK INTER:                  -5.144
REMARK INTRA:                  -0.147
REMARK UNBOUND:                -0.102
REMARK  Name = 1550473
REMARK  2 active torsions:
REMARK  status: ('A' for Active; 'I' for Inactive)
REMARK    1  A    between atoms: N_1  and  C_4
REMARK    2  A    between atoms: C_4  and  C_5
REMARK                            x       y       z     vdW  Elec       q    Type
REMARK                         _______ _______ _______ _____ _____    ______ ____
ROOT
ATOM      1  N   UNL     1     -11.033 -12.882  -8.693  0.00  0.00    -0.354 N 
ATOM      2  N   UNL     1     -12.122 -13.098 -10.726  0.00  0.00    -0.372 N 
ATOM      3  N   UNL     1     -10.470 -11.520 -10.515  0.00  0.00    -0.372 N 
ATOM      4  C   UNL     1     -11.200 -12.496  -9.965  0.00  0.00    +0.166 C 
ATOM      5  H   UNL     1     -11.638 -13.607  -8.327  0.00  0.00    +0.163 HD
ATOM      6  H   UNL     1     -12.268 -12.831 -11.690  0.00  0.00    +0.159 HD
ATOM      7  H   UNL     1     -12.694 -13.854 -10.371  0.00  0.00    +0.159 HD
ATOM      8  H   UNL     1      -9.762 -11.022  -9.993  0.00  0.00    +0.159 HD
ATOM      9  H   UNL     1     -10.609 -11.230 -11.475  0.00  0.00    +0.159 HD
ENDROOT
BRANCH   1  10
ATOM     10  C   UNL     1     -10.020 -12.327  -7.797  0.00  0.00    +0.151 C 
BRANCH  10  11
ATOM     11  C   UNL     1      -9.064 -13.419  -7.401  0.00  0.00    -0.028 A 
ATOM     12  C   UNL     1      -7.791 -13.498  -7.986  0.00  0.00    +0.005 A 
ATOM     13  C   UNL     1      -9.423 -14.375  -6.438  0.00  0.00    +0.005 A 
ATOM     14  C   UNL     1      -6.892 -14.493  -7.597  0.00  0.00    +0.000 A 
ATOM     15  C   UNL     1      -8.523 -15.368  -6.053  0.00  0.00    +0.000 A 
ATOM     16  C   UNL     1      -7.257 -15.425  -6.631  0.00  0.00    +0.000 A 
ENDBRANCH  10  11
ENDBRANCH   1  10
TORSDOF 2
ENDMDL
MODEL 5
REMARK VINA RESULT:    -4.632     20.049     21.632
REMARK INTER + INTRA:          -5.275
REMARK INTER:                  -5.158
REMARK INTRA:                  -0.117
REMARK UNBOUND:                -0.102
REMARK  Name = 1550473
REMARK  2 active torsions:
REMARK  status: ('A' for Active; 'I' for Inactive)
REMARK    1  A    between atoms: N_1  and  C_4
REMARK    2  A    between atoms: C_4  and  C_5
REMARK                            x       y       z     vdW  Elec       q    Type
REMARK                         _______ _______ _______ _____ _____    ______ ____
ROOT
ATOM      1  N   UNL     1       9.168  -0.819  14.537  0.00  0.00    -0.354 N 
ATOM      2  N   UNL     1      11.147  -0.267  15.607  0.00  0.00    -0.372 N 
ATOM      3  N   UNL     1       9.157   0.157  16.668  0.00  0.00    -0.372 N 
ATOM      4  C   UNL     1       9.809  -0.312  15.599  0.00  0.00    +0.166 C 
ATOM      5  H   UNL     1       9.720  -1.130  13.745  0.00  0.00    +0.163 HD
ATOM      6  H   UNL     1      11.658   0.106  16.395  0.00  0.00    +0.159 HD
ATOM      7  H   UNL     1      11.697  -0.621  14.834  0.00  0.00    +0.159 HD
ATOM      8  H   UNL     1       8.147   0.157  16.721  0.00  0.00    +0.159 HD
ATOM      9  H   UNL     1       9.651   0.545  17.462  0.00  0.00    +0.159 HD
ENDROOT
BRANCH   1  10
ATOM     10  C   UNL     1       7.716  -0.963  14.451  0.00  0.00    +0.151 C 
BRANCH  10  11
ATOM     11  C   UNL     1       7.341  -1.320  13.039  0.00  0.00    -0.028 A 
ATOM     12  C   UNL     1       8.241  -2.016  12.218  0.00  0.00    +0.005 A 
ATOM     13  C   UNL     1       6.086  -0.971  12.518  0.00  0.00    +0.005 A 
ATOM     14  C   UNL     1       7.881  -2.374  10.916  0.00  0.00    +0.000 A 
ATOM     15  C   UNL     1       5.731  -1.330  11.218  0.00  0.00    +0.000 A 
ATOM     16  C   UNL     1       6.628  -2.034  10.418  0.00  0.00    +0.000 A 
ENDBRANCH  10  11
ENDBRANCH   1  10
TORSDOF 2
ENDMDL
MODEL 6
REMARK VINA RESULT:    -4.524     25.304     26.015
REMARK INTER + INTRA:          -5.154
REMARK INTER:                  -5.001
REMARK INTRA:                  -0.153
REMARK UNBOUND:                -0.102
REMARK  Name = 1550473
REMARK  2 active torsions:
REMARK  status: ('A' for Active; 'I' for Inactive)
REMARK    1  A    between atoms: N_1  and  C_4
REMARK    2  A    between atoms: C_4  and  C_5
REMARK                            x       y       z     vdW  Elec       q    Type
REMARK                         _______ _______ _______ _____ _____    ______ ____
ROOT
ATOM      1  N   UNL     1       5.493 -17.968  -3.516  0.00  0.00    -0.354 N 
ATOM      2  N   UNL     1       4.954 -18.796  -1.421  0.00  0.00    -0.372 N 
ATOM      3  N   UNL     1       3.574 -17.237  -2.387  0.00  0.00    -0.372 N 
ATOM      4  C   UNL     1       4.675 -17.993  -2.455  0.00  0.00    +0.166 C 
ATOM      5  H   UNL     1       6.328 -18.543  -3.493  0.00  0.00    +0.163 HD
ATOM      6  H   UNL     1       4.353 -18.838  -0.608  0.00  0.00    +0.159 HD
ATOM      7  H   UNL     1       5.764 -19.403  -1.421  0.00  0.00    +0.159 HD
ATOM      8  H   UNL     1       3.311 -16.606  -3.131  0.00  0.00    +0.159 HD
ATOM      9  H   UNL     1       2.967 -17.257  -1.577  0.00  0.00    +0.159 HD
ENDROOT
BRANCH   1  10
ATOM     10  C   UNL     1       5.252 -17.170  -4.716  0.00  0.00    +0.151 C 
BRANCH  10  11
ATOM     11  C   UNL     1       6.292 -16.087  -4.803  0.00  0.00    -0.028 A 
ATOM     12  C   UNL     1       7.518 -16.223  -4.137  0.00  0.00    +0.005 A 
ATOM     13  C   UNL     1       6.058 -14.925  -5.554  0.00  0.00    +0.005 A 
ATOM     14  C   UNL     1       8.496 -15.231  -4.242  0.00  0.00    +0.000 A 
ATOM     15  C   UNL     1       7.037 -13.936  -5.655  0.00  0.00    +0.000 A 
ATOM     16  C   UNL     1       8.257 -14.090  -5.001  0.00  0.00    +0.000 A 
ENDBRANCH  10  11
ENDBRANCH   1  10
TORSDOF 2
ENDMDL
MODEL 7
REMARK VINA RESULT:    -4.429     17.606     18.423
REMARK INTER + INTRA:          -5.049
REMARK INTER:                  -4.901
REMARK INTRA:                  -0.148
REMARK UNBOUND:                -0.102
REMARK  Name = 1550473
REMARK  2 active torsions:
REMARK  status: ('A' for Active; 'I' for Inactive)
REMARK    1  A    between atoms: N_1  and  C_4
REMARK    2  A    between atoms: C_4  and  C_5
REMARK                            x       y       z     vdW  Elec       q    Type
REMARK                         _______ _______ _______ _____ _____    ______ ____
ROOT
ATOM      1  N   UNL     1       0.698   3.035  16.367  0.00  0.00    -0.354 N 
ATOM      2  N   UNL     1       1.984   2.685  14.473  0.00  0.00    -0.372 N 
ATOM      3  N   UNL     1       2.996   2.604  16.530  0.00  0.00    -0.372 N 
ATOM      4  C   UNL     1       1.886   2.777  15.805  0.00  0.00    +0.166 C 
ATOM      5  H   UNL     1      -0.099   3.186  15.761  0.00  0.00    +0.163 HD
ATOM      6  H   UNL     1       2.866   2.488  14.020  0.00  0.00    +0.159 HD
ATOM      7  H   UNL     1       1.176   2.791  13.871  0.00  0.00    +0.159 HD
ATOM      8  H   UNL     1       2.991   2.667  17.540  0.00  0.00    +0.159 HD
ATOM      9  H   UNL     1       3.891   2.418  16.095  0.00  0.00    +0.159 HD
ENDROOT
BRANCH   1  10
ATOM     10  C   UNL     1       0.475   3.102  17.811  0.00  0.00    +0.151 C 
BRANCH  10  11
ATOM     11  C   UNL     1      -0.097   4.449  18.157  0.00  0.00    -0.028 A 
ATOM     12  C   UNL     1      -0.080   4.911  19.481  0.00  0.00    +0.005 A 
ATOM     13  C   UNL     1      -0.652   5.271  17.164  0.00  0.00    +0.005 A 
ATOM     14  C   UNL     1      -0.584   6.174  19.799  0.00  0.00    +0.000 A 
ATOM     15  C   UNL     1      -1.155   6.532  17.486  0.00  0.00    +0.000 A 
ATOM     16  C   UNL     1      -1.118   6.984  18.802  0.00  0.00    +0.000 A 
ENDBRANCH  10  11
ENDBRANCH   1  10
TORSDOF 2
ENDMDL
MODEL 8
REMARK VINA RESULT:    -4.338     26.102     26.733
REMARK INTER + INTRA:          -4.947
REMARK INTER:                  -4.806
REMARK INTRA:                  -0.141
REMARK UNBOUND:                -0.102
REMARK  Name = 1550473
REMARK  2 active torsions:
REMARK  status: ('A' for Active; 'I' for Inactive)
REMARK    1  A    between atoms: N_1  and  C_4
REMARK    2  A    between atoms: C_4  and  C_5
REMARK                            x       y       z     vdW  Elec       q    Type
REMARK                         _______ _______ _______ _____ _____    ______ ____
ROOT
ATOM      1  N   UNL     1       5.078 -18.445  -3.760  0.00  0.00    -0.354 N 
ATOM      2  N   UNL     1       4.988 -18.712  -1.461  0.00  0.00    -0.372 N 
ATOM      3  N   UNL     1       3.531 -17.252  -2.466  0.00  0.00    -0.372 N 
ATOM      4  C   UNL     1       4.531 -18.133  -2.578  0.00  0.00    +0.166 C 
ATOM      5  H   UNL     1       5.853 -19.098  -3.774  0.00  0.00    +0.163 HD
ATOM      6  H   UNL     1       4.593 -18.498  -0.555  0.00  0.00    +0.159 HD
ATOM      7  H   UNL     1       5.733 -19.398  -1.483  0.00  0.00    +0.159 HD
ATOM      8  H   UNL     1       3.145 -16.775  -3.270  0.00  0.00    +0.159 HD
ATOM      9  H   UNL     1       3.130 -17.016  -1.566  0.00  0.00    +0.159 HD
ENDROOT
BRANCH   1  10
ATOM     10  C   UNL     1       4.617 -17.911  -5.041  0.00  0.00    +0.151 C 
BRANCH  10  11
ATOM     11  C   UNL     1       5.798 -17.376  -5.803  0.00  0.00    -0.028 A 
ATOM     12  C   UNL     1       6.835 -16.711  -5.133  0.00  0.00    +0.005 A 
ATOM     13  C   UNL     1       5.888 -17.537  -7.194  0.00  0.00    +0.005 A 
ATOM     14  C   UNL     1       7.946 -16.240  -5.837  0.00  0.00    +0.000 A 
ATOM     15  C   UNL     1       6.999 -17.065  -7.893  0.00  0.00    +0.000 A 
ATOM     16  C   UNL     1       8.029 -16.418  -7.213  0.00  0.00    +0.000 A 
ENDBRANCH  10  11
ENDBRANCH   1  10
TORSDOF 2
ENDMDL
MODEL 9
REMARK VINA RESULT:    -4.332     25.783     26.623
REMARK INTER + INTRA:          -4.940
REMARK INTER:                  -4.798
REMARK INTRA:                  -0.142
REMARK UNBOUND:                -0.102
REMARK  Name = 1550473
REMARK  2 active torsions:
REMARK  status: ('A' for Active; 'I' for Inactive)
REMARK    1  A    between atoms: N_1  and  C_4
REMARK    2  A    between atoms: C_4  and  C_5
REMARK                            x       y       z     vdW  Elec       q    Type
REMARK                         _______ _______ _______ _____ _____    ______ ____
ROOT
ATOM      1  N   UNL     1      -0.147   3.208 -13.429  0.00  0.00    -0.354 N 
ATOM      2  N   UNL     1       1.039   1.543 -14.517  0.00  0.00    -0.372 N 
ATOM      3  N   UNL     1       1.519   3.736 -14.990  0.00  0.00    -0.372 N 
ATOM      4  C   UNL     1       0.797   2.842 -14.306  0.00  0.00    +0.166 C 
ATOM      5  H   UNL     1      -0.681   2.482 -12.965  0.00  0.00    +0.163 HD
ATOM      6  H   UNL     1       1.748   1.236 -15.170  0.00  0.00    +0.159 HD
ATOM      7  H   UNL     1       0.536   0.819 -14.018  0.00  0.00    +0.159 HD
ATOM      8  H   UNL     1       1.381   4.732 -14.881  0.00  0.00    +0.159 HD
ATOM      9  H   UNL     1       2.225   3.449 -15.657  0.00  0.00    +0.159 HD
ENDROOT
BRANCH   1  10
ATOM     10  C   UNL     1      -0.452   4.596 -13.087  0.00  0.00    +0.151 C 
BRANCH  10  11
ATOM     11  C   UNL     1      -1.940   4.801 -13.143  0.00  0.00    -0.028 A 
ATOM     12  C   UNL     1      -2.507   6.022 -12.749  0.00  0.00    +0.005 A 
ATOM     13  C   UNL     1      -2.790   3.779 -13.596  0.00  0.00    +0.005 A 
ATOM     14  C   UNL     1      -3.887   6.223 -12.829  0.00  0.00    +0.000 A 
ATOM     15  C   UNL     1      -4.167   3.984 -13.674  0.00  0.00    +0.000 A 
ATOM     16  C   UNL     1      -4.715   5.206 -13.293  0.00  0.00    +0.000 A 
ENDBRANCH  10  11
ENDBRANCH   1  10
TORSDOF 2
ENDMDL
