MODEL 1
REMARK VINA RESULT:    -7.173      0.000      0.000
REMARK INTER + INTRA:          -8.003
REMARK INTER:                  -8.012
REMARK INTRA:                   0.009
REMARK UNBOUND:                 0.009
REMARK  Name = 1550473
REMARK  2 active torsions:
REMARK  status: ('A' for Active; 'I' for Inactive)
REMARK    1  A    between atoms: N_1  and  C_4
REMARK    2  A    between atoms: C_4  and  C_5
REMARK                            x       y       z     vdW  Elec       q    Type
REMARK                         _______ _______ _______ _____ _____    ______ ____
ROOT
ATOM      1  N   UNL     1      -3.749  -5.305 -11.421  0.00  0.00    -0.354 N 
ATOM      2  N   UNL     1      -1.695  -5.681 -10.418  0.00  0.00    -0.372 N 
ATOM      3  N   UNL     1      -2.558  -3.555 -10.415  0.00  0.00    -0.372 N 
ATOM      4  C   UNL     1      -2.681  -4.841 -10.758  0.00  0.00    +0.166 C 
ATOM      5  H   UNL     1      -3.768  -6.285 -11.678  0.00  0.00    +0.163 HD
ATOM      6  H   UNL     1      -0.879  -5.361  -9.915  0.00  0.00    +0.159 HD
ATOM      7  H   UNL     1      -1.738  -6.669 -10.636  0.00  0.00    +0.159 HD
ATOM      8  H   UNL     1      -3.265  -2.869 -10.647  0.00  0.00    +0.159 HD
ATOM      9  H   UNL     1      -1.743  -3.213  -9.921  0.00  0.00    +0.159 HD
ENDROOT
BRANCH   1  10
ATOM     10  C   UNL     1      -4.901  -4.485 -11.790  0.00  0.00    +0.151 C 
BRANCH  10  11
ATOM     11  C   UNL     1      -4.787  -4.101 -13.240  0.00  0.00    -0.028 A 
ATOM     12  C   UNL     1      -5.907  -3.637 -13.944  0.00  0.00    +0.005 A 
ATOM     13  C   UNL     1      -3.559  -4.194 -13.913  0.00  0.00    +0.005 A 
ATOM     14  C   UNL     1      -5.795  -3.252 -15.283  0.00  0.00    +0.000 A 
ATOM     15  C   UNL     1      -3.451  -3.809 -15.250  0.00  0.00    +0.000 A 
ATOM     16  C   UNL     1      -4.569  -3.336 -15.933  0.00  0.00    +0.000 A 
ENDBRANCH  10  11
ENDBRANCH   1  10
TORSDOF 2
ENDMDL
MODEL 2
REMARK VINA RESULT:    -6.975      2.740      3.659
REMARK INTER + INTRA:          -7.781
REMARK INTER:                  -7.640
REMARK INTRA:                  -0.141
REMARK UNBOUND:                 0.009
REMARK  Name = 1550473
REMARK  2 active torsions:
REMARK  status: ('A' for Active; 'I' for Inactive)
REMARK    1  A    between atoms: N_1  and  C_4
REMARK    2  A    between atoms: C_4  and  C_5
REMARK                            x       y       z     vdW  Elec       q    Type
REMARK                         _______ _______ _______ _____ _____    ______ ____
ROOT
ATOM      1  N   UNL     1      -5.316  -7.075  -9.275  0.00  0.00    -0.354 N 
ATOM      2  N   UNL     1      -4.256  -8.753  -8.082  0.00  0.00    -0.372 N 
ATOM      3  N   UNL     1      -4.225  -6.614  -7.253  0.00  0.00    -0.372 N 
ATOM      4  C   UNL     1      -4.605  -7.467  -8.210  0.00  0.00    +0.166 C 
ATOM      5  H   UNL     1      -5.547  -7.765  -9.980  0.00  0.00    +0.163 HD
ATOM      6  H   UNL     1      -3.723  -9.079  -7.287  0.00  0.00    +0.159 HD
ATOM      7  H   UNL     1      -4.528  -9.449  -8.765  0.00  0.00    +0.159 HD
ATOM      8  H   UNL     1      -4.451  -5.629  -7.293  0.00  0.00    +0.159 HD
ATOM      9  H   UNL     1      -3.680  -6.919  -6.456  0.00  0.00    +0.159 HD
ENDROOT
BRANCH   1  10
ATOM     10  C   UNL     1      -5.793  -5.708  -9.482  0.00  0.00    +0.151 C 
BRANCH  10  11
ATOM     11  C   UNL     1      -5.274  -5.201 -10.799  0.00  0.00    -0.028 A 
ATOM     12  C   UNL     1      -3.932  -5.393 -11.158  0.00  0.00    +0.005 A 
ATOM     13  C   UNL     1      -6.122  -4.533 -11.696  0.00  0.00    +0.005 A 
ATOM     14  C   UNL     1      -3.458  -4.949 -12.394  0.00  0.00    +0.000 A 
ATOM     15  C   UNL     1      -5.644  -4.091 -12.930  0.00  0.00    +0.000 A 
ATOM     16  C   UNL     1      -4.313  -4.301 -13.279  0.00  0.00    +0.000 A 
ENDBRANCH  10  11
ENDBRANCH   1  10
TORSDOF 2
ENDMDL
MODEL 3
REMARK VINA RESULT:    -5.775      3.962      5.869
REMARK INTER + INTRA:          -6.441
REMARK INTER:                  -6.282
REMARK INTRA:                  -0.159
REMARK UNBOUND:                 0.009
REMARK  Name = 1550473
REMARK  2 active torsions:
REMARK  status: ('A' for Active; 'I' for Inactive)
REMARK    1  A    between atoms: N_1  and  C_4
REMARK    2  A    between atoms: C_4  and  C_5
REMARK                            x       y       z     vdW  Elec       q    Type
REMARK                         _______ _______ _______ _____ _____    ______ ____
ROOT
ATOM      1  N   UNL     1      -3.544  -5.801  -9.447  0.00  0.00    -0.354 N 
ATOM      2  N   UNL     1      -1.613  -5.313 -10.629  0.00  0.00    -0.372 N 
ATOM      3  N   UNL     1      -3.632  -5.211 -11.713  0.00  0.00    -0.372 N 
ATOM      4  C   UNL     1      -2.944  -5.445 -10.591  0.00  0.00    +0.166 C 
ATOM      5  H   UNL     1      -2.963  -5.993  -8.639  0.00  0.00    +0.163 HD
ATOM      6  H   UNL     1      -1.133  -5.042 -11.476  0.00  0.00    +0.159 HD
ATOM      7  H   UNL     1      -1.039  -5.461  -9.807  0.00  0.00    +0.159 HD
ATOM      8  H   UNL     1      -4.639  -5.299 -11.752  0.00  0.00    +0.159 HD
ATOM      9  H   UNL     1      -3.169  -4.950 -12.575  0.00  0.00    +0.159 HD
ENDROOT
BRANCH   1  10
ATOM     10  C   UNL     1      -4.992  -5.920  -9.285  0.00  0.00    +0.151 C 
BRANCH  10  11
ATOM     11  C   UNL     1      -5.354  -7.374  -9.155  0.00  0.00    -0.028 A 
ATOM     12  C   UNL     1      -6.437  -7.905  -9.871  0.00  0.00    +0.005 A 
ATOM     13  C   UNL     1      -4.614  -8.227  -8.321  0.00  0.00    +0.005 A 
ATOM     14  C   UNL     1      -6.755  -9.262  -9.773  0.00  0.00    +0.000 A 
ATOM     15  C   UNL     1      -4.935  -9.581  -8.226  0.00  0.00    +0.000 A 
ATOM     16  C   UNL     1      -6.004 -10.098  -8.954  0.00  0.00    +0.000 A 
ENDBRANCH  10  11
ENDBRANCH   1  10
TORSDOF 2
ENDMDL
MODEL 4
REMARK VINA RESULT:    -5.517     11.625     12.665
REMARK INTER + INTRA:          -6.153
REMARK INTER:                  -6.039
REMARK INTRA:                  -0.114
REMARK UNBOUND:                 0.009
REMARK  Name = 1550473
REMARK  2 active torsions:
REMARK  status: ('A' for Active; 'I' for Inactive)
REMARK    1  A    between atoms: N_1  and  C_4
REMARK    2  A    between atoms: C_4  and  C_5
REMARK                            x       y       z     vdW  Elec       q    Type
REMARK                         _______ _______ _______ _____ _____    ______ ____
ROOT
ATOM      1  N   UNL     1      -3.126 -11.489 -22.776  0.00  0.00    -0.354 N 
ATOM      2  N   UNL     1      -4.383 -12.159 -24.603  0.00  0.00    -0.372 N 
ATOM      3  N   UNL     1      -4.445  -9.957 -23.961  0.00  0.00    -0.372 N 
ATOM      4  C   UNL     1      -3.977 -11.194 -23.768  0.00  0.00    +0.166 C 
ATOM      5  H   UNL     1      -2.832 -12.452 -22.664  0.00  0.00    +0.163 HD
ATOM      6  H   UNL     1      -5.022 -11.966 -25.362  0.00  0.00    +0.159 HD
ATOM      7  H   UNL     1      -4.052 -13.112 -24.517  0.00  0.00    +0.159 HD
ATOM      8  H   UNL     1      -4.182  -9.185 -23.363  0.00  0.00    +0.159 HD
ATOM      9  H   UNL     1      -5.095  -9.746 -24.709  0.00  0.00    +0.159 HD
ENDROOT
BRANCH   1  10
ATOM     10  C   UNL     1      -2.582 -10.502 -21.846  0.00  0.00    +0.151 C 
BRANCH  10  11
ATOM     11  C   UNL     1      -1.178 -10.896 -21.478  0.00  0.00    -0.028 A 
ATOM     12  C   UNL     1      -0.871 -12.228 -21.165  0.00  0.00    +0.005 A 
ATOM     13  C   UNL     1      -0.149  -9.942 -21.444  0.00  0.00    +0.005 A 
ATOM     14  C   UNL     1       0.439 -12.600 -20.853  0.00  0.00    +0.000 A 
ATOM     15  C   UNL     1       1.157 -10.317 -21.131  0.00  0.00    +0.000 A 
ATOM     16  C   UNL     1       1.451 -11.647 -20.837  0.00  0.00    +0.000 A 
ENDBRANCH  10  11
ENDBRANCH   1  10
TORSDOF 2
ENDMDL
MODEL 5
REMARK VINA RESULT:    -5.516     11.006     12.138
REMARK INTER + INTRA:          -6.152
REMARK INTER:                  -6.008
REMARK INTRA:                  -0.144
REMARK UNBOUND:                 0.009
REMARK  Name = 1550473
REMARK  2 active torsions:
REMARK  status: ('A' for Active; 'I' for Inactive)
REMARK    1  A    between atoms: N_1  and  C_4
REMARK    2  A    between atoms: C_4  and  C_5
REMARK                            x       y       z     vdW  Elec       q    Type
REMARK                         _______ _______ _______ _____ _____    ______ ____
ROOT
ATOM      1  N   UNL     1      -3.979 -10.301 -21.492  0.00  0.00    -0.354 N 
ATOM      2  N   UNL     1      -5.442  -8.638 -22.168  0.00  0.00    -0.372 N 
ATOM      3  N   UNL     1      -4.580 -10.065 -23.744  0.00  0.00    -0.372 N 
ATOM      4  C   UNL     1      -4.657  -9.680 -22.466  0.00  0.00    +0.166 C 
ATOM      5  H   UNL     1      -4.056  -9.941 -20.547  0.00  0.00    +0.163 HD
ATOM      6  H   UNL     1      -5.968  -8.151 -22.881  0.00  0.00    +0.159 HD
ATOM      7  H   UNL     1      -5.553  -8.309 -21.216  0.00  0.00    +0.159 HD
ATOM      8  H   UNL     1      -4.001 -10.840 -24.036  0.00  0.00    +0.159 HD
ATOM      9  H   UNL     1      -5.090  -9.583 -24.474  0.00  0.00    +0.159 HD
ENDROOT
BRANCH   1  10
ATOM     10  C   UNL     1      -3.139 -11.478 -21.703  0.00  0.00    +0.151 C 
BRANCH  10  11
ATOM     11  C   UNL     1      -3.570 -12.566 -20.758  0.00  0.00    -0.028 A 
ATOM     12  C   UNL     1      -2.687 -13.056 -19.785  0.00  0.00    +0.005 A 
ATOM     13  C   UNL     1      -4.864 -13.106 -20.826  0.00  0.00    +0.005 A 
ATOM     14  C   UNL     1      -3.097 -14.045 -18.888  0.00  0.00    +0.000 A 
ATOM     15  C   UNL     1      -5.269 -14.093 -19.928  0.00  0.00    +0.000 A 
ATOM     16  C   UNL     1      -4.386 -14.561 -18.958  0.00  0.00    +0.000 A 
ENDBRANCH  10  11
ENDBRANCH   1  10
TORSDOF 2
ENDMDL
MODEL 6
REMARK VINA RESULT:    -5.438     12.995     14.464
REMARK INTER + INTRA:          -6.065
REMARK INTER:                  -5.921
REMARK INTRA:                  -0.144
REMARK UNBOUND:                 0.009
REMARK  Name = 1550473
REMARK  2 active torsions:
REMARK  status: ('A' for Active; 'I' for Inactive)
REMARK    1  A    between atoms: N_1  and  C_4
REMARK    2  A    between atoms: C_4  and  C_5
REMARK                            x       y       z     vdW  Elec       q    Type
REMARK                         _______ _______ _______ _____ _____    ______ ____
ROOT
ATOM      1  N   UNL     1      -4.191  -9.530 -24.814  0.00  0.00    -0.354 N 
ATOM      2  N   UNL     1      -4.478  -8.436 -22.793  0.00  0.00    -0.372 N 
ATOM      3  N   UNL     1      -2.507  -9.543 -23.184  0.00  0.00    -0.372 N 
ATOM      4  C   UNL     1      -3.721  -9.178 -23.610  0.00  0.00    +0.166 C 
ATOM      5  H   UNL     1      -5.131  -9.247 -25.065  0.00  0.00    +0.163 HD
ATOM      6  H   UNL     1      -4.149  -8.152 -21.880  0.00  0.00    +0.159 HD
ATOM      7  H   UNL     1      -5.399  -8.115 -23.065  0.00  0.00    +0.159 HD
ATOM      8  H   UNL     1      -1.889 -10.109 -23.750  0.00  0.00    +0.159 HD
ATOM      9  H   UNL     1      -2.164  -9.279 -22.269  0.00  0.00    +0.159 HD
ENDROOT
BRANCH   1  10
ATOM     10  C   UNL     1      -3.426 -10.292 -25.799  0.00  0.00    +0.151 C 
BRANCH  10  11
ATOM     11  C   UNL     1      -3.399  -9.530 -27.095  0.00  0.00    -0.028 A 
ATOM     12  C   UNL     1      -2.455  -9.841 -28.085  0.00  0.00    +0.005 A 
ATOM     13  C   UNL     1      -4.318  -8.499 -27.343  0.00  0.00    +0.005 A 
ATOM     14  C   UNL     1      -2.448  -9.153 -29.301  0.00  0.00    +0.000 A 
ATOM     15  C   UNL     1      -4.308  -7.814 -28.558  0.00  0.00    +0.000 A 
ATOM     16  C   UNL     1      -3.375  -8.143 -29.537  0.00  0.00    +0.000 A 
ENDBRANCH  10  11
ENDBRANCH   1  10
TORSDOF 2
ENDMDL
MODEL 7
REMARK VINA RESULT:    -5.406     10.820     11.937
REMARK INTER + INTRA:          -6.029
REMARK INTER:                  -5.871
REMARK INTRA:                  -0.158
REMARK UNBOUND:                 0.009
REMARK  Name = 1550473
REMARK  2 active torsions:
REMARK  status: ('A' for Active; 'I' for Inactive)
REMARK    1  A    between atoms: N_1  and  C_4
REMARK    2  A    between atoms: C_4  and  C_5
REMARK                            x       y       z     vdW  Elec       q    Type
REMARK                         _______ _______ _______ _____ _____    ______ ____
ROOT
ATOM      1  N   UNL     1      -1.638 -10.605 -20.231  0.00  0.00    -0.354 N 
ATOM      2  N   UNL     1      -2.492  -9.113 -21.782  0.00  0.00    -0.372 N 
ATOM      3  N   UNL     1      -0.594  -8.544 -20.625  0.00  0.00    -0.372 N 
ATOM      4  C   UNL     1      -1.567  -9.429 -20.868  0.00  0.00    +0.166 C 
ATOM      5  H   UNL     1      -2.417 -11.219 -20.439  0.00  0.00    +0.163 HD
ATOM      6  H   UNL     1      -2.463  -8.234 -22.281  0.00  0.00    +0.159 HD
ATOM      7  H   UNL     1      -3.244  -9.747 -22.021  0.00  0.00    +0.159 HD
ATOM      8  H   UNL     1       0.131  -8.720 -19.943  0.00  0.00    +0.159 HD
ATOM      9  H   UNL     1      -0.554  -7.655 -21.106  0.00  0.00    +0.159 HD
ENDROOT
BRANCH   1  10
ATOM     10  C   UNL     1      -0.651 -11.069 -19.258  0.00  0.00    +0.151 C 
BRANCH  10  11
ATOM     11  C   UNL     1       0.317 -11.995 -19.942  0.00  0.00    -0.028 A 
ATOM     12  C   UNL     1       0.068 -13.374 -19.992  0.00  0.00    +0.005 A 
ATOM     13  C   UNL     1       1.481 -11.498 -20.548  0.00  0.00    +0.005 A 
ATOM     14  C   UNL     1       0.952 -14.231 -20.653  0.00  0.00    +0.000 A 
ATOM     15  C   UNL     1       2.361 -12.357 -21.207  0.00  0.00    +0.000 A 
ATOM     16  C   UNL     1       2.094 -13.722 -21.261  0.00  0.00    +0.000 A 
ENDBRANCH  10  11
ENDBRANCH   1  10
TORSDOF 2
ENDMDL
MODEL 8
REMARK VINA RESULT:    -5.233      5.653      6.709
REMARK INTER + INTRA:          -5.836
REMARK INTER:                  -5.694
REMARK INTRA:                  -0.142
REMARK UNBOUND:                 0.009
REMARK  Name = 1550473
REMARK  2 active torsions:
REMARK  status: ('A' for Active; 'I' for Inactive)
REMARK    1  A    between atoms: N_1  and  C_4
REMARK    2  A    between atoms: C_4  and  C_5
REMARK                            x       y       z     vdW  Elec       q    Type
REMARK                         _______ _______ _______ _____ _____    ______ ____
ROOT
ATOM      1  N   UNL     1      -5.480  -7.734  -8.082  0.00  0.00    -0.354 N 
ATOM      2  N   UNL     1      -5.522  -5.422  -7.948  0.00  0.00    -0.372 N 
ATOM      3  N   UNL     1      -3.729  -6.443  -8.952  0.00  0.00    -0.372 N 
ATOM      4  C   UNL     1      -4.907  -6.548  -8.329  0.00  0.00    +0.166 C 
ATOM      5  H   UNL     1      -6.361  -7.748  -7.580  0.00  0.00    +0.163 HD
ATOM      6  H   UNL     1      -5.115  -4.513  -8.124  0.00  0.00    +0.159 HD
ATOM      7  H   UNL     1      -6.423  -5.437  -7.487  0.00  0.00    +0.159 HD
ATOM      8  H   UNL     1      -3.211  -7.255  -9.260  0.00  0.00    +0.159 HD
ATOM      9  H   UNL     1      -3.300  -5.542  -9.126  0.00  0.00    +0.159 HD
ENDROOT
BRANCH   1  10
ATOM     10  C   UNL     1      -4.920  -9.017  -8.504  0.00  0.00    +0.151 C 
BRANCH  10  11
ATOM     11  C   UNL     1      -5.866  -9.671  -9.472  0.00  0.00    -0.028 A 
ATOM     12  C   UNL     1      -7.148  -9.143  -9.683  0.00  0.00    +0.005 A 
ATOM     13  C   UNL     1      -5.485 -10.818 -10.186  0.00  0.00    +0.005 A 
ATOM     14  C   UNL     1      -8.017  -9.733 -10.604  0.00  0.00    +0.000 A 
ATOM     15  C   UNL     1      -6.355 -11.405 -11.105  0.00  0.00    +0.000 A 
ATOM     16  C   UNL     1      -7.620 -10.861 -11.315  0.00  0.00    +0.000 A 
ENDBRANCH  10  11
ENDBRANCH   1  10
TORSDOF 2
ENDMDL
MODEL 9
REMARK VINA RESULT:    -5.122     10.429     11.828
REMARK INTER + INTRA:          -5.712
REMARK INTER:                  -5.578
REMARK INTRA:                  -0.134
REMARK UNBOUND:                 0.009
REMARK  Name = 1550473
REMARK  2 active torsions:
REMARK  status: ('A' for Active; 'I' for Inactive)
REMARK    1  A    between atoms: N_1  and  C_4
REMARK    2  A    between atoms: C_4  and  C_5
REMARK                            x       y       z     vdW  Elec       q    Type
REMARK                         _______ _______ _______ _____ _____    ______ ____
ROOT
ATOM      1  N   UNL     1      -2.675  -9.565 -22.331  0.00  0.00    -0.354 N 
ATOM      2  N   UNL     1      -4.587  -9.875 -23.601  0.00  0.00    -0.372 N 
ATOM      3  N   UNL     1      -4.774  -9.797 -21.315  0.00  0.00    -0.372 N 
ATOM      4  C   UNL     1      -4.001  -9.744 -22.405  0.00  0.00    +0.166 C 
ATOM      5  H   UNL     1      -2.141  -9.564 -23.193  0.00  0.00    +0.163 HD
ATOM      6  H   UNL     1      -5.586 -10.007 -23.688  0.00  0.00    +0.159 HD
ATOM      7  H   UNL     1      -4.057  -9.827 -24.462  0.00  0.00    +0.159 HD
ATOM      8  H   UNL     1      -4.392  -9.711 -20.383  0.00  0.00    +0.159 HD
ATOM      9  H   UNL     1      -5.774  -9.941 -21.381  0.00  0.00    +0.159 HD
ENDROOT
BRANCH   1  10
ATOM     10  C   UNL     1      -1.946  -9.358 -21.081  0.00  0.00    +0.151 C 
BRANCH  10  11
ATOM     11  C   UNL     1      -0.730 -10.243 -21.069  0.00  0.00    -0.028 A 
ATOM     12  C   UNL     1       0.557  -9.686 -21.055  0.00  0.00    +0.005 A 
ATOM     13  C   UNL     1      -0.858 -11.641 -21.067  0.00  0.00    +0.005 A 
ATOM     14  C   UNL     1       1.686 -10.507 -21.013  0.00  0.00    +0.000 A 
ATOM     15  C   UNL     1       0.271 -12.458 -21.026  0.00  0.00    +0.000 A 
ATOM     16  C   UNL     1       1.543 -11.891 -20.997  0.00  0.00    +0.000 A 
ENDBRANCH  10  11
ENDBRANCH   1  10
TORSDOF 2
ENDMDL
