MODEL 1
REMARK VINA RESULT:    -4.898      0.000      0.000
REMARK INTER + INTRA:          -5.645
REMARK INTER:                  -5.470
REMARK INTRA:                  -0.174
REMARK UNBOUND:                -0.174
REMARK  Name = 1550473
REMARK  2 active torsions:
REMARK  status: ('A' for Active; 'I' for Inactive)
REMARK    1  A    between atoms: N_1  and  C_4
REMARK    2  A    between atoms: C_4  and  C_5
REMARK                            x       y       z     vdW  Elec       q    Type
REMARK                         _______ _______ _______ _____ _____    ______ ____
ROOT
ATOM      1  N   UNL     1      17.169   3.783   1.015  0.00  0.00    -0.354 N 
ATOM      2  N   UNL     1      16.246   4.405   3.046  0.00  0.00    -0.372 N 
ATOM      3  N   UNL     1      18.489   3.933   2.946  0.00  0.00    -0.372 N 
ATOM      4  C   UNL     1      17.310   4.036   2.323  0.00  0.00    +0.166 C 
ATOM      5  H   UNL     1      16.243   3.850   0.609  0.00  0.00    +0.163 HD
ATOM      6  H   UNL     1      16.322   4.606   4.034  0.00  0.00    +0.159 HD
ATOM      7  H   UNL     1      15.330   4.516   2.628  0.00  0.00    +0.159 HD
ATOM      8  H   UNL     1      19.329   3.653   2.458  0.00  0.00    +0.159 HD
ATOM      9  H   UNL     1      18.583   4.118   3.937  0.00  0.00    +0.159 HD
ENDROOT
BRANCH   1  10
ATOM     10  C   UNL     1      18.275   3.427   0.127  0.00  0.00    +0.151 C 
BRANCH  10  11
ATOM     11  C   UNL     1      18.189   1.962  -0.200  0.00  0.00    -0.028 A 
ATOM     12  C   UNL     1      18.763   1.007   0.652  0.00  0.00    +0.005 A 
ATOM     13  C   UNL     1      17.529   1.521  -1.358  0.00  0.00    +0.005 A 
ATOM     14  C   UNL     1      18.657  -0.356   0.363  0.00  0.00    +0.000 A 
ATOM     15  C   UNL     1      17.427   0.160  -1.643  0.00  0.00    +0.000 A 
ATOM     16  C   UNL     1      17.989  -0.779  -0.781  0.00  0.00    +0.000 A 
ENDBRANCH  10  11
ENDBRANCH   1  10
TORSDOF 2
ENDMDL
MODEL 2
REMARK VINA RESULT:    -4.758      9.458     11.050
REMARK INTER + INTRA:          -5.489
REMARK INTER:                  -5.388
REMARK INTRA:                  -0.101
REMARK UNBOUND:                -0.174
REMARK  Name = 1550473
REMARK  2 active torsions:
REMARK  status: ('A' for Active; 'I' for Inactive)
REMARK    1  A    between atoms: N_1  and  C_4
REMARK    2  A    between atoms: C_4  and  C_5
REMARK                            x       y       z     vdW  Elec       q    Type
REMARK                         _______ _______ _______ _____ _____    ______ ____
ROOT
ATOM      1  N   UNL     1      11.784   8.323  -0.040  0.00  0.00    -0.354 N 
ATOM      2  N   UNL     1      13.232   9.173   1.555  0.00  0.00    -0.372 N 
ATOM      3  N   UNL     1      13.389   9.935  -0.604  0.00  0.00    -0.372 N 
ATOM      4  C   UNL     1      12.793   9.139   0.291  0.00  0.00    +0.166 C 
ATOM      5  H   UNL     1      11.395   7.723   0.678  0.00  0.00    +0.163 HD
ATOM      6  H   UNL     1      13.990   9.782   1.835  0.00  0.00    +0.159 HD
ATOM      7  H   UNL     1      12.811   8.606   2.280  0.00  0.00    +0.159 HD
ATOM      8  H   UNL     1      13.109   9.952  -1.576  0.00  0.00    +0.159 HD
ATOM      9  H   UNL     1      14.157  10.542  -0.346  0.00  0.00    +0.159 HD
ENDROOT
BRANCH   1  10
ATOM     10  C   UNL     1      11.196   8.250  -1.377  0.00  0.00    +0.151 C 
BRANCH  10  11
ATOM     11  C   UNL     1       9.867   8.953  -1.368  0.00  0.00    -0.028 A 
ATOM     12  C   UNL     1       9.792  10.329  -1.107  0.00  0.00    +0.005 A 
ATOM     13  C   UNL     1       8.680   8.251  -1.625  0.00  0.00    +0.005 A 
ATOM     14  C   UNL     1       8.561  10.989  -1.129  0.00  0.00    +0.000 A 
ATOM     15  C   UNL     1       7.453   8.913  -1.645  0.00  0.00    +0.000 A 
ATOM     16  C   UNL     1       7.394  10.283  -1.399  0.00  0.00    +0.000 A 
ENDBRANCH  10  11
ENDBRANCH   1  10
TORSDOF 2
ENDMDL
MODEL 3
REMARK VINA RESULT:    -4.372      3.270      4.672
REMARK INTER + INTRA:          -5.057
REMARK INTER:                  -4.886
REMARK INTRA:                  -0.171
REMARK UNBOUND:                -0.174
REMARK  Name = 1550473
REMARK  2 active torsions:
REMARK  status: ('A' for Active; 'I' for Inactive)
REMARK    1  A    between atoms: N_1  and  C_4
REMARK    2  A    between atoms: C_4  and  C_5
REMARK                            x       y       z     vdW  Elec       q    Type
REMARK                         _______ _______ _______ _____ _____    ______ ____
ROOT
ATOM      1  N   UNL     1      17.051   0.102  -1.845  0.00  0.00    -0.354 N 
ATOM      2  N   UNL     1      15.433  -1.551  -1.952  0.00  0.00    -0.372 N 
ATOM      3  N   UNL     1      17.286  -1.896  -0.643  0.00  0.00    -0.372 N 
ATOM      4  C   UNL     1      16.603  -1.106  -1.478  0.00  0.00    +0.166 C 
ATOM      5  H   UNL     1      16.501   0.640  -2.504  0.00  0.00    +0.163 HD
ATOM      6  H   UNL     1      15.067  -2.457  -1.690  0.00  0.00    +0.159 HD
ATOM      7  H   UNL     1      14.863  -0.992  -2.575  0.00  0.00    +0.159 HD
ATOM      8  H   UNL     1      18.178  -1.621  -0.255  0.00  0.00    +0.159 HD
ATOM      9  H   UNL     1      16.942  -2.811  -0.378  0.00  0.00    +0.159 HD
ENDROOT
BRANCH   1  10
ATOM     10  C   UNL     1      18.286   0.703  -1.343  0.00  0.00    +0.151 C 
BRANCH  10  11
ATOM     11  C   UNL     1      17.945   1.720  -0.290  0.00  0.00    -0.028 A 
ATOM     12  C   UNL     1      18.622   1.727   0.939  0.00  0.00    +0.005 A 
ATOM     13  C   UNL     1      16.950   2.683  -0.516  0.00  0.00    +0.005 A 
ATOM     14  C   UNL     1      18.326   2.690   1.906  0.00  0.00    +0.000 A 
ATOM     15  C   UNL     1      16.657   3.643   0.453  0.00  0.00    +0.000 A 
ATOM     16  C   UNL     1      17.347   3.648   1.663  0.00  0.00    +0.000 A 
ENDBRANCH  10  11
ENDBRANCH   1  10
TORSDOF 2
ENDMDL
MODEL 4
REMARK VINA RESULT:    -4.315     12.448     13.135
REMARK INTER + INTRA:          -4.993
REMARK INTER:                  -4.838
REMARK INTRA:                  -0.156
REMARK UNBOUND:                -0.174
REMARK  Name = 1550473
REMARK  2 active torsions:
REMARK  status: ('A' for Active; 'I' for Inactive)
REMARK    1  A    between atoms: N_1  and  C_4
REMARK    2  A    between atoms: C_4  and  C_5
REMARK                            x       y       z     vdW  Elec       q    Type
REMARK                         _______ _______ _______ _____ _____    ______ ____
ROOT
ATOM      1  N   UNL     1      23.698   9.579  10.598  0.00  0.00    -0.354 N 
ATOM      2  N   UNL     1      21.822  10.492   9.593  0.00  0.00    -0.372 N 
ATOM      3  N   UNL     1      21.556   8.752  11.066  0.00  0.00    -0.372 N 
ATOM      4  C   UNL     1      22.370   9.600  10.427  0.00  0.00    +0.166 C 
ATOM      5  H   UNL     1      24.263  10.228  10.062  0.00  0.00    +0.163 HD
ATOM      6  H   UNL     1      20.822  10.534   9.447  0.00  0.00    +0.159 HD
ATOM      7  H   UNL     1      22.384  11.170   9.093  0.00  0.00    +0.159 HD
ATOM      8  H   UNL     1      21.907   8.051  11.704  0.00  0.00    +0.159 HD
ATOM      9  H   UNL     1      20.554   8.771  10.924  0.00  0.00    +0.159 HD
ENDROOT
BRANCH   1  10
ATOM     10  C   UNL     1      24.390   8.683  11.523  0.00  0.00    +0.151 C 
BRANCH  10  11
ATOM     11  C   UNL     1      24.969   7.531  10.750  0.00  0.00    -0.028 A 
ATOM     12  C   UNL     1      25.108   6.270  11.349  0.00  0.00    +0.005 A 
ATOM     13  C   UNL     1      25.375   7.691   9.416  0.00  0.00    +0.005 A 
ATOM     14  C   UNL     1      25.618   5.192  10.622  0.00  0.00    +0.000 A 
ATOM     15  C   UNL     1      25.884   6.612   8.694  0.00  0.00    +0.000 A 
ATOM     16  C   UNL     1      26.003   5.362   9.297  0.00  0.00    +0.000 A 
ENDBRANCH  10  11
ENDBRANCH   1  10
TORSDOF 2
ENDMDL
MODEL 5
REMARK VINA RESULT:    -4.276      1.781      2.638
REMARK INTER + INTRA:          -4.950
REMARK INTER:                  -4.838
REMARK INTRA:                  -0.112
REMARK UNBOUND:                -0.174
REMARK  Name = 1550473
REMARK  2 active torsions:
REMARK  status: ('A' for Active; 'I' for Inactive)
REMARK    1  A    between atoms: N_1  and  C_4
REMARK    2  A    between atoms: C_4  and  C_5
REMARK                            x       y       z     vdW  Elec       q    Type
REMARK                         _______ _______ _______ _____ _____    ______ ____
ROOT
ATOM      1  N   UNL     1      18.458   2.020   1.450  0.00  0.00    -0.354 N 
ATOM      2  N   UNL     1      18.206   3.921   2.749  0.00  0.00    -0.372 N 
ATOM      3  N   UNL     1      18.141   4.122   0.464  0.00  0.00    -0.372 N 
ATOM      4  C   UNL     1      18.270   3.343   1.544  0.00  0.00    +0.166 C 
ATOM      5  H   UNL     1      18.578   1.489   2.306  0.00  0.00    +0.163 HD
ATOM      6  H   UNL     1      18.062   4.917   2.851  0.00  0.00    +0.159 HD
ATOM      7  H   UNL     1      18.281   3.382   3.603  0.00  0.00    +0.159 HD
ATOM      8  H   UNL     1      18.186   3.748  -0.474  0.00  0.00    +0.159 HD
ATOM      9  H   UNL     1      18.008   5.122   0.545  0.00  0.00    +0.159 HD
ENDROOT
BRANCH   1  10
ATOM     10  C   UNL     1      18.489   1.285   0.187  0.00  0.00    +0.151 C 
BRANCH  10  11
ATOM     11  C   UNL     1      19.229  -0.008   0.389  0.00  0.00    -0.028 A 
ATOM     12  C   UNL     1      20.543  -0.007   0.879  0.00  0.00    +0.005 A 
ATOM     13  C   UNL     1      18.621  -1.238   0.097  0.00  0.00    +0.005 A 
ATOM     14  C   UNL     1      21.221  -1.209   1.095  0.00  0.00    +0.000 A 
ATOM     15  C   UNL     1      19.301  -2.436   0.313  0.00  0.00    +0.000 A 
ATOM     16  C   UNL     1      20.601  -2.421   0.814  0.00  0.00    +0.000 A 
ENDBRANCH  10  11
ENDBRANCH   1  10
TORSDOF 2
ENDMDL
MODEL 6
REMARK VINA RESULT:    -4.271     39.990     41.485
REMARK INTER + INTRA:          -4.945
REMARK INTER:                  -4.838
REMARK INTRA:                  -0.107
REMARK UNBOUND:                -0.174
REMARK  Name = 1550473
REMARK  2 active torsions:
REMARK  status: ('A' for Active; 'I' for Inactive)
REMARK    1  A    between atoms: N_1  and  C_4
REMARK    2  A    between atoms: C_4  and  C_5
REMARK                            x       y       z     vdW  Elec       q    Type
REMARK                         _______ _______ _______ _____ _____    ______ ____
ROOT
ATOM      1  N   UNL     1     -12.174 -20.301 -19.809  0.00  0.00    -0.354 N 
ATOM      2  N   UNL     1     -14.155 -20.768 -20.914  0.00  0.00    -0.372 N 
ATOM      3  N   UNL     1     -14.114 -19.056 -19.387  0.00  0.00    -0.372 N 
ATOM      4  C   UNL     1     -13.469 -20.037 -20.028  0.00  0.00    +0.166 C 
ATOM      5  H   UNL     1     -11.751 -21.077 -20.304  0.00  0.00    +0.163 HD
ATOM      6  H   UNL     1     -15.132 -20.590 -21.103  0.00  0.00    +0.159 HD
ATOM      7  H   UNL     1     -13.718 -21.514 -21.442  0.00  0.00    +0.159 HD
ATOM      8  H   UNL     1     -13.654 -18.472 -18.701  0.00  0.00    +0.159 HD
ATOM      9  H   UNL     1     -15.095 -18.870 -19.553  0.00  0.00    +0.159 HD
ENDROOT
BRANCH   1  10
ATOM     10  C   UNL     1     -11.323 -19.530 -18.904  0.00  0.00    +0.151 C 
BRANCH  10  11
ATOM     11  C   UNL     1      -9.909 -20.030 -19.013  0.00  0.00    -0.028 A 
ATOM     12  C   UNL     1      -9.637 -21.405 -18.983  0.00  0.00    +0.005 A 
ATOM     13  C   UNL     1      -8.838 -19.134 -19.152  0.00  0.00    +0.005 A 
ATOM     14  C   UNL     1      -8.326 -21.872 -19.115  0.00  0.00    +0.000 A 
ATOM     15  C   UNL     1      -7.531 -19.604 -19.282  0.00  0.00    +0.000 A 
ATOM     16  C   UNL     1      -7.276 -20.973 -19.266  0.00  0.00    +0.000 A 
ENDBRANCH  10  11
ENDBRANCH   1  10
TORSDOF 2
ENDMDL
MODEL 7
REMARK VINA RESULT:    -3.990     28.707     29.471
REMARK INTER + INTRA:          -4.631
REMARK INTER:                  -4.475
REMARK INTRA:                  -0.156
REMARK UNBOUND:                -0.174
REMARK  Name = 1550473
REMARK  2 active torsions:
REMARK  status: ('A' for Active; 'I' for Inactive)
REMARK    1  A    between atoms: N_1  and  C_4
REMARK    2  A    between atoms: C_4  and  C_5
REMARK                            x       y       z     vdW  Elec       q    Type
REMARK                         _______ _______ _______ _____ _____    ______ ____
ROOT
ATOM      1  N   UNL     1      -3.954   3.178 -18.391  0.00  0.00    -0.354 N 
ATOM      2  N   UNL     1      -4.837   5.305 -18.634  0.00  0.00    -0.372 N 
ATOM      3  N   UNL     1      -6.145   3.494 -19.157  0.00  0.00    -0.372 N 
ATOM      4  C   UNL     1      -4.975   3.977 -18.727  0.00  0.00    +0.166 C 
ATOM      5  H   UNL     1      -3.082   3.607 -18.101  0.00  0.00    +0.163 HD
ATOM      6  H   UNL     1      -5.592   5.933 -18.877  0.00  0.00    +0.159 HD
ATOM      7  H   UNL     1      -3.981   5.730 -18.300  0.00  0.00    +0.159 HD
ATOM      8  H   UNL     1      -6.311   2.501 -19.255  0.00  0.00    +0.159 HD
ATOM      9  H   UNL     1      -6.909   4.106 -19.417  0.00  0.00    +0.159 HD
ENDROOT
BRANCH   1  10
ATOM     10  C   UNL     1      -4.018   1.718 -18.405  0.00  0.00    +0.151 C 
BRANCH  10  11
ATOM     11  C   UNL     1      -3.159   1.198 -19.524  0.00  0.00    -0.028 A 
ATOM     12  C   UNL     1      -2.029   1.915 -19.945  0.00  0.00    +0.005 A 
ATOM     13  C   UNL     1      -3.467  -0.012 -20.165  0.00  0.00    +0.005 A 
ATOM     14  C   UNL     1      -1.214   1.418 -20.965  0.00  0.00    +0.000 A 
ATOM     15  C   UNL     1      -2.651  -0.504 -21.183  0.00  0.00    +0.000 A 
ATOM     16  C   UNL     1      -1.523   0.210 -21.581  0.00  0.00    +0.000 A 
ENDBRANCH  10  11
ENDBRANCH   1  10
TORSDOF 2
ENDMDL
MODEL 8
REMARK VINA RESULT:    -3.933     29.599     30.964
REMARK INTER + INTRA:          -4.567
REMARK INTER:                  -4.473
REMARK INTRA:                  -0.094
REMARK UNBOUND:                -0.174
REMARK  Name = 1550473
REMARK  2 active torsions:
REMARK  status: ('A' for Active; 'I' for Inactive)
REMARK    1  A    between atoms: N_1  and  C_4
REMARK    2  A    between atoms: C_4  and  C_5
REMARK                            x       y       z     vdW  Elec       q    Type
REMARK                         _______ _______ _______ _____ _____    ______ ____
ROOT
ATOM      1  N   UNL     1       7.552  -8.359 -26.163  0.00  0.00    -0.354 N 
ATOM      2  N   UNL     1       8.364 -10.519 -25.961  0.00  0.00    -0.372 N 
ATOM      3  N   UNL     1       9.084  -8.920 -24.481  0.00  0.00    -0.372 N 
ATOM      4  C   UNL     1       8.330  -9.251 -25.534  0.00  0.00    +0.166 C 
ATOM      5  H   UNL     1       7.027  -8.666 -26.974  0.00  0.00    +0.163 HD
ATOM      6  H   UNL     1       8.939 -11.214 -25.505  0.00  0.00    +0.159 HD
ATOM      7  H   UNL     1       7.804 -10.833 -26.744  0.00  0.00    +0.159 HD
ATOM      8  H   UNL     1       9.108  -7.978 -24.114  0.00  0.00    +0.159 HD
ATOM      9  H   UNL     1       9.675  -9.599 -24.018  0.00  0.00    +0.159 HD
ENDROOT
BRANCH   1  10
ATOM     10  C   UNL     1       7.402  -6.967 -25.745  0.00  0.00    +0.151 C 
BRANCH  10  11
ATOM     11  C   UNL     1       6.177  -6.387 -26.398  0.00  0.00    -0.028 A 
ATOM     12  C   UNL     1       5.041  -6.082 -25.635  0.00  0.00    +0.005 A 
ATOM     13  C   UNL     1       6.149  -6.137 -27.778  0.00  0.00    +0.005 A 
ATOM     14  C   UNL     1       3.914  -5.516 -26.236  0.00  0.00    +0.000 A 
ATOM     15  C   UNL     1       5.021  -5.572 -28.375  0.00  0.00    +0.000 A 
ATOM     16  C   UNL     1       3.905  -5.260 -27.603  0.00  0.00    +0.000 A 
ENDBRANCH  10  11
ENDBRANCH   1  10
TORSDOF 2
ENDMDL
MODEL 9
REMARK VINA RESULT:    -3.892     33.832     35.156
REMARK INTER + INTRA:          -4.522
REMARK INTER:                  -4.374
REMARK INTRA:                  -0.148
REMARK UNBOUND:                -0.174
REMARK  Name = 1550473
REMARK  2 active torsions:
REMARK  status: ('A' for Active; 'I' for Inactive)
REMARK    1  A    between atoms: N_1  and  C_4
REMARK    2  A    between atoms: C_4  and  C_5
REMARK                            x       y       z     vdW  Elec       q    Type
REMARK                         _______ _______ _______ _____ _____    ______ ____
ROOT
ATOM      1  N   UNL     1      -6.009  13.360  23.229  0.00  0.00    -0.354 N 
ATOM      2  N   UNL     1      -4.923  11.419  22.584  0.00  0.00    -0.372 N 
ATOM      3  N   UNL     1      -7.135  11.688  22.035  0.00  0.00    -0.372 N 
ATOM      4  C   UNL     1      -6.032  12.168  22.619  0.00  0.00    +0.166 C 
ATOM      5  H   UNL     1      -5.149  13.654  23.679  0.00  0.00    +0.163 HD
ATOM      6  H   UNL     1      -4.910  10.516  22.128  0.00  0.00    +0.159 HD
ATOM      7  H   UNL     1      -4.053  11.735  22.995  0.00  0.00    +0.159 HD
ATOM      8  H   UNL     1      -8.006  12.201  22.032  0.00  0.00    +0.159 HD
ATOM      9  H   UNL     1      -7.144  10.781  21.584  0.00  0.00    +0.159 HD
ENDROOT
BRANCH   1  10
ATOM     10  C   UNL     1      -7.147  14.277  23.277  0.00  0.00    +0.151 C 
BRANCH  10  11
ATOM     11  C   UNL     1      -6.791  15.540  22.543  0.00  0.00    -0.028 A 
ATOM     12  C   UNL     1      -5.489  16.057  22.604  0.00  0.00    +0.005 A 
ATOM     13  C   UNL     1      -7.751  16.222  21.779  0.00  0.00    +0.005 A 
ATOM     14  C   UNL     1      -5.151  17.214  21.898  0.00  0.00    +0.000 A 
ATOM     15  C   UNL     1      -7.410  17.377  21.076  0.00  0.00    +0.000 A 
ATOM     16  C   UNL     1      -6.109  17.871  21.134  0.00  0.00    +0.000 A 
ENDBRANCH  10  11
ENDBRANCH   1  10
TORSDOF 2
ENDMDL
