MODEL 1
REMARK VINA RESULT:    -4.652      0.000      0.000
REMARK INTER + INTRA:          -5.334
REMARK INTER:                  -5.196
REMARK INTRA:                  -0.138
REMARK UNBOUND:                -0.138
REMARK  Name = 1550473
REMARK  2 active torsions:
REMARK  status: ('A' for Active; 'I' for Inactive)
REMARK    1  A    between atoms: N_1  and  C_4
REMARK    2  A    between atoms: C_4  and  C_5
REMARK                            x       y       z     vdW  Elec       q    Type
REMARK                         _______ _______ _______ _____ _____    ______ ____
ROOT
ATOM      1  N   UNL     1       9.250   0.742 -17.427  0.00  0.00    -0.354 N 
ATOM      2  N   UNL     1       9.236   2.315 -15.727  0.00  0.00    -0.372 N 
ATOM      3  N   UNL     1       7.797   2.580 -17.495  0.00  0.00    -0.372 N 
ATOM      4  C   UNL     1       8.759   1.870 -16.896  0.00  0.00    +0.166 C 
ATOM      5  H   UNL     1      10.000   0.267 -16.939  0.00  0.00    +0.163 HD
ATOM      6  H   UNL     1       8.882   3.161 -15.301  0.00  0.00    +0.159 HD
ATOM      7  H   UNL     1       9.953   1.813 -15.219  0.00  0.00    +0.159 HD
ATOM      8  H   UNL     1       7.399   2.301 -18.382  0.00  0.00    +0.159 HD
ATOM      9  H   UNL     1       7.439   3.435 -17.089  0.00  0.00    +0.159 HD
ENDROOT
BRANCH   1  10
ATOM     10  C   UNL     1       8.762   0.143 -18.669  0.00  0.00    +0.151 C 
BRANCH  10  11
ATOM     11  C   UNL     1       8.548  -1.329 -18.452  0.00  0.00    -0.028 A 
ATOM     12  C   UNL     1       7.998  -1.800 -17.251  0.00  0.00    +0.005 A 
ATOM     13  C   UNL     1       8.887  -2.259 -19.447  0.00  0.00    +0.005 A 
ATOM     14  C   UNL     1       7.771  -3.165 -17.061  0.00  0.00    +0.000 A 
ATOM     15  C   UNL     1       8.660  -3.621 -19.254  0.00  0.00    +0.000 A 
ATOM     16  C   UNL     1       8.100  -4.074 -18.062  0.00  0.00    +0.000 A 
ENDBRANCH  10  11
ENDBRANCH   1  10
TORSDOF 2
ENDMDL
MODEL 2
REMARK VINA RESULT:    -4.512      1.316      2.200
REMARK INTER + INTRA:          -5.178
REMARK INTER:                  -4.998
REMARK INTRA:                  -0.180
REMARK UNBOUND:                -0.138
REMARK  Name = 1550473
REMARK  2 active torsions:
REMARK  status: ('A' for Active; 'I' for Inactive)
REMARK    1  A    between atoms: N_1  and  C_4
REMARK    2  A    between atoms: C_4  and  C_5
REMARK                            x       y       z     vdW  Elec       q    Type
REMARK                         _______ _______ _______ _____ _____    ______ ____
ROOT
ATOM      1  N   UNL     1       9.507   0.506 -16.855  0.00  0.00    -0.354 N 
ATOM      2  N   UNL     1      11.494   1.084 -15.814  0.00  0.00    -0.372 N 
ATOM      3  N   UNL     1      11.474   0.809 -18.092  0.00  0.00    -0.372 N 
ATOM      4  C   UNL     1      10.813   0.796 -16.930  0.00  0.00    +0.166 C 
ATOM      5  H   UNL     1       9.071   0.483 -15.940  0.00  0.00    +0.163 HD
ATOM      6  H   UNL     1      12.480   1.310 -15.840  0.00  0.00    +0.159 HD
ATOM      7  H   UNL     1      11.046   1.106 -14.907  0.00  0.00    +0.159 HD
ATOM      8  H   UNL     1      11.019   0.594 -18.969  0.00  0.00    +0.159 HD
ATOM      9  H   UNL     1      12.463   1.021 -18.137  0.00  0.00    +0.159 HD
ENDROOT
BRANCH   1  10
ATOM     10  C   UNL     1       8.663   0.230 -18.015  0.00  0.00    +0.151 C 
BRANCH  10  11
ATOM     11  C   UNL     1       8.507  -1.258 -18.167  0.00  0.00    -0.028 A 
ATOM     12  C   UNL     1       8.962  -1.907 -19.324  0.00  0.00    +0.005 A 
ATOM     13  C   UNL     1       7.911  -2.025 -17.155  0.00  0.00    +0.005 A 
ATOM     14  C   UNL     1       8.844  -3.293 -19.453  0.00  0.00    +0.000 A 
ATOM     15  C   UNL     1       7.794  -3.409 -17.288  0.00  0.00    +0.000 A 
ATOM     16  C   UNL     1       8.264  -4.043 -18.435  0.00  0.00    +0.000 A 
ENDBRANCH  10  11
ENDBRANCH   1  10
TORSDOF 2
ENDMDL
MODEL 3
REMARK VINA RESULT:    -4.511     22.023     23.263
REMARK INTER + INTRA:          -5.177
REMARK INTER:                  -5.052
REMARK INTRA:                  -0.125
REMARK UNBOUND:                -0.138
REMARK  Name = 1550473
REMARK  2 active torsions:
REMARK  status: ('A' for Active; 'I' for Inactive)
REMARK    1  A    between atoms: N_1  and  C_4
REMARK    2  A    between atoms: C_4  and  C_5
REMARK                            x       y       z     vdW  Elec       q    Type
REMARK                         _______ _______ _______ _____ _____    ______ ____
ROOT
ATOM      1  N   UNL     1      -5.235  -8.038  -1.578  0.00  0.00    -0.354 N 
ATOM      2  N   UNL     1      -2.940  -8.253  -1.804  0.00  0.00    -0.372 N 
ATOM      3  N   UNL     1      -3.814  -7.815   0.272  0.00  0.00    -0.372 N 
ATOM      4  C   UNL     1      -4.011  -8.033  -1.033  0.00  0.00    +0.166 C 
ATOM      5  H   UNL     1      -5.315  -8.180  -2.579  0.00  0.00    +0.163 HD
ATOM      6  H   UNL     1      -2.004  -8.259  -1.420  0.00  0.00    +0.159 HD
ATOM      7  H   UNL     1      -3.026  -8.440  -2.796  0.00  0.00    +0.159 HD
ATOM      8  H   UNL     1      -4.580  -7.637   0.907  0.00  0.00    +0.159 HD
ATOM      9  H   UNL     1      -2.884  -7.805   0.673  0.00  0.00    +0.159 HD
ENDROOT
BRANCH   1  10
ATOM     10  C   UNL     1      -6.470  -7.863  -0.817  0.00  0.00    +0.151 C 
BRANCH  10  11
ATOM     11  C   UNL     1      -7.468  -7.121  -1.663  0.00  0.00    -0.028 A 
ATOM     12  C   UNL     1      -8.476  -6.351  -1.065  0.00  0.00    +0.005 A 
ATOM     13  C   UNL     1      -7.406  -7.180  -3.064  0.00  0.00    +0.005 A 
ATOM     14  C   UNL     1      -9.384  -5.638  -1.851  0.00  0.00    +0.000 A 
ATOM     15  C   UNL     1      -8.316  -6.467  -3.845  0.00  0.00    +0.000 A 
ATOM     16  C   UNL     1      -9.303  -5.694  -3.238  0.00  0.00    +0.000 A 
ENDBRANCH  10  11
ENDBRANCH   1  10
TORSDOF 2
ENDMDL
MODEL 4
REMARK VINA RESULT:    -4.509     23.032     24.184
REMARK INTER + INTRA:          -5.174
REMARK INTER:                  -5.058
REMARK INTRA:                  -0.116
REMARK UNBOUND:                -0.138
REMARK  Name = 1550473
REMARK  2 active torsions:
REMARK  status: ('A' for Active; 'I' for Inactive)
REMARK    1  A    between atoms: N_1  and  C_4
REMARK    2  A    between atoms: C_4  and  C_5
REMARK                            x       y       z     vdW  Elec       q    Type
REMARK                         _______ _______ _______ _____ _____    ______ ____
ROOT
ATOM      1  N   UNL     1     -10.133  -3.980  -3.680  0.00  0.00    -0.354 N 
ATOM      2  N   UNL     1     -10.314  -2.072  -4.980  0.00  0.00    -0.372 N 
ATOM      3  N   UNL     1      -9.557  -4.007  -5.952  0.00  0.00    -0.372 N 
ATOM      4  C   UNL     1      -9.999  -3.367  -4.864  0.00  0.00    +0.166 C 
ATOM      5  H   UNL     1     -10.444  -3.432  -2.887  0.00  0.00    +0.163 HD
ATOM      6  H   UNL     1     -10.226  -1.583  -5.861  0.00  0.00    +0.159 HD
ATOM      7  H   UNL     1     -10.668  -1.537  -4.196  0.00  0.00    +0.159 HD
ATOM      8  H   UNL     1      -9.297  -4.984  -5.930  0.00  0.00    +0.159 HD
ATOM      9  H   UNL     1      -9.451  -3.533  -6.840  0.00  0.00    +0.159 HD
ENDROOT
BRANCH   1  10
ATOM     10  C   UNL     1      -9.868  -5.401  -3.461  0.00  0.00    +0.151 C 
BRANCH  10  11
ATOM     11  C   UNL     1      -9.399  -5.600  -2.046  0.00  0.00    -0.028 A 
ATOM     12  C   UNL     1      -8.386  -6.527  -1.756  0.00  0.00    +0.005 A 
ATOM     13  C   UNL     1      -9.958  -4.862  -0.992  0.00  0.00    +0.005 A 
ATOM     14  C   UNL     1      -7.929  -6.691  -0.446  0.00  0.00    +0.000 A 
ATOM     15  C   UNL     1      -9.500  -5.029   0.314  0.00  0.00    +0.000 A 
ATOM     16  C   UNL     1      -8.484  -5.942   0.587  0.00  0.00    +0.000 A 
ENDBRANCH  10  11
ENDBRANCH   1  10
TORSDOF 2
ENDMDL
MODEL 5
REMARK VINA RESULT:    -4.375     22.757     23.664
REMARK INTER + INTRA:          -5.025
REMARK INTER:                  -4.901
REMARK INTRA:                  -0.124
REMARK UNBOUND:                -0.138
REMARK  Name = 1550473
REMARK  2 active torsions:
REMARK  status: ('A' for Active; 'I' for Inactive)
REMARK    1  A    between atoms: N_1  and  C_4
REMARK    2  A    between atoms: C_4  and  C_5
REMARK                            x       y       z     vdW  Elec       q    Type
REMARK                         _______ _______ _______ _____ _____    ______ ____
ROOT
ATOM      1  N   UNL     1     -10.346  -3.849  -4.077  0.00  0.00    -0.354 N 
ATOM      2  N   UNL     1     -11.087  -1.739  -4.679  0.00  0.00    -0.372 N 
ATOM      3  N   UNL     1      -9.998  -3.020  -6.240  0.00  0.00    -0.372 N 
ATOM      4  C   UNL     1     -10.471  -2.884  -4.997  0.00  0.00    +0.166 C 
ATOM      5  H   UNL     1     -10.700  -3.672  -3.143  0.00  0.00    +0.163 HD
ATOM      6  H   UNL     1     -11.199  -0.994  -5.354  0.00  0.00    +0.159 HD
ATOM      7  H   UNL     1     -11.480  -1.583  -3.759  0.00  0.00    +0.159 HD
ATOM      8  H   UNL     1      -9.517  -3.857  -6.542  0.00  0.00    +0.159 HD
ATOM      9  H   UNL     1     -10.089  -2.281  -6.926  0.00  0.00    +0.159 HD
ENDROOT
BRANCH   1  10
ATOM     10  C   UNL     1      -9.740  -5.154  -4.337  0.00  0.00    +0.151 C 
BRANCH  10  11
ATOM     11  C   UNL     1      -9.175  -5.697  -3.053  0.00  0.00    -0.028 A 
ATOM     12  C   UNL     1      -8.179  -6.684  -3.076  0.00  0.00    +0.005 A 
ATOM     13  C   UNL     1      -9.629  -5.226  -1.812  0.00  0.00    +0.005 A 
ATOM     14  C   UNL     1      -7.633  -7.168  -1.884  0.00  0.00    +0.000 A 
ATOM     15  C   UNL     1      -9.081  -5.712  -0.624  0.00  0.00    +0.000 A 
ATOM     16  C   UNL     1      -8.082  -6.681  -0.661  0.00  0.00    +0.000 A 
ENDBRANCH  10  11
ENDBRANCH   1  10
TORSDOF 2
ENDMDL
MODEL 6
REMARK VINA RESULT:    -4.192     42.304     42.770
REMARK INTER + INTRA:          -4.820
REMARK INTER:                  -4.696
REMARK INTRA:                  -0.124
REMARK UNBOUND:                -0.138
REMARK  Name = 1550473
REMARK  2 active torsions:
REMARK  status: ('A' for Active; 'I' for Inactive)
REMARK    1  A    between atoms: N_1  and  C_4
REMARK    2  A    between atoms: C_4  and  C_5
REMARK                            x       y       z     vdW  Elec       q    Type
REMARK                         _______ _______ _______ _____ _____    ______ ____
ROOT
ATOM      1  N   UNL     1       3.138   3.891  24.419  0.00  0.00    -0.354 N 
ATOM      2  N   UNL     1       1.455   2.380  24.918  0.00  0.00    -0.372 N 
ATOM      3  N   UNL     1       3.534   1.582  24.367  0.00  0.00    -0.372 N 
ATOM      4  C   UNL     1       2.722   2.626  24.564  0.00  0.00    +0.166 C 
ATOM      5  H   UNL     1       2.465   4.637  24.554  0.00  0.00    +0.163 HD
ATOM      6  H   UNL     1       1.113   1.436  25.038  0.00  0.00    +0.159 HD
ATOM      7  H   UNL     1       0.797   3.129  25.097  0.00  0.00    +0.159 HD
ATOM      8  H   UNL     1       4.500   1.700  24.092  0.00  0.00    +0.159 HD
ATOM      9  H   UNL     1       3.208   0.629  24.470  0.00  0.00    +0.159 HD
ENDROOT
BRANCH   1  10
ATOM     10  C   UNL     1       4.511   4.268  24.089  0.00  0.00    +0.151 C 
BRANCH  10  11
ATOM     11  C   UNL     1       4.568   5.750  23.842  0.00  0.00    -0.028 A 
ATOM     12  C   UNL     1       3.411   6.535  23.952  0.00  0.00    +0.005 A 
ATOM     13  C   UNL     1       5.777   6.377  23.504  0.00  0.00    +0.005 A 
ATOM     14  C   UNL     1       3.469   7.916  23.752  0.00  0.00    +0.000 A 
ATOM     15  C   UNL     1       5.831   7.756  23.304  0.00  0.00    +0.000 A 
ATOM     16  C   UNL     1       4.677   8.526  23.430  0.00  0.00    +0.000 A 
ENDBRANCH  10  11
ENDBRANCH   1  10
TORSDOF 2
ENDMDL
MODEL 7
REMARK VINA RESULT:    -4.183     25.809     27.125
REMARK INTER + INTRA:          -4.810
REMARK INTER:                  -4.766
REMARK INTRA:                  -0.045
REMARK UNBOUND:                -0.138
REMARK  Name = 1550473
REMARK  2 active torsions:
REMARK  status: ('A' for Active; 'I' for Inactive)
REMARK    1  A    between atoms: N_1  and  C_4
REMARK    2  A    between atoms: C_4  and  C_5
REMARK                            x       y       z     vdW  Elec       q    Type
REMARK                         _______ _______ _______ _____ _____    ______ ____
ROOT
ATOM      1  N   UNL     1      -1.145  -7.561   4.773  0.00  0.00    -0.354 N 
ATOM      2  N   UNL     1       1.159  -7.320   4.779  0.00  0.00    -0.372 N 
ATOM      3  N   UNL     1      -0.143  -5.517   4.216  0.00  0.00    -0.372 N 
ATOM      4  C   UNL     1      -0.059  -6.798   4.588  0.00  0.00    +0.166 C 
ATOM      5  H   UNL     1      -1.013  -8.533   5.026  0.00  0.00    +0.163 HD
ATOM      6  H   UNL     1       1.996  -6.769   4.651  0.00  0.00    +0.159 HD
ATOM      7  H   UNL     1       1.286  -8.280   5.077  0.00  0.00    +0.159 HD
ATOM      8  H   UNL     1      -1.032  -5.065   4.049  0.00  0.00    +0.159 HD
ATOM      9  H   UNL     1       0.685  -4.951   4.071  0.00  0.00    +0.159 HD
ENDROOT
BRANCH   1  10
ATOM     10  C   UNL     1      -2.517  -7.074   4.643  0.00  0.00    +0.151 C 
BRANCH  10  11
ATOM     11  C   UNL     1      -3.127  -6.955   6.012  0.00  0.00    -0.028 A 
ATOM     12  C   UNL     1      -2.316  -6.757   7.139  0.00  0.00    +0.005 A 
ATOM     13  C   UNL     1      -4.517  -7.032   6.189  0.00  0.00    +0.005 A 
ATOM     14  C   UNL     1      -2.884  -6.616   8.407  0.00  0.00    +0.000 A 
ATOM     15  C   UNL     1      -5.081  -6.892   7.457  0.00  0.00    +0.000 A 
ATOM     16  C   UNL     1      -4.264  -6.681   8.565  0.00  0.00    +0.000 A 
ENDBRANCH  10  11
ENDBRANCH   1  10
TORSDOF 2
ENDMDL
MODEL 8
REMARK VINA RESULT:    -4.060      3.646      5.484
REMARK INTER + INTRA:          -4.673
REMARK INTER:                  -4.578
REMARK INTRA:                  -0.095
REMARK UNBOUND:                -0.138
REMARK  Name = 1550473
REMARK  2 active torsions:
REMARK  status: ('A' for Active; 'I' for Inactive)
REMARK    1  A    between atoms: N_1  and  C_4
REMARK    2  A    between atoms: C_4  and  C_5
REMARK                            x       y       z     vdW  Elec       q    Type
REMARK                         _______ _______ _______ _____ _____    ______ ____
ROOT
ATOM      1  N   UNL     1       9.813  -4.441 -17.632  0.00  0.00    -0.354 N 
ATOM      2  N   UNL     1      11.223  -5.955 -16.591  0.00  0.00    -0.372 N 
ATOM      3  N   UNL     1       9.719  -6.726 -18.144  0.00  0.00    -0.372 N 
ATOM      4  C   UNL     1      10.241  -5.700 -17.464  0.00  0.00    +0.166 C 
ATOM      5  H   UNL     1      10.229  -3.712 -17.065  0.00  0.00    +0.163 HD
ATOM      6  H   UNL     1      11.569  -6.894 -16.445  0.00  0.00    +0.159 HD
ATOM      7  H   UNL     1      11.668  -5.218 -16.059  0.00  0.00    +0.159 HD
ATOM      8  H   UNL     1       8.972  -6.601 -18.813  0.00  0.00    +0.159 HD
ATOM      9  H   UNL     1      10.044  -7.675 -18.003  0.00  0.00    +0.159 HD
ENDROOT
BRANCH   1  10
ATOM     10  C   UNL     1       8.787  -4.049 -18.596  0.00  0.00    +0.151 C 
BRANCH  10  11
ATOM     11  C   UNL     1       8.696  -2.548 -18.633  0.00  0.00    -0.028 A 
ATOM     12  C   UNL     1       9.055  -1.842 -19.790  0.00  0.00    +0.005 A 
ATOM     13  C   UNL     1       8.246  -1.827 -17.516  0.00  0.00    +0.005 A 
ATOM     14  C   UNL     1       8.942  -0.450 -19.835  0.00  0.00    +0.000 A 
ATOM     15  C   UNL     1       8.135  -0.438 -17.565  0.00  0.00    +0.000 A 
ATOM     16  C   UNL     1       8.481   0.250 -18.726  0.00  0.00    +0.000 A 
ENDBRANCH  10  11
ENDBRANCH   1  10
TORSDOF 2
ENDMDL
MODEL 9
REMARK VINA RESULT:    -3.984     38.796     40.011
REMARK INTER + INTRA:          -4.588
REMARK INTER:                  -4.496
REMARK INTRA:                  -0.091
REMARK UNBOUND:                -0.138
REMARK  Name = 1550473
REMARK  2 active torsions:
REMARK  status: ('A' for Active; 'I' for Inactive)
REMARK    1  A    between atoms: N_1  and  C_4
REMARK    2  A    between atoms: C_4  and  C_5
REMARK                            x       y       z     vdW  Elec       q    Type
REMARK                         _______ _______ _______ _____ _____    ______ ____
ROOT
ATOM      1  N   UNL     1       5.157   2.353  23.168  0.00  0.00    -0.354 N 
ATOM      2  N   UNL     1       4.156   3.942  24.524  0.00  0.00    -0.372 N 
ATOM      3  N   UNL     1       6.224   3.133  25.103  0.00  0.00    -0.372 N 
ATOM      4  C   UNL     1       5.188   3.132  24.257  0.00  0.00    +0.166 C 
ATOM      5  H   UNL     1       4.329   2.377  22.583  0.00  0.00    +0.163 HD
ATOM      6  H   UNL     1       4.153   4.544  25.337  0.00  0.00    +0.159 HD
ATOM      7  H   UNL     1       3.350   3.997  23.913  0.00  0.00    +0.159 HD
ATOM      8  H   UNL     1       7.031   2.540  24.962  0.00  0.00    +0.159 HD
ATOM      9  H   UNL     1       6.234   3.719  25.928  0.00  0.00    +0.159 HD
ENDROOT
BRANCH   1  10
ATOM     10  C   UNL     1       6.251   1.475  22.758  0.00  0.00    +0.151 C 
BRANCH  10  11
ATOM     11  C   UNL     1       5.851   0.741  21.509  0.00  0.00    -0.028 A 
ATOM     12  C   UNL     1       5.112  -0.448  21.587  0.00  0.00    +0.005 A 
ATOM     13  C   UNL     1       6.204   1.232  20.242  0.00  0.00    +0.005 A 
ATOM     14  C   UNL     1       4.714  -1.114  20.426  0.00  0.00    +0.000 A 
ATOM     15  C   UNL     1       5.806   0.564  19.085  0.00  0.00    +0.000 A 
ATOM     16  C   UNL     1       5.059  -0.608  19.177  0.00  0.00    +0.000 A 
ENDBRANCH  10  11
ENDBRANCH   1  10
TORSDOF 2
ENDMDL
