MODEL 1
REMARK VINA RESULT:    -5.045      0.000      0.000
REMARK INTER + INTRA:          -5.814
REMARK INTER:                  -5.635
REMARK INTRA:                  -0.179
REMARK UNBOUND:                -0.179
REMARK  Name = 1550473
REMARK  2 active torsions:
REMARK  status: ('A' for Active; 'I' for Inactive)
REMARK    1  A    between atoms: N_1  and  C_4
REMARK    2  A    between atoms: C_4  and  C_5
REMARK                            x       y       z     vdW  Elec       q    Type
REMARK                         _______ _______ _______ _____ _____    ______ ____
ROOT
ATOM      1  N   UNL     1      11.246   4.075   3.838  0.00  0.00    -0.354 N 
ATOM      2  N   UNL     1       9.466   5.554   3.924  0.00  0.00    -0.372 N 
ATOM      3  N   UNL     1       9.728   4.241   2.061  0.00  0.00    -0.372 N 
ATOM      4  C   UNL     1      10.158   4.613   3.271  0.00  0.00    +0.166 C 
ATOM      5  H   UNL     1      11.537   4.422   4.745  0.00  0.00    +0.163 HD
ATOM      6  H   UNL     1       8.639   5.976   3.522  0.00  0.00    +0.159 HD
ATOM      7  H   UNL     1       9.733   5.866   4.849  0.00  0.00    +0.159 HD
ATOM      8  H   UNL     1      10.209   3.539   1.514  0.00  0.00    +0.159 HD
ATOM      9  H   UNL     1       8.909   4.659   1.637  0.00  0.00    +0.159 HD
ENDROOT
BRANCH   1  10
ATOM     10  C   UNL     1      12.039   3.005   3.235  0.00  0.00    +0.151 C 
BRANCH  10  11
ATOM     11  C   UNL     1      11.704   1.704   3.912  0.00  0.00    -0.028 A 
ATOM     12  C   UNL     1      12.063   1.484   5.250  0.00  0.00    +0.005 A 
ATOM     13  C   UNL     1      11.022   0.690   3.222  0.00  0.00    +0.005 A 
ATOM     14  C   UNL     1      11.725   0.288   5.887  0.00  0.00    +0.000 A 
ATOM     15  C   UNL     1      10.688  -0.503   3.862  0.00  0.00    +0.000 A 
ATOM     16  C   UNL     1      11.037  -0.703   5.195  0.00  0.00    +0.000 A 
ENDBRANCH  10  11
ENDBRANCH   1  10
TORSDOF 2
ENDMDL
MODEL 2
REMARK VINA RESULT:    -5.002      1.193      1.542
REMARK INTER + INTRA:          -5.766
REMARK INTER:                  -5.657
REMARK INTRA:                  -0.109
REMARK UNBOUND:                -0.179
REMARK  Name = 1550473
REMARK  2 active torsions:
REMARK  status: ('A' for Active; 'I' for Inactive)
REMARK    1  A    between atoms: N_1  and  C_4
REMARK    2  A    between atoms: C_4  and  C_5
REMARK                            x       y       z     vdW  Elec       q    Type
REMARK                         _______ _______ _______ _____ _____    ______ ____
ROOT
ATOM      1  N   UNL     1      10.796   2.846   3.040  0.00  0.00    -0.354 N 
ATOM      2  N   UNL     1      10.005   4.915   2.365  0.00  0.00    -0.372 N 
ATOM      3  N   UNL     1      10.007   3.184   0.860  0.00  0.00    -0.372 N 
ATOM      4  C   UNL     1      10.274   3.633   2.090  0.00  0.00    +0.166 C 
ATOM      5  H   UNL     1      11.004   3.255   3.944  0.00  0.00    +0.163 HD
ATOM      6  H   UNL     1       9.608   5.533   1.670  0.00  0.00    +0.159 HD
ATOM      7  H   UNL     1      10.171   5.310   3.283  0.00  0.00    +0.159 HD
ATOM      8  H   UNL     1      10.192   2.228   0.587  0.00  0.00    +0.159 HD
ATOM      9  H   UNL     1       9.620   3.789   0.147  0.00  0.00    +0.159 HD
ENDROOT
BRANCH   1  10
ATOM     10  C   UNL     1      11.076   1.422   2.859  0.00  0.00    +0.151 C 
BRANCH  10  11
ATOM     11  C   UNL     1      11.313   0.794   4.205  0.00  0.00    -0.028 A 
ATOM     12  C   UNL     1      12.094   1.447   5.169  0.00  0.00    +0.005 A 
ATOM     13  C   UNL     1      10.754  -0.453   4.524  0.00  0.00    +0.005 A 
ATOM     14  C   UNL     1      12.290   0.878   6.429  0.00  0.00    +0.000 A 
ATOM     15  C   UNL     1      10.952  -1.019   5.783  0.00  0.00    +0.000 A 
ATOM     16  C   UNL     1      11.718  -0.352   6.736  0.00  0.00    +0.000 A 
ENDBRANCH  10  11
ENDBRANCH   1  10
TORSDOF 2
ENDMDL
MODEL 3
REMARK VINA RESULT:    -4.908      1.464      2.025
REMARK INTER + INTRA:          -5.661
REMARK INTER:                  -5.527
REMARK INTRA:                  -0.133
REMARK UNBOUND:                -0.179
REMARK  Name = 1550473
REMARK  2 active torsions:
REMARK  status: ('A' for Active; 'I' for Inactive)
REMARK    1  A    between atoms: N_1  and  C_4
REMARK    2  A    between atoms: C_4  and  C_5
REMARK                            x       y       z     vdW  Elec       q    Type
REMARK                         _______ _______ _______ _____ _____    ______ ____
ROOT
ATOM      1  N   UNL     1      10.006   5.250   2.845  0.00  0.00    -0.354 N 
ATOM      2  N   UNL     1       9.669   7.338   3.788  0.00  0.00    -0.372 N 
ATOM      3  N   UNL     1      11.681   6.888   2.781  0.00  0.00    -0.372 N 
ATOM      4  C   UNL     1      10.457   6.478   3.131  0.00  0.00    +0.166 C 
ATOM      5  H   UNL     1       9.080   4.990   3.165  0.00  0.00    +0.163 HD
ATOM      6  H   UNL     1       9.980   8.273   4.015  0.00  0.00    +0.159 HD
ATOM      7  H   UNL     1       8.727   7.091   4.066  0.00  0.00    +0.159 HD
ATOM      8  H   UNL     1      12.326   6.286   2.288  0.00  0.00    +0.159 HD
ATOM      9  H   UNL     1      12.015   7.816   3.009  0.00  0.00    +0.159 HD
ENDROOT
BRANCH   1  10
ATOM     10  C   UNL     1      10.765   4.257   2.087  0.00  0.00    +0.151 C 
BRANCH  10  11
ATOM     11  C   UNL     1      11.069   3.085   2.979  0.00  0.00    -0.028 A 
ATOM     12  C   UNL     1      11.698   3.278   4.217  0.00  0.00    +0.005 A 
ATOM     13  C   UNL     1      10.727   1.780   2.593  0.00  0.00    +0.005 A 
ATOM     14  C   UNL     1      11.955   2.193   5.059  0.00  0.00    +0.000 A 
ATOM     15  C   UNL     1      10.985   0.699   3.437  0.00  0.00    +0.000 A 
ATOM     16  C   UNL     1      11.596   0.907   4.671  0.00  0.00    +0.000 A 
ENDBRANCH  10  11
ENDBRANCH   1  10
TORSDOF 2
ENDMDL
MODEL 4
REMARK VINA RESULT:    -4.867     21.073     22.553
REMARK INTER + INTRA:          -5.615
REMARK INTER:                  -5.470
REMARK INTRA:                  -0.145
REMARK UNBOUND:                -0.179
REMARK  Name = 1550473
REMARK  2 active torsions:
REMARK  status: ('A' for Active; 'I' for Inactive)
REMARK    1  A    between atoms: N_1  and  C_4
REMARK    2  A    between atoms: C_4  and  C_5
REMARK                            x       y       z     vdW  Elec       q    Type
REMARK                         _______ _______ _______ _____ _____    ______ ____
ROOT
ATOM      1  N   UNL     1      -5.413  17.534   2.806  0.00  0.00    -0.354 N 
ATOM      2  N   UNL     1      -6.514  15.582   3.391  0.00  0.00    -0.372 N 
ATOM      3  N   UNL     1      -7.594  17.109   2.062  0.00  0.00    -0.372 N 
ATOM      4  C   UNL     1      -6.502  16.756   2.748  0.00  0.00    +0.166 C 
ATOM      5  H   UNL     1      -4.628  17.223   3.367  0.00  0.00    +0.163 HD
ATOM      6  H   UNL     1      -7.320  14.973   3.362  0.00  0.00    +0.159 HD
ATOM      7  H   UNL     1      -5.711  15.253   3.914  0.00  0.00    +0.159 HD
ATOM      8  H   UNL     1      -7.651  17.985   1.559  0.00  0.00    +0.159 HD
ATOM      9  H   UNL     1      -8.415  16.518   2.031  0.00  0.00    +0.159 HD
ENDROOT
BRANCH   1  10
ATOM     10  C   UNL     1      -5.277  18.806   2.097  0.00  0.00    +0.151 C 
BRANCH  10  11
ATOM     11  C   UNL     1      -4.030  18.770   1.258  0.00  0.00    -0.028 A 
ATOM     12  C   UNL     1      -3.085  17.748   1.430  0.00  0.00    +0.005 A 
ATOM     13  C   UNL     1      -3.790  19.752   0.284  0.00  0.00    +0.005 A 
ATOM     14  C   UNL     1      -1.940  17.698   0.631  0.00  0.00    +0.000 A 
ATOM     15  C   UNL     1      -2.646  19.698  -0.512  0.00  0.00    +0.000 A 
ATOM     16  C   UNL     1      -1.723  18.670  -0.340  0.00  0.00    +0.000 A 
ENDBRANCH  10  11
ENDBRANCH   1  10
TORSDOF 2
ENDMDL
MODEL 5
REMARK VINA RESULT:    -4.542     21.191     22.223
REMARK INTER + INTRA:          -5.252
REMARK INTER:                  -5.117
REMARK INTRA:                  -0.135
REMARK UNBOUND:                -0.179
REMARK  Name = 1550473
REMARK  2 active torsions:
REMARK  status: ('A' for Active; 'I' for Inactive)
REMARK    1  A    between atoms: N_1  and  C_4
REMARK    2  A    between atoms: C_4  and  C_5
REMARK                            x       y       z     vdW  Elec       q    Type
REMARK                         _______ _______ _______ _____ _____    ______ ____
ROOT
ATOM      1  N   UNL     1      -8.721  10.074   6.064  0.00  0.00    -0.354 N 
ATOM      2  N   UNL     1      -7.631   9.746   8.081  0.00  0.00    -0.372 N 
ATOM      3  N   UNL     1      -9.564  10.981   8.054  0.00  0.00    -0.372 N 
ATOM      4  C   UNL     1      -8.648  10.271   7.387  0.00  0.00    +0.166 C 
ATOM      5  H   UNL     1      -7.979   9.551   5.614  0.00  0.00    +0.163 HD
ATOM      6  H   UNL     1      -7.550   9.875   9.081  0.00  0.00    +0.159 HD
ATOM      7  H   UNL     1      -6.915   9.185   7.635  0.00  0.00    +0.159 HD
ATOM      8  H   UNL     1     -10.353  11.409   7.588  0.00  0.00    +0.159 HD
ATOM      9  H   UNL     1      -9.495  11.132   9.052  0.00  0.00    +0.159 HD
ENDROOT
BRANCH   1  10
ATOM     10  C   UNL     1      -9.816  10.557   5.225  0.00  0.00    +0.151 C 
BRANCH  10  11
ATOM     11  C   UNL     1     -10.120   9.526   4.173  0.00  0.00    -0.028 A 
ATOM     12  C   UNL     1     -11.158   9.733   3.253  0.00  0.00    +0.005 A 
ATOM     13  C   UNL     1      -9.370   8.344   4.087  0.00  0.00    +0.005 A 
ATOM     14  C   UNL     1     -11.422   8.790   2.256  0.00  0.00    +0.000 A 
ATOM     15  C   UNL     1      -9.637   7.404   3.091  0.00  0.00    +0.000 A 
ATOM     16  C   UNL     1     -10.661   7.629   2.174  0.00  0.00    +0.000 A 
ENDBRANCH  10  11
ENDBRANCH   1  10
TORSDOF 2
ENDMDL
MODEL 6
REMARK VINA RESULT:    -4.538     22.728     23.895
REMARK INTER + INTRA:          -5.248
REMARK INTER:                  -5.116
REMARK INTRA:                  -0.131
REMARK UNBOUND:                -0.179
REMARK  Name = 1550473
REMARK  2 active torsions:
REMARK  status: ('A' for Active; 'I' for Inactive)
REMARK    1  A    between atoms: N_1  and  C_4
REMARK    2  A    between atoms: C_4  and  C_5
REMARK                            x       y       z     vdW  Elec       q    Type
REMARK                         _______ _______ _______ _____ _____    ______ ____
ROOT
ATOM      1  N   UNL     1      -3.209 -14.252  -2.748  0.00  0.00    -0.354 N 
ATOM      2  N   UNL     1      -2.738 -15.980  -1.280  0.00  0.00    -0.372 N 
ATOM      3  N   UNL     1      -4.131 -14.291  -0.594  0.00  0.00    -0.372 N 
ATOM      4  C   UNL     1      -3.364 -14.828  -1.549  0.00  0.00    +0.166 C 
ATOM      5  H   UNL     1      -2.589 -14.694  -3.418  0.00  0.00    +0.163 HD
ATOM      6  H   UNL     1      -2.839 -16.440  -0.385  0.00  0.00    +0.159 HD
ATOM      7  H   UNL     1      -2.157 -16.444  -1.967  0.00  0.00    +0.159 HD
ATOM      8  H   UNL     1      -4.625 -13.419  -0.732  0.00  0.00    +0.159 HD
ATOM      9  H   UNL     1      -4.235 -14.730   0.312  0.00  0.00    +0.159 HD
ENDROOT
BRANCH   1  10
ATOM     10  C   UNL     1      -3.888 -13.025  -3.160  0.00  0.00    +0.151 C 
BRANCH  10  11
ATOM     11  C   UNL     1      -4.314 -13.158  -4.596  0.00  0.00    -0.028 A 
ATOM     12  C   UNL     1      -5.293 -12.306  -5.130  0.00  0.00    +0.005 A 
ATOM     13  C   UNL     1      -3.740 -14.130  -5.429  0.00  0.00    +0.005 A 
ATOM     14  C   UNL     1      -5.667 -12.410  -6.472  0.00  0.00    +0.000 A 
ATOM     15  C   UNL     1      -4.117 -14.230  -6.768  0.00  0.00    +0.000 A 
ATOM     16  C   UNL     1      -5.079 -13.369  -7.290  0.00  0.00    +0.000 A 
ENDBRANCH  10  11
ENDBRANCH   1  10
TORSDOF 2
ENDMDL
MODEL 7
REMARK VINA RESULT:    -4.478      2.647      4.036
REMARK INTER + INTRA:          -5.181
REMARK INTER:                  -5.040
REMARK INTRA:                  -0.140
REMARK UNBOUND:                -0.179
REMARK  Name = 1550473
REMARK  2 active torsions:
REMARK  status: ('A' for Active; 'I' for Inactive)
REMARK    1  A    between atoms: N_1  and  C_4
REMARK    2  A    between atoms: C_4  and  C_5
REMARK                            x       y       z     vdW  Elec       q    Type
REMARK                         _______ _______ _______ _____ _____    ______ ____
ROOT
ATOM      1  N   UNL     1      12.046   6.988   3.708  0.00  0.00    -0.354 N 
ATOM      2  N   UNL     1      13.404   8.410   4.930  0.00  0.00    -0.372 N 
ATOM      3  N   UNL     1      11.147   8.410   5.339  0.00  0.00    -0.372 N 
ATOM      4  C   UNL     1      12.187   7.928   4.652  0.00  0.00    +0.166 C 
ATOM      5  H   UNL     1      12.870   6.685   3.202  0.00  0.00    +0.163 HD
ATOM      6  H   UNL     1      13.543   9.117   5.640  0.00  0.00    +0.159 HD
ATOM      7  H   UNL     1      14.233   8.073   4.455  0.00  0.00    +0.159 HD
ATOM      8  H   UNL     1      10.201   8.092   5.172  0.00  0.00    +0.159 HD
ATOM      9  H   UNL     1      11.263   9.127   6.045  0.00  0.00    +0.159 HD
ENDROOT
BRANCH   1  10
ATOM     10  C   UNL     1      10.771   6.358   3.366  0.00  0.00    +0.151 C 
BRANCH  10  11
ATOM     11  C   UNL     1      10.931   4.864   3.425  0.00  0.00    -0.028 A 
ATOM     12  C   UNL     1      10.407   4.051   2.410  0.00  0.00    +0.005 A 
ATOM     13  C   UNL     1      11.610   4.255   4.492  0.00  0.00    +0.005 A 
ATOM     14  C   UNL     1      10.580   2.665   2.449  0.00  0.00    +0.000 A 
ATOM     15  C   UNL     1      11.780   2.871   4.528  0.00  0.00    +0.000 A 
ATOM     16  C   UNL     1      11.268   2.077   3.505  0.00  0.00    +0.000 A 
ENDBRANCH  10  11
ENDBRANCH   1  10
TORSDOF 2
ENDMDL
MODEL 8
REMARK VINA RESULT:    -4.430     22.964     24.054
REMARK INTER + INTRA:          -5.127
REMARK INTER:                  -4.981
REMARK INTRA:                  -0.146
REMARK UNBOUND:                -0.179
REMARK  Name = 1550473
REMARK  2 active torsions:
REMARK  status: ('A' for Active; 'I' for Inactive)
REMARK    1  A    between atoms: N_1  and  C_4
REMARK    2  A    between atoms: C_4  and  C_5
REMARK                            x       y       z     vdW  Elec       q    Type
REMARK                         _______ _______ _______ _____ _____    ______ ____
ROOT
ATOM      1  N   UNL     1      -3.557 -15.934  -2.443  0.00  0.00    -0.354 N 
ATOM      2  N   UNL     1      -5.052 -16.548  -0.783  0.00  0.00    -0.372 N 
ATOM      3  N   UNL     1      -3.992 -14.519  -0.626  0.00  0.00    -0.372 N 
ATOM      4  C   UNL     1      -4.190 -15.661  -1.294  0.00  0.00    +0.166 C 
ATOM      5  H   UNL     1      -3.728 -16.830  -2.884  0.00  0.00    +0.163 HD
ATOM      6  H   UNL     1      -5.546 -16.368   0.080  0.00  0.00    +0.159 HD
ATOM      7  H   UNL     1      -5.255 -17.423  -1.251  0.00  0.00    +0.159 HD
ATOM      8  H   UNL     1      -3.350 -13.810  -0.955  0.00  0.00    +0.159 HD
ATOM      9  H   UNL     1      -4.469 -14.325   0.246  0.00  0.00    +0.159 HD
ENDROOT
BRANCH   1  10
ATOM     10  C   UNL     1      -2.640 -15.013  -3.111  0.00  0.00    +0.151 C 
BRANCH  10  11
ATOM     11  C   UNL     1      -3.398 -14.232  -4.149  0.00  0.00    -0.028 A 
ATOM     12  C   UNL     1      -3.577 -14.750  -5.440  0.00  0.00    +0.005 A 
ATOM     13  C   UNL     1      -3.944 -12.975  -3.846  0.00  0.00    +0.005 A 
ATOM     14  C   UNL     1      -4.306 -14.038  -6.395  0.00  0.00    +0.000 A 
ATOM     15  C   UNL     1      -4.671 -12.267  -4.803  0.00  0.00    +0.000 A 
ATOM     16  C   UNL     1      -4.854 -12.800  -6.077  0.00  0.00    +0.000 A 
ENDBRANCH  10  11
ENDBRANCH   1  10
TORSDOF 2
ENDMDL
MODEL 9
REMARK VINA RESULT:    -4.397     21.440     22.958
REMARK INTER + INTRA:          -5.090
REMARK INTER:                  -4.969
REMARK INTRA:                  -0.121
REMARK UNBOUND:                -0.179
REMARK  Name = 1550473
REMARK  2 active torsions:
REMARK  status: ('A' for Active; 'I' for Inactive)
REMARK    1  A    between atoms: N_1  and  C_4
REMARK    2  A    between atoms: C_4  and  C_5
REMARK                            x       y       z     vdW  Elec       q    Type
REMARK                         _______ _______ _______ _____ _____    ______ ____
ROOT
ATOM      1  N   UNL     1      -6.284  18.533   1.570  0.00  0.00    -0.354 N 
ATOM      2  N   UNL     1      -8.482  17.986   1.084  0.00  0.00    -0.372 N 
ATOM      3  N   UNL     1      -7.284  16.622   2.487  0.00  0.00    -0.372 N 
ATOM      4  C   UNL     1      -7.335  17.715   1.719  0.00  0.00    +0.166 C 
ATOM      5  H   UNL     1      -6.377  19.328   0.949  0.00  0.00    +0.163 HD
ATOM      6  H   UNL     1      -9.292  17.390   1.180  0.00  0.00    +0.159 HD
ATOM      7  H   UNL     1      -8.586  18.808   0.501  0.00  0.00    +0.159 HD
ATOM      8  H   UNL     1      -6.446  16.358   2.988  0.00  0.00    +0.159 HD
ATOM      9  H   UNL     1      -8.081  16.006   2.586  0.00  0.00    +0.159 HD
ENDROOT
BRANCH   1  10
ATOM     10  C   UNL     1      -5.007  18.356   2.259  0.00  0.00    +0.151 C 
BRANCH  10  11
ATOM     11  C   UNL     1      -3.887  18.554   1.275  0.00  0.00    -0.028 A 
ATOM     12  C   UNL     1      -2.816  17.649   1.225  0.00  0.00    +0.005 A 
ATOM     13  C   UNL     1      -3.893  19.640   0.387  0.00  0.00    +0.005 A 
ATOM     14  C   UNL     1      -1.790  17.815   0.291  0.00  0.00    +0.000 A 
ATOM     15  C   UNL     1      -2.867  19.803  -0.543  0.00  0.00    +0.000 A 
ATOM     16  C   UNL     1      -1.817  18.889  -0.593  0.00  0.00    +0.000 A 
ENDBRANCH  10  11
ENDBRANCH   1  10
TORSDOF 2
ENDMDL
