MODEL 1
REMARK VINA RESULT:    -5.592      0.000      0.000
REMARK INTER + INTRA:          -6.414
REMARK INTER:                  -6.245
REMARK INTRA:                  -0.169
REMARK UNBOUND:                -0.169
REMARK  Name = 1550473
REMARK  2 active torsions:
REMARK  status: ('A' for Active; 'I' for Inactive)
REMARK    1  A    between atoms: N_1  and  C_4
REMARK    2  A    between atoms: C_4  and  C_5
REMARK                            x       y       z     vdW  Elec       q    Type
REMARK                         _______ _______ _______ _____ _____    ______ ____
ROOT
ATOM      1  N   UNL     1      -5.201 -16.673  -3.793  0.00  0.00    -0.354 N 
ATOM      2  N   UNL     1      -6.915 -15.115  -3.757  0.00  0.00    -0.372 N 
ATOM      3  N   UNL     1      -4.744 -14.374  -3.810  0.00  0.00    -0.372 N 
ATOM      4  C   UNL     1      -5.606 -15.396  -3.787  0.00  0.00    +0.166 C 
ATOM      5  H   UNL     1      -5.904 -17.401  -3.743  0.00  0.00    +0.163 HD
ATOM      6  H   UNL     1      -7.251 -14.161  -3.755  0.00  0.00    +0.159 HD
ATOM      7  H   UNL     1      -7.616 -15.845  -3.754  0.00  0.00    +0.159 HD
ATOM      8  H   UNL     1      -3.743 -14.519  -3.827  0.00  0.00    +0.159 HD
ATOM      9  H   UNL     1      -5.060 -13.413  -3.797  0.00  0.00    +0.159 HD
ENDROOT
BRANCH   1  10
ATOM     10  C   UNL     1      -3.801 -17.086  -3.879  0.00  0.00    +0.151 C 
BRANCH  10  11
ATOM     11  C   UNL     1      -3.551 -17.695  -5.230  0.00  0.00    -0.028 A 
ATOM     12  C   UNL     1      -3.540 -19.089  -5.392  0.00  0.00    +0.005 A 
ATOM     13  C   UNL     1      -3.330 -16.885  -6.355  0.00  0.00    +0.005 A 
ATOM     14  C   UNL     1      -3.338 -19.655  -6.653  0.00  0.00    +0.000 A 
ATOM     15  C   UNL     1      -3.127 -17.455  -7.612  0.00  0.00    +0.000 A 
ATOM     16  C   UNL     1      -3.134 -18.840  -7.761  0.00  0.00    +0.000 A 
ENDBRANCH  10  11
ENDBRANCH   1  10
TORSDOF 2
ENDMDL
MODEL 2
REMARK VINA RESULT:    -5.406     26.466     28.088
REMARK INTER + INTRA:          -6.207
REMARK INTER:                  -6.040
REMARK INTRA:                  -0.166
REMARK UNBOUND:                -0.169
REMARK  Name = 1550473
REMARK  2 active torsions:
REMARK  status: ('A' for Active; 'I' for Inactive)
REMARK    1  A    between atoms: N_1  and  C_4
REMARK    2  A    between atoms: C_4  and  C_5
REMARK                            x       y       z     vdW  Elec       q    Type
REMARK                         _______ _______ _______ _____ _____    ______ ____
ROOT
ATOM      1  N   UNL     1       6.308  -7.884  17.223  0.00  0.00    -0.354 N 
ATOM      2  N   UNL     1       6.348  -9.209  15.323  0.00  0.00    -0.372 N 
ATOM      3  N   UNL     1       5.598  -7.047  15.152  0.00  0.00    -0.372 N 
ATOM      4  C   UNL     1       6.083  -8.036  15.911  0.00  0.00    +0.166 C 
ATOM      5  H   UNL     1       6.649  -8.682  17.748  0.00  0.00    +0.163 HD
ATOM      6  H   UNL     1       6.192  -9.352  14.334  0.00  0.00    +0.159 HD
ATOM      7  H   UNL     1       6.731  -9.990  15.841  0.00  0.00    +0.159 HD
ATOM      8  H   UNL     1       5.372  -6.139  15.536  0.00  0.00    +0.159 HD
ATOM      9  H   UNL     1       5.423  -7.174  14.163  0.00  0.00    +0.159 HD
ENDROOT
BRANCH   1  10
ATOM     10  C   UNL     1       6.104  -6.632  17.948  0.00  0.00    +0.151 C 
BRANCH  10  11
ATOM     11  C   UNL     1       7.442  -6.067  18.339  0.00  0.00    -0.028 A 
ATOM     12  C   UNL     1       7.919  -6.208  19.650  0.00  0.00    +0.005 A 
ATOM     13  C   UNL     1       8.240  -5.394  17.400  0.00  0.00    +0.005 A 
ATOM     14  C   UNL     1       9.175  -5.709  20.006  0.00  0.00    +0.000 A 
ATOM     15  C   UNL     1       9.493  -4.897  17.760  0.00  0.00    +0.000 A 
ATOM     16  C   UNL     1       9.961  -5.057  19.062  0.00  0.00    +0.000 A 
ENDBRANCH  10  11
ENDBRANCH   1  10
TORSDOF 2
ENDMDL
MODEL 3
REMARK VINA RESULT:    -5.230     14.994     16.491
REMARK INTER + INTRA:          -6.011
REMARK INTER:                  -5.879
REMARK INTRA:                  -0.132
REMARK UNBOUND:                -0.169
REMARK  Name = 1550473
REMARK  2 active torsions:
REMARK  status: ('A' for Active; 'I' for Inactive)
REMARK    1  A    between atoms: N_1  and  C_4
REMARK    2  A    between atoms: C_4  and  C_5
REMARK                            x       y       z     vdW  Elec       q    Type
REMARK                         _______ _______ _______ _____ _____    ______ ____
ROOT
ATOM      1  N   UNL     1       2.736  -6.611 -17.622  0.00  0.00    -0.354 N 
ATOM      2  N   UNL     1       4.207  -4.834 -17.415  0.00  0.00    -0.372 N 
ATOM      3  N   UNL     1       1.952  -4.410 -17.438  0.00  0.00    -0.372 N 
ATOM      4  C   UNL     1       2.953  -5.295 -17.493  0.00  0.00    +0.166 C 
ATOM      5  H   UNL     1       3.539  -7.226 -17.688  0.00  0.00    +0.163 HD
ATOM      6  H   UNL     1       4.401  -3.846 -17.314  0.00  0.00    +0.159 HD
ATOM      7  H   UNL     1       5.006  -5.456 -17.436  0.00  0.00    +0.159 HD
ATOM      8  H   UNL     1       0.983  -4.693 -17.497  0.00  0.00    +0.159 HD
ATOM      9  H   UNL     1       2.126  -3.417 -17.349  0.00  0.00    +0.159 HD
ENDROOT
BRANCH   1  10
ATOM     10  C   UNL     1       1.408  -7.221 -17.662  0.00  0.00    +0.151 C 
BRANCH  10  11
ATOM     11  C   UNL     1       0.967  -7.529 -16.257  0.00  0.00    -0.028 A 
ATOM     12  C   UNL     1      -0.047  -6.775 -15.649  0.00  0.00    +0.005 A 
ATOM     13  C   UNL     1       1.555  -8.576 -15.532  0.00  0.00    +0.005 A 
ATOM     14  C   UNL     1      -0.478  -7.080 -14.355  0.00  0.00    +0.000 A 
ATOM     15  C   UNL     1       1.123  -8.877 -14.241  0.00  0.00    +0.000 A 
ATOM     16  C   UNL     1       0.104  -8.130 -13.654  0.00  0.00    +0.000 A 
ENDBRANCH  10  11
ENDBRANCH   1  10
TORSDOF 2
ENDMDL
MODEL 4
REMARK VINA RESULT:    -5.207      3.481      5.291
REMARK INTER + INTRA:          -5.985
REMARK INTER:                  -5.846
REMARK INTRA:                  -0.139
REMARK UNBOUND:                -0.169
REMARK  Name = 1550473
REMARK  2 active torsions:
REMARK  status: ('A' for Active; 'I' for Inactive)
REMARK    1  A    between atoms: N_1  and  C_4
REMARK    2  A    between atoms: C_4  and  C_5
REMARK                            x       y       z     vdW  Elec       q    Type
REMARK                         _______ _______ _______ _____ _____    ______ ____
ROOT
ATOM      1  N   UNL     1      -3.744 -15.874  -2.955  0.00  0.00    -0.354 N 
ATOM      2  N   UNL     1      -4.866 -14.076  -3.888  0.00  0.00    -0.372 N 
ATOM      3  N   UNL     1      -2.939 -14.820  -4.888  0.00  0.00    -0.372 N 
ATOM      4  C   UNL     1      -3.840 -14.935  -3.906  0.00  0.00    +0.166 C 
ATOM      5  H   UNL     1      -4.443 -15.890  -2.221  0.00  0.00    +0.163 HD
ATOM      6  H   UNL     1      -4.967 -13.359  -4.594  0.00  0.00    +0.159 HD
ATOM      7  H   UNL     1      -5.588 -14.122  -3.179  0.00  0.00    +0.159 HD
ATOM      8  H   UNL     1      -2.139 -15.434  -4.954  0.00  0.00    +0.159 HD
ATOM      9  H   UNL     1      -3.017 -14.102  -5.597  0.00  0.00    +0.159 HD
ENDROOT
BRANCH   1  10
ATOM     10  C   UNL     1      -2.695 -16.892  -2.915  0.00  0.00    +0.151 C 
BRANCH  10  11
ATOM     11  C   UNL     1      -2.209 -17.040  -1.499  0.00  0.00    -0.028 A 
ATOM     12  C   UNL     1      -1.245 -18.006  -1.175  0.00  0.00    +0.005 A 
ATOM     13  C   UNL     1      -2.703 -16.213  -0.479  0.00  0.00    +0.005 A 
ATOM     14  C   UNL     1      -0.771 -18.123   0.134  0.00  0.00    +0.000 A 
ATOM     15  C   UNL     1      -2.227 -16.333   0.826  0.00  0.00    +0.000 A 
ATOM     16  C   UNL     1      -1.259 -17.287   1.132  0.00  0.00    +0.000 A 
ENDBRANCH  10  11
ENDBRANCH   1  10
TORSDOF 2
ENDMDL
MODEL 5
REMARK VINA RESULT:    -5.159      2.535      4.343
REMARK INTER + INTRA:          -5.931
REMARK INTER:                  -5.906
REMARK INTRA:                  -0.025
REMARK UNBOUND:                -0.169
REMARK  Name = 1550473
REMARK  2 active torsions:
REMARK  status: ('A' for Active; 'I' for Inactive)
REMARK    1  A    between atoms: N_1  and  C_4
REMARK    2  A    between atoms: C_4  and  C_5
REMARK                            x       y       z     vdW  Elec       q    Type
REMARK                         _______ _______ _______ _____ _____    ______ ____
ROOT
ATOM      1  N   UNL     1      -4.824 -15.561  -3.939  0.00  0.00    -0.354 N 
ATOM      2  N   UNL     1      -6.881 -14.571  -3.550  0.00  0.00    -0.372 N 
ATOM      3  N   UNL     1      -6.681 -16.843  -3.306  0.00  0.00    -0.372 N 
ATOM      4  C   UNL     1      -6.116 -15.668  -3.600  0.00  0.00    +0.166 C 
ATOM      5  H   UNL     1      -4.464 -14.645  -4.180  0.00  0.00    +0.163 HD
ATOM      6  H   UNL     1      -7.858 -14.619  -3.294  0.00  0.00    +0.159 HD
ATOM      7  H   UNL     1      -6.507 -13.650  -3.747  0.00  0.00    +0.159 HD
ATOM      8  H   UNL     1      -6.159 -17.709  -3.331  0.00  0.00    +0.159 HD
ATOM      9  H   UNL     1      -7.660 -16.914  -3.059  0.00  0.00    +0.159 HD
ENDROOT
BRANCH   1  10
ATOM     10  C   UNL     1      -3.892 -16.687  -3.972  0.00  0.00    +0.151 C 
BRANCH  10  11
ATOM     11  C   UNL     1      -3.142 -16.742  -2.669  0.00  0.00    -0.028 A 
ATOM     12  C   UNL     1      -2.253 -17.793  -2.404  0.00  0.00    +0.005 A 
ATOM     13  C   UNL     1      -3.312 -15.742  -1.699  0.00  0.00    +0.005 A 
ATOM     14  C   UNL     1      -1.533 -17.829  -1.207  0.00  0.00    +0.000 A 
ATOM     15  C   UNL     1      -2.593 -15.782  -0.505  0.00  0.00    +0.000 A 
ATOM     16  C   UNL     1      -1.702 -16.824  -0.260  0.00  0.00    +0.000 A 
ENDBRANCH  10  11
ENDBRANCH   1  10
TORSDOF 2
ENDMDL
MODEL 6
REMARK VINA RESULT:    -5.094     13.418     14.376
REMARK INTER + INTRA:          -5.858
REMARK INTER:                  -5.701
REMARK INTRA:                  -0.157
REMARK UNBOUND:                -0.169
REMARK  Name = 1550473
REMARK  2 active torsions:
REMARK  status: ('A' for Active; 'I' for Inactive)
REMARK    1  A    between atoms: N_1  and  C_4
REMARK    2  A    between atoms: C_4  and  C_5
REMARK                            x       y       z     vdW  Elec       q    Type
REMARK                         _______ _______ _______ _____ _____    ______ ____
ROOT
ATOM      1  N   UNL     1       0.872  -6.567 -12.043  0.00  0.00    -0.354 N 
ATOM      2  N   UNL     1       2.451  -5.072 -11.244  0.00  0.00    -0.372 N 
ATOM      3  N   UNL     1       0.988  -4.377 -12.869  0.00  0.00    -0.372 N 
ATOM      4  C   UNL     1       1.426  -5.347 -12.060  0.00  0.00    +0.166 C 
ATOM      5  H   UNL     1       1.270  -7.267 -11.428  0.00  0.00    +0.163 HD
ATOM      6  H   UNL     1       2.886  -4.160 -11.232  0.00  0.00    +0.159 HD
ATOM      7  H   UNL     1       2.816  -5.760 -10.597  0.00  0.00    +0.159 HD
ATOM      8  H   UNL     1       0.222  -4.522 -13.513  0.00  0.00    +0.159 HD
ATOM      9  H   UNL     1       1.418  -3.460 -12.880  0.00  0.00    +0.159 HD
ENDROOT
BRANCH   1  10
ATOM     10  C   UNL     1      -0.282  -6.952 -12.853  0.00  0.00    +0.151 C 
BRANCH  10  11
ATOM     11  C   UNL     1       0.201  -7.529 -14.154  0.00  0.00    -0.028 A 
ATOM     12  C   UNL     1       1.033  -8.658 -14.167  0.00  0.00    +0.005 A 
ATOM     13  C   UNL     1      -0.174  -6.956 -15.379  0.00  0.00    +0.005 A 
ATOM     14  C   UNL     1       1.457  -9.213 -15.377  0.00  0.00    +0.000 A 
ATOM     15  C   UNL     1       0.252  -7.512 -16.584  0.00  0.00    +0.000 A 
ATOM     16  C   UNL     1       1.066  -8.642 -16.583  0.00  0.00    +0.000 A 
ENDBRANCH  10  11
ENDBRANCH   1  10
TORSDOF 2
ENDMDL
MODEL 7
REMARK VINA RESULT:    -5.056     34.590     36.905
REMARK INTER + INTRA:          -5.817
REMARK INTER:                  -5.694
REMARK INTRA:                  -0.123
REMARK UNBOUND:                -0.169
REMARK  Name = 1550473
REMARK  2 active torsions:
REMARK  status: ('A' for Active; 'I' for Inactive)
REMARK    1  A    between atoms: N_1  and  C_4
REMARK    2  A    between atoms: C_4  and  C_5
REMARK                            x       y       z     vdW  Elec       q    Type
REMARK                         _______ _______ _______ _____ _____    ______ ____
ROOT
ATOM      1  N   UNL     1       4.161  10.102  15.368  0.00  0.00    -0.354 N 
ATOM      2  N   UNL     1       4.745   8.491  13.810  0.00  0.00    -0.372 N 
ATOM      3  N   UNL     1       2.952   8.102  15.188  0.00  0.00    -0.372 N 
ATOM      4  C   UNL     1       3.947   8.907  14.800  0.00  0.00    +0.166 C 
ATOM      5  H   UNL     1       4.951  10.652  15.049  0.00  0.00    +0.163 HD
ATOM      6  H   UNL     1       4.605   7.596  13.360  0.00  0.00    +0.159 HD
ATOM      7  H   UNL     1       5.505   9.062  13.462  0.00  0.00    +0.159 HD
ATOM      8  H   UNL     1       2.318   8.356  15.934  0.00  0.00    +0.159 HD
ATOM      9  H   UNL     1       2.803   7.198  14.758  0.00  0.00    +0.159 HD
ENDROOT
BRANCH   1  10
ATOM     10  C   UNL     1       3.317  10.672  16.416  0.00  0.00    +0.151 C 
BRANCH  10  11
ATOM     11  C   UNL     1       3.608  12.142  16.536  0.00  0.00    -0.028 A 
ATOM     12  C   UNL     1       4.113  12.860  15.441  0.00  0.00    +0.005 A 
ATOM     13  C   UNL     1       3.377  12.826  17.739  0.00  0.00    +0.005 A 
ATOM     14  C   UNL     1       4.355  14.232  15.543  0.00  0.00    +0.000 A 
ATOM     15  C   UNL     1       3.621  14.196  17.837  0.00  0.00    +0.000 A 
ATOM     16  C   UNL     1       4.107  14.899  16.738  0.00  0.00    +0.000 A 
ENDBRANCH  10  11
ENDBRANCH   1  10
TORSDOF 2
ENDMDL
MODEL 8
REMARK VINA RESULT:    -4.965     17.874     19.220
REMARK INTER + INTRA:          -5.714
REMARK INTER:                  -5.554
REMARK INTRA:                  -0.160
REMARK UNBOUND:                -0.169
REMARK  Name = 1550473
REMARK  2 active torsions:
REMARK  status: ('A' for Active; 'I' for Inactive)
REMARK    1  A    between atoms: N_1  and  C_4
REMARK    2  A    between atoms: C_4  and  C_5
REMARK                            x       y       z     vdW  Elec       q    Type
REMARK                         _______ _______ _______ _____ _____    ______ ____
ROOT
ATOM      1  N   UNL     1       4.436 -15.499  12.031  0.00  0.00    -0.354 N 
ATOM      2  N   UNL     1       5.135 -17.491  12.983  0.00  0.00    -0.372 N 
ATOM      3  N   UNL     1       6.143 -15.536  13.636  0.00  0.00    -0.372 N 
ATOM      4  C   UNL     1       5.235 -16.161  12.878  0.00  0.00    +0.166 C 
ATOM      5  H   UNL     1       3.789 -16.034  11.463  0.00  0.00    +0.163 HD
ATOM      6  H   UNL     1       5.723 -18.017  13.616  0.00  0.00    +0.159 HD
ATOM      7  H   UNL     1       4.456 -18.019  12.447  0.00  0.00    +0.159 HD
ATOM      8  H   UNL     1       6.273 -14.534  13.599  0.00  0.00    +0.159 HD
ATOM      9  H   UNL     1       6.748 -16.046  14.267  0.00  0.00    +0.159 HD
ENDROOT
BRANCH   1  10
ATOM     10  C   UNL     1       4.428 -14.045  11.881  0.00  0.00    +0.151 C 
BRANCH  10  11
ATOM     11  C   UNL     1       5.056 -13.684  10.563  0.00  0.00    -0.028 A 
ATOM     12  C   UNL     1       6.448 -13.731  10.402  0.00  0.00    +0.005 A 
ATOM     13  C   UNL     1       4.264 -13.299   9.471  0.00  0.00    +0.005 A 
ATOM     14  C   UNL     1       7.030 -13.425   9.169  0.00  0.00    +0.000 A 
ATOM     15  C   UNL     1       4.849 -12.993   8.242  0.00  0.00    +0.000 A 
ATOM     16  C   UNL     1       6.232 -13.058   8.091  0.00  0.00    +0.000 A 
ENDBRANCH  10  11
ENDBRANCH   1  10
TORSDOF 2
ENDMDL
MODEL 9
REMARK VINA RESULT:    -4.610     35.342     37.296
REMARK INTER + INTRA:          -5.318
REMARK INTER:                  -5.216
REMARK INTRA:                  -0.102
REMARK UNBOUND:                -0.169
REMARK  Name = 1550473
REMARK  2 active torsions:
REMARK  status: ('A' for Active; 'I' for Inactive)
REMARK    1  A    between atoms: N_1  and  C_4
REMARK    2  A    between atoms: C_4  and  C_5
REMARK                            x       y       z     vdW  Elec       q    Type
REMARK                         _______ _______ _______ _____ _____    ______ ____
ROOT
ATOM      1  N   UNL     1       4.485  14.071  16.049  0.00  0.00    -0.354 N 
ATOM      2  N   UNL     1       5.526  16.134  15.890  0.00  0.00    -0.372 N 
ATOM      3  N   UNL     1       3.484  15.999  16.927  0.00  0.00    -0.372 N 
ATOM      4  C   UNL     1       4.489  15.389  16.291  0.00  0.00    +0.166 C 
ATOM      5  H   UNL     1       5.264  13.674  15.536  0.00  0.00    +0.163 HD
ATOM      6  H   UNL     1       5.559  17.130  16.062  0.00  0.00    +0.159 HD
ATOM      7  H   UNL     1       6.324  15.726  15.418  0.00  0.00    +0.159 HD
ATOM      8  H   UNL     1       2.669  15.495  17.250  0.00  0.00    +0.159 HD
ATOM      9  H   UNL     1       3.492  16.997  17.097  0.00  0.00    +0.159 HD
ENDROOT
BRANCH   1  10
ATOM     10  C   UNL     1       3.430  13.162  16.491  0.00  0.00    +0.151 C 
BRANCH  10  11
ATOM     11  C   UNL     1       3.545  11.869  15.731  0.00  0.00    -0.028 A 
ATOM     12  C   UNL     1       3.894  10.683  16.393  0.00  0.00    +0.005 A 
ATOM     13  C   UNL     1       3.300  11.823  14.350  0.00  0.00    +0.005 A 
ATOM     14  C   UNL     1       3.972   9.476  15.693  0.00  0.00    +0.000 A 
ATOM     15  C   UNL     1       3.380  10.616  13.655  0.00  0.00    +0.000 A 
ATOM     16  C   UNL     1       3.713   9.443  14.327  0.00  0.00    +0.000 A 
ENDBRANCH  10  11
ENDBRANCH   1  10
TORSDOF 2
ENDMDL
