MODEL 1
REMARK VINA RESULT:    -6.349      0.000      0.000
REMARK INTER + INTRA:          -7.186
REMARK INTER:                  -7.092
REMARK INTRA:                  -0.094
REMARK UNBOUND:                -0.094
REMARK  Name = 1550473
REMARK  2 active torsions:
REMARK  status: ('A' for Active; 'I' for Inactive)
REMARK    1  A    between atoms: N_1  and  C_4
REMARK    2  A    between atoms: C_4  and  C_5
REMARK                            x       y       z     vdW  Elec       q    Type
REMARK                         _______ _______ _______ _____ _____    ______ ____
ROOT
ATOM      1  N   UNL     1      11.506   5.587  11.195  0.00  0.00    -0.354 N 
ATOM      2  N   UNL     1      12.800   7.003   9.898  0.00  0.00    -0.372 N 
ATOM      3  N   UNL     1      10.976   7.861  10.993  0.00  0.00    -0.372 N 
ATOM      4  C   UNL     1      11.750   6.809  10.705  0.00  0.00    +0.166 C 
ATOM      5  H   UNL     1      12.114   4.826  10.914  0.00  0.00    +0.163 HD
ATOM      6  H   UNL     1      13.011   7.915   9.515  0.00  0.00    +0.159 HD
ATOM      7  H   UNL     1      13.432   6.250   9.655  0.00  0.00    +0.159 HD
ATOM      8  H   UNL     1      10.164   7.780  11.592  0.00  0.00    +0.159 HD
ATOM      9  H   UNL     1      11.164   8.779  10.611  0.00  0.00    +0.159 HD
ENDROOT
BRANCH   1  10
ATOM     10  C   UNL     1      10.421   5.281  12.125  0.00  0.00    +0.151 C 
BRANCH  10  11
ATOM     11  C   UNL     1      10.211   3.792  12.162  0.00  0.00    -0.028 A 
ATOM     12  C   UNL     1       9.096   3.214  11.537  0.00  0.00    +0.005 A 
ATOM     13  C   UNL     1      11.127   2.953  12.816  0.00  0.00    +0.005 A 
ATOM     14  C   UNL     1       8.917   1.829  11.546  0.00  0.00    +0.000 A 
ATOM     15  C   UNL     1      10.944   1.570  12.823  0.00  0.00    +0.000 A 
ATOM     16  C   UNL     1       9.840   1.008  12.186  0.00  0.00    +0.000 A 
ENDBRANCH  10  11
ENDBRANCH   1  10
TORSDOF 2
ENDMDL
MODEL 2
REMARK VINA RESULT:    -6.248      2.792      4.635
REMARK INTER + INTRA:          -7.073
REMARK INTER:                  -6.956
REMARK INTRA:                  -0.116
REMARK UNBOUND:                -0.094
REMARK  Name = 1550473
REMARK  2 active torsions:
REMARK  status: ('A' for Active; 'I' for Inactive)
REMARK    1  A    between atoms: N_1  and  C_4
REMARK    2  A    between atoms: C_4  and  C_5
REMARK                            x       y       z     vdW  Elec       q    Type
REMARK                         _______ _______ _______ _____ _____    ______ ____
ROOT
ATOM      1  N   UNL     1      11.288   2.877  12.865  0.00  0.00    -0.354 N 
ATOM      2  N   UNL     1      12.811   2.024  14.387  0.00  0.00    -0.372 N 
ATOM      3  N   UNL     1      11.472   0.569  13.224  0.00  0.00    -0.372 N 
ATOM      4  C   UNL     1      11.845   1.827  13.482  0.00  0.00    +0.166 C 
ATOM      5  H   UNL     1      11.594   3.807  13.127  0.00  0.00    +0.163 HD
ATOM      6  H   UNL     1      13.252   1.251  14.866  0.00  0.00    +0.159 HD
ATOM      7  H   UNL     1      13.147   2.952  14.614  0.00  0.00    +0.159 HD
ATOM      8  H   UNL     1      10.745   0.352  12.555  0.00  0.00    +0.159 HD
ATOM      9  H   UNL     1      11.894  -0.218  13.701  0.00  0.00    +0.159 HD
ENDROOT
BRANCH   1  10
ATOM     10  C   UNL     1      10.267   2.768  11.824  0.00  0.00    +0.151 C 
BRANCH  10  11
ATOM     11  C   UNL     1       9.498   4.058  11.753  0.00  0.00    -0.028 A 
ATOM     12  C   UNL     1       8.138   4.058  11.410  0.00  0.00    +0.005 A 
ATOM     13  C   UNL     1      10.123   5.283  12.032  0.00  0.00    +0.005 A 
ATOM     14  C   UNL     1       7.416   5.253  11.373  0.00  0.00    +0.000 A 
ATOM     15  C   UNL     1       9.398   6.475  11.993  0.00  0.00    +0.000 A 
ATOM     16  C   UNL     1       8.045   6.459  11.665  0.00  0.00    +0.000 A 
ENDBRANCH  10  11
ENDBRANCH   1  10
TORSDOF 2
ENDMDL
MODEL 3
REMARK VINA RESULT:    -6.138      1.861      2.429
REMARK INTER + INTRA:          -6.949
REMARK INTER:                  -6.831
REMARK INTRA:                  -0.119
REMARK UNBOUND:                -0.094
REMARK  Name = 1550473
REMARK  2 active torsions:
REMARK  status: ('A' for Active; 'I' for Inactive)
REMARK    1  A    between atoms: N_1  and  C_4
REMARK    2  A    between atoms: C_4  and  C_5
REMARK                            x       y       z     vdW  Elec       q    Type
REMARK                         _______ _______ _______ _____ _____    ______ ____
ROOT
ATOM      1  N   UNL     1       8.636   5.662  12.152  0.00  0.00    -0.354 N 
ATOM      2  N   UNL     1       6.948   7.218  11.848  0.00  0.00    -0.372 N 
ATOM      3  N   UNL     1       9.119   7.845  11.451  0.00  0.00    -0.372 N 
ATOM      4  C   UNL     1       8.248   6.900  11.819  0.00  0.00    +0.166 C 
ATOM      5  H   UNL     1       7.929   5.000  12.450  0.00  0.00    +0.163 HD
ATOM      6  H   UNL     1       6.624   8.143  11.599  0.00  0.00    +0.159 HD
ATOM      7  H   UNL     1       6.239   6.541  12.103  0.00  0.00    +0.159 HD
ATOM      8  H   UNL     1      10.114   7.671  11.414  0.00  0.00    +0.159 HD
ATOM      9  H   UNL     1       8.816   8.780  11.209  0.00  0.00    +0.159 HD
ENDROOT
BRANCH   1  10
ATOM     10  C   UNL     1      10.021   5.198  12.101  0.00  0.00    +0.151 C 
BRANCH  10  11
ATOM     11  C   UNL     1      10.039   3.695  12.156  0.00  0.00    -0.028 A 
ATOM     12  C   UNL     1       9.033   2.948  11.526  0.00  0.00    +0.005 A 
ATOM     13  C   UNL     1      11.062   3.012  12.831  0.00  0.00    +0.005 A 
ATOM     14  C   UNL     1       9.065   1.552  11.551  0.00  0.00    +0.000 A 
ATOM     15  C   UNL     1      11.089   1.618  12.855  0.00  0.00    +0.000 A 
ATOM     16  C   UNL     1      10.092   0.888  12.212  0.00  0.00    +0.000 A 
ENDBRANCH  10  11
ENDBRANCH   1  10
TORSDOF 2
ENDMDL
MODEL 4
REMARK VINA RESULT:    -6.094      2.163      3.496
REMARK INTER + INTRA:          -6.901
REMARK INTER:                  -6.829
REMARK INTRA:                  -0.072
REMARK UNBOUND:                -0.094
REMARK  Name = 1550473
REMARK  2 active torsions:
REMARK  status: ('A' for Active; 'I' for Inactive)
REMARK    1  A    between atoms: N_1  and  C_4
REMARK    2  A    between atoms: C_4  and  C_5
REMARK                            x       y       z     vdW  Elec       q    Type
REMARK                         _______ _______ _______ _____ _____    ______ ____
ROOT
ATOM      1  N   UNL     1      11.624   3.825  10.984  0.00  0.00    -0.354 N 
ATOM      2  N   UNL     1      12.820   3.830   9.000  0.00  0.00    -0.372 N 
ATOM      3  N   UNL     1      12.636   5.784  10.189  0.00  0.00    -0.372 N 
ATOM      4  C   UNL     1      12.352   4.482  10.071  0.00  0.00    +0.166 C 
ATOM      5  H   UNL     1      11.418   2.846  10.821  0.00  0.00    +0.163 HD
ATOM      6  H   UNL     1      13.375   4.298   8.297  0.00  0.00    +0.159 HD
ATOM      7  H   UNL     1      12.651   2.841   8.864  0.00  0.00    +0.159 HD
ATOM      8  H   UNL     1      12.308   6.335  10.971  0.00  0.00    +0.159 HD
ATOM      9  H   UNL     1      13.181   6.273   9.490  0.00  0.00    +0.159 HD
ENDROOT
BRANCH   1  10
ATOM     10  C   UNL     1      11.113   4.431  12.213  0.00  0.00    +0.151 C 
BRANCH  10  11
ATOM     11  C   UNL     1       9.809   5.118  11.916  0.00  0.00    -0.028 A 
ATOM     12  C   UNL     1       8.672   4.371  11.574  0.00  0.00    +0.005 A 
ATOM     13  C   UNL     1       9.702   6.516  11.982  0.00  0.00    +0.005 A 
ATOM     14  C   UNL     1       7.453   5.007  11.328  0.00  0.00    +0.000 A 
ATOM     15  C   UNL     1       8.483   7.147  11.735  0.00  0.00    +0.000 A 
ATOM     16  C   UNL     1       7.358   6.392  11.410  0.00  0.00    +0.000 A 
ENDBRANCH  10  11
ENDBRANCH   1  10
TORSDOF 2
ENDMDL
MODEL 5
REMARK VINA RESULT:    -6.014      4.086      5.593
REMARK INTER + INTRA:          -6.811
REMARK INTER:                  -6.672
REMARK INTRA:                  -0.139
REMARK UNBOUND:                -0.094
REMARK  Name = 1550473
REMARK  2 active torsions:
REMARK  status: ('A' for Active; 'I' for Inactive)
REMARK    1  A    between atoms: N_1  and  C_4
REMARK    2  A    between atoms: C_4  and  C_5
REMARK                            x       y       z     vdW  Elec       q    Type
REMARK                         _______ _______ _______ _____ _____    ______ ____
ROOT
ATOM      1  N   UNL     1       8.839   0.091  11.213  0.00  0.00    -0.354 N 
ATOM      2  N   UNL     1       7.994  -1.557   9.823  0.00  0.00    -0.372 N 
ATOM      3  N   UNL     1      10.268  -1.346  10.037  0.00  0.00    -0.372 N 
ATOM      4  C   UNL     1       9.042  -0.927  10.366  0.00  0.00    +0.166 C 
ATOM      5  H   UNL     1       7.886   0.381  11.398  0.00  0.00    +0.163 HD
ATOM      6  H   UNL     1       8.115  -2.330   9.183  0.00  0.00    +0.159 HD
ATOM      7  H   UNL     1       7.041  -1.295  10.046  0.00  0.00    +0.159 HD
ATOM      8  H   UNL     1      11.101  -0.909  10.408  0.00  0.00    +0.159 HD
ATOM      9  H   UNL     1      10.411  -2.111   9.389  0.00  0.00    +0.159 HD
ENDROOT
BRANCH   1  10
ATOM     10  C   UNL     1       9.911   0.809  11.900  0.00  0.00    +0.151 C 
BRANCH  10  11
ATOM     11  C   UNL     1       9.620   2.284  11.859  0.00  0.00    -0.028 A 
ATOM     12  C   UNL     1       8.451   2.762  11.250  0.00  0.00    +0.005 A 
ATOM     13  C   UNL     1      10.507   3.208  12.433  0.00  0.00    +0.005 A 
ATOM     14  C   UNL     1       8.165   4.130  11.238  0.00  0.00    +0.000 A 
ATOM     15  C   UNL     1      10.218   4.573  12.419  0.00  0.00    +0.000 A 
ATOM     16  C   UNL     1       9.046   5.033  11.823  0.00  0.00    +0.000 A 
ENDBRANCH  10  11
ENDBRANCH   1  10
TORSDOF 2
ENDMDL
MODEL 6
REMARK VINA RESULT:    -5.673      1.596      2.629
REMARK INTER + INTRA:          -6.430
REMARK INTER:                  -6.290
REMARK INTRA:                  -0.140
REMARK UNBOUND:                -0.094
REMARK  Name = 1550473
REMARK  2 active torsions:
REMARK  status: ('A' for Active; 'I' for Inactive)
REMARK    1  A    between atoms: N_1  and  C_4
REMARK    2  A    between atoms: C_4  and  C_5
REMARK                            x       y       z     vdW  Elec       q    Type
REMARK                         _______ _______ _______ _____ _____    ______ ____
ROOT
ATOM      1  N   UNL     1      10.365   3.540  11.336  0.00  0.00    -0.354 N 
ATOM      2  N   UNL     1      11.359   5.606  11.661  0.00  0.00    -0.372 N 
ATOM      3  N   UNL     1       9.100   5.397  12.002  0.00  0.00    -0.372 N 
ATOM      4  C   UNL     1      10.265   4.835  11.664  0.00  0.00    +0.166 C 
ATOM      5  H   UNL     1      11.272   3.182  11.060  0.00  0.00    +0.163 HD
ATOM      6  H   UNL     1      11.315   6.586  11.907  0.00  0.00    +0.159 HD
ATOM      7  H   UNL     1      12.272   5.235  11.429  0.00  0.00    +0.159 HD
ATOM      8  H   UNL     1       8.236   4.870  12.019  0.00  0.00    +0.159 HD
ATOM      9  H   UNL     1       9.034   6.378  12.241  0.00  0.00    +0.159 HD
ENDROOT
BRANCH   1  10
ATOM     10  C   UNL     1       9.244   2.601  11.360  0.00  0.00    +0.151 C 
BRANCH  10  11
ATOM     11  C   UNL     1       9.690   1.321  12.012  0.00  0.00    -0.028 A 
ATOM     12  C   UNL     1       8.956   0.139  11.834  0.00  0.00    +0.005 A 
ATOM     13  C   UNL     1      10.848   1.283  12.803  0.00  0.00    +0.005 A 
ATOM     14  C   UNL     1       9.386  -1.057  12.414  0.00  0.00    +0.000 A 
ATOM     15  C   UNL     1      11.273   0.087  13.381  0.00  0.00    +0.000 A 
ATOM     16  C   UNL     1      10.544  -1.083  13.185  0.00  0.00    +0.000 A 
ENDBRANCH  10  11
ENDBRANCH   1  10
TORSDOF 2
ENDMDL
MODEL 7
REMARK VINA RESULT:    -5.544      2.780      4.534
REMARK INTER + INTRA:          -6.286
REMARK INTER:                  -6.152
REMARK INTRA:                  -0.135
REMARK UNBOUND:                -0.094
REMARK  Name = 1550473
REMARK  2 active torsions:
REMARK  status: ('A' for Active; 'I' for Inactive)
REMARK    1  A    between atoms: N_1  and  C_4
REMARK    2  A    between atoms: C_4  and  C_5
REMARK                            x       y       z     vdW  Elec       q    Type
REMARK                         _______ _______ _______ _____ _____    ______ ____
ROOT
ATOM      1  N   UNL     1      11.193   2.365  11.294  0.00  0.00    -0.354 N 
ATOM      2  N   UNL     1      12.985   1.703   9.984  0.00  0.00    -0.372 N 
ATOM      3  N   UNL     1      10.924   0.772   9.595  0.00  0.00    -0.372 N 
ATOM      4  C   UNL     1      11.687   1.616  10.299  0.00  0.00    +0.166 C 
ATOM      5  H   UNL     1      11.830   2.962  11.808  0.00  0.00    +0.163 HD
ATOM      6  H   UNL     1      13.386   1.153   9.236  0.00  0.00    +0.159 HD
ATOM      7  H   UNL     1      13.610   2.335  10.470  0.00  0.00    +0.159 HD
ATOM      8  H   UNL     1       9.938   0.656   9.787  0.00  0.00    +0.159 HD
ATOM      9  H   UNL     1      11.309   0.205   8.850  0.00  0.00    +0.159 HD
ENDROOT
BRANCH   1  10
ATOM     10  C   UNL     1       9.783   2.384  11.680  0.00  0.00    +0.151 C 
BRANCH  10  11
ATOM     11  C   UNL     1       9.304   3.809  11.717  0.00  0.00    -0.028 A 
ATOM     12  C   UNL     1      10.169   4.841  12.108  0.00  0.00    +0.005 A 
ATOM     13  C   UNL     1       7.987   4.134  11.356  0.00  0.00    +0.005 A 
ATOM     14  C   UNL     1       9.733   6.169  12.114  0.00  0.00    +0.000 A 
ATOM     15  C   UNL     1       7.556   5.460  11.363  0.00  0.00    +0.000 A 
ATOM     16  C   UNL     1       8.429   6.478  11.740  0.00  0.00    +0.000 A 
ENDBRANCH  10  11
ENDBRANCH   1  10
TORSDOF 2
ENDMDL
MODEL 8
REMARK VINA RESULT:    -5.527      3.741      5.222
REMARK INTER + INTRA:          -6.267
REMARK INTER:                  -6.150
REMARK INTRA:                  -0.117
REMARK UNBOUND:                -0.094
REMARK  Name = 1550473
REMARK  2 active torsions:
REMARK  status: ('A' for Active; 'I' for Inactive)
REMARK    1  A    between atoms: N_1  and  C_4
REMARK    2  A    between atoms: C_4  and  C_5
REMARK                            x       y       z     vdW  Elec       q    Type
REMARK                         _______ _______ _______ _____ _____    ______ ____
ROOT
ATOM      1  N   UNL     1      11.240   0.864  13.573  0.00  0.00    -0.354 N 
ATOM      2  N   UNL     1      11.497  -1.160  14.669  0.00  0.00    -0.372 N 
ATOM      3  N   UNL     1      13.268   0.298  14.603  0.00  0.00    -0.372 N 
ATOM      4  C   UNL     1      12.002   0.015  14.275  0.00  0.00    +0.166 C 
ATOM      5  H   UNL     1      10.298   0.577  13.331  0.00  0.00    +0.163 HD
ATOM      6  H   UNL     1      12.047  -1.820  15.203  0.00  0.00    +0.159 HD
ATOM      7  H   UNL     1      10.541  -1.425  14.465  0.00  0.00    +0.159 HD
ATOM      8  H   UNL     1      13.710   1.165  14.330  0.00  0.00    +0.159 HD
ATOM      9  H   UNL     1      13.838  -0.355  15.126  0.00  0.00    +0.159 HD
ENDROOT
BRANCH   1  10
ATOM     10  C   UNL     1      11.677   2.190  13.142  0.00  0.00    +0.151 C 
BRANCH  10  11
ATOM     11  C   UNL     1      10.522   2.902  12.494  0.00  0.00    -0.028 A 
ATOM     12  C   UNL     1       9.503   2.175  11.860  0.00  0.00    +0.005 A 
ATOM     13  C   UNL     1      10.437   4.302  12.514  0.00  0.00    +0.005 A 
ATOM     14  C   UNL     1       8.414   2.834  11.284  0.00  0.00    +0.000 A 
ATOM     15  C   UNL     1       9.349   4.956  11.937  0.00  0.00    +0.000 A 
ATOM     16  C   UNL     1       8.337   4.222  11.324  0.00  0.00    +0.000 A 
ENDBRANCH  10  11
ENDBRANCH   1  10
TORSDOF 2
ENDMDL
MODEL 9
REMARK VINA RESULT:    -5.494      2.549      3.780
REMARK INTER + INTRA:          -6.231
REMARK INTER:                  -6.086
REMARK INTRA:                  -0.145
REMARK UNBOUND:                -0.094
REMARK  Name = 1550473
REMARK  2 active torsions:
REMARK  status: ('A' for Active; 'I' for Inactive)
REMARK    1  A    between atoms: N_1  and  C_4
REMARK    2  A    between atoms: C_4  and  C_5
REMARK                            x       y       z     vdW  Elec       q    Type
REMARK                         _______ _______ _______ _____ _____    ______ ____
ROOT
ATOM      1  N   UNL     1       9.886   2.834  11.376  0.00  0.00    -0.354 N 
ATOM      2  N   UNL     1       9.149   4.984  11.820  0.00  0.00    -0.372 N 
ATOM      3  N   UNL     1       7.629   3.411  11.125  0.00  0.00    -0.372 N 
ATOM      4  C   UNL     1       8.891   3.728  11.437  0.00  0.00    +0.166 C 
ATOM      5  H   UNL     1      10.826   3.144  11.596  0.00  0.00    +0.163 HD
ATOM      6  H   UNL     1       8.418   5.680  11.878  0.00  0.00    +0.159 HD
ATOM      7  H   UNL     1      10.081   5.280  12.083  0.00  0.00    +0.159 HD
ATOM      8  H   UNL     1       7.369   2.482  10.823  0.00  0.00    +0.159 HD
ATOM      9  H   UNL     1       6.885   4.097  11.166  0.00  0.00    +0.159 HD
ENDROOT
BRANCH   1  10
ATOM     10  C   UNL     1       9.702   1.427  11.023  0.00  0.00    +0.151 C 
BRANCH  10  11
ATOM     11  C   UNL     1      10.132   0.569  12.181  0.00  0.00    -0.028 A 
ATOM     12  C   UNL     1       9.497  -0.655  12.435  0.00  0.00    +0.005 A 
ATOM     13  C   UNL     1      11.179   0.973  13.024  0.00  0.00    +0.005 A 
ATOM     14  C   UNL     1       9.916  -1.466  13.492  0.00  0.00    +0.000 A 
ATOM     15  C   UNL     1      11.594   0.160  14.079  0.00  0.00    +0.000 A 
ATOM     16  C   UNL     1      10.964  -1.060  14.312  0.00  0.00    +0.000 A 
ENDBRANCH  10  11
ENDBRANCH   1  10
TORSDOF 2
ENDMDL
