MODEL 1
REMARK VINA RESULT:    -6.203      0.000      0.000
REMARK INTER + INTRA:          -7.024
REMARK INTER:                  -6.928
REMARK INTRA:                  -0.096
REMARK UNBOUND:                -0.096
REMARK  Name = 1550473
REMARK  2 active torsions:
REMARK  status: ('A' for Active; 'I' for Inactive)
REMARK    1  A    between atoms: N_1  and  C_4
REMARK    2  A    between atoms: C_4  and  C_5
REMARK                            x       y       z     vdW  Elec       q    Type
REMARK                         _______ _______ _______ _____ _____    ______ ____
ROOT
ATOM      1  N   UNL     1      -4.148  -4.983   7.749  0.00  0.00    -0.354 N 
ATOM      2  N   UNL     1      -3.599  -4.198   9.857  0.00  0.00    -0.372 N 
ATOM      3  N   UNL     1      -2.126  -3.863   8.130  0.00  0.00    -0.372 N 
ATOM      4  C   UNL     1      -3.292  -4.352   8.563  0.00  0.00    +0.166 C 
ATOM      5  H   UNL     1      -5.002  -5.358   8.145  0.00  0.00    +0.163 HD
ATOM      6  H   UNL     1      -2.975  -3.723  10.495  0.00  0.00    +0.159 HD
ATOM      7  H   UNL     1      -4.474  -4.533  10.241  0.00  0.00    +0.159 HD
ATOM      8  H   UNL     1      -1.832  -3.952   7.167  0.00  0.00    +0.159 HD
ATOM      9  H   UNL     1      -1.482  -3.395   8.756  0.00  0.00    +0.159 HD
ENDROOT
BRANCH   1  10
ATOM     10  C   UNL     1      -3.934  -5.157   6.313  0.00  0.00    +0.151 C 
BRANCH  10  11
ATOM     11  C   UNL     1      -5.261  -5.378   5.641  0.00  0.00    -0.028 A 
ATOM     12  C   UNL     1      -5.776  -6.674   5.493  0.00  0.00    +0.005 A 
ATOM     13  C   UNL     1      -6.010  -4.296   5.156  0.00  0.00    +0.005 A 
ATOM     14  C   UNL     1      -7.022  -6.878   4.895  0.00  0.00    +0.000 A 
ATOM     15  C   UNL     1      -7.254  -4.503   4.560  0.00  0.00    +0.000 A 
ATOM     16  C   UNL     1      -7.761  -5.794   4.432  0.00  0.00    +0.000 A 
ENDBRANCH  10  11
ENDBRANCH   1  10
TORSDOF 2
ENDMDL
MODEL 2
REMARK VINA RESULT:    -6.064      8.351      9.830
REMARK INTER + INTRA:          -6.869
REMARK INTER:                  -6.733
REMARK INTRA:                  -0.136
REMARK UNBOUND:                -0.096
REMARK  Name = 1550473
REMARK  2 active torsions:
REMARK  status: ('A' for Active; 'I' for Inactive)
REMARK    1  A    between atoms: N_1  and  C_4
REMARK    2  A    between atoms: C_4  and  C_5
REMARK                            x       y       z     vdW  Elec       q    Type
REMARK                         _______ _______ _______ _____ _____    ______ ____
ROOT
ATOM      1  N   UNL     1      -1.907  -9.419  15.419  0.00  0.00    -0.354 N 
ATOM      2  N   UNL     1      -0.181  -9.727  16.932  0.00  0.00    -0.372 N 
ATOM      3  N   UNL     1      -1.876 -11.271  16.855  0.00  0.00    -0.372 N 
ATOM      4  C   UNL     1      -1.334 -10.139  16.393  0.00  0.00    +0.166 C 
ATOM      5  H   UNL     1      -1.462  -8.555  15.134  0.00  0.00    +0.163 HD
ATOM      6  H   UNL     1       0.277 -10.251  17.666  0.00  0.00    +0.159 HD
ATOM      7  H   UNL     1       0.286  -8.886  16.614  0.00  0.00    +0.159 HD
ATOM      8  H   UNL     1      -2.748 -11.634  16.494  0.00  0.00    +0.159 HD
ATOM      9  H   UNL     1      -1.439 -11.804  17.597  0.00  0.00    +0.159 HD
ENDROOT
BRANCH   1  10
ATOM     10  C   UNL     1      -3.135  -9.809  14.729  0.00  0.00    +0.151 C 
BRANCH  10  11
ATOM     11  C   UNL     1      -3.954  -8.579  14.451  0.00  0.00    -0.028 A 
ATOM     12  C   UNL     1      -3.650  -7.364  15.081  0.00  0.00    +0.005 A 
ATOM     13  C   UNL     1      -5.032  -8.621  13.554  0.00  0.00    +0.005 A 
ATOM     14  C   UNL     1      -4.391  -6.214  14.801  0.00  0.00    +0.000 A 
ATOM     15  C   UNL     1      -5.771  -7.470  13.277  0.00  0.00    +0.000 A 
ATOM     16  C   UNL     1      -5.449  -6.267  13.899  0.00  0.00    +0.000 A 
ENDBRANCH  10  11
ENDBRANCH   1  10
TORSDOF 2
ENDMDL
MODEL 3
REMARK VINA RESULT:    -5.705      2.278      2.902
REMARK INTER + INTRA:          -6.468
REMARK INTER:                  -6.299
REMARK INTRA:                  -0.168
REMARK UNBOUND:                -0.096
REMARK  Name = 1550473
REMARK  2 active torsions:
REMARK  status: ('A' for Active; 'I' for Inactive)
REMARK    1  A    between atoms: N_1  and  C_4
REMARK    2  A    between atoms: C_4  and  C_5
REMARK                            x       y       z     vdW  Elec       q    Type
REMARK                         _______ _______ _______ _____ _____    ______ ____
ROOT
ATOM      1  N   UNL     1      -5.006  -6.980   8.015  0.00  0.00    -0.354 N 
ATOM      2  N   UNL     1      -5.711  -7.740  10.086  0.00  0.00    -0.372 N 
ATOM      3  N   UNL     1      -5.805  -9.166   8.290  0.00  0.00    -0.372 N 
ATOM      4  C   UNL     1      -5.503  -7.959   8.782  0.00  0.00    +0.166 C 
ATOM      5  H   UNL     1      -4.826  -6.078   8.442  0.00  0.00    +0.163 HD
ATOM      6  H   UNL     1      -6.083  -8.461  10.690  0.00  0.00    +0.159 HD
ATOM      7  H   UNL     1      -5.488  -6.853  10.519  0.00  0.00    +0.159 HD
ATOM      8  H   UNL     1      -5.677  -9.393   7.313  0.00  0.00    +0.159 HD
ATOM      9  H   UNL     1      -6.188  -9.896   8.876  0.00  0.00    +0.159 HD
ENDROOT
BRANCH   1  10
ATOM     10  C   UNL     1      -4.692  -7.132   6.596  0.00  0.00    +0.151 C 
BRANCH  10  11
ATOM     11  C   UNL     1      -5.650  -6.300   5.789  0.00  0.00    -0.028 A 
ATOM     12  C   UNL     1      -6.793  -6.882   5.220  0.00  0.00    +0.005 A 
ATOM     13  C   UNL     1      -5.424  -4.929   5.594  0.00  0.00    +0.005 A 
ATOM     14  C   UNL     1      -7.699  -6.103   4.495  0.00  0.00    +0.000 A 
ATOM     15  C   UNL     1      -6.331  -4.156   4.869  0.00  0.00    +0.000 A 
ATOM     16  C   UNL     1      -7.469  -4.743   4.322  0.00  0.00    +0.000 A 
ENDBRANCH  10  11
ENDBRANCH   1  10
TORSDOF 2
ENDMDL
MODEL 4
REMARK VINA RESULT:    -5.611      3.095      4.647
REMARK INTER + INTRA:          -6.363
REMARK INTER:                  -6.183
REMARK INTRA:                  -0.180
REMARK UNBOUND:                -0.096
REMARK  Name = 1550473
REMARK  2 active torsions:
REMARK  status: ('A' for Active; 'I' for Inactive)
REMARK    1  A    between atoms: N_1  and  C_4
REMARK    2  A    between atoms: C_4  and  C_5
REMARK                            x       y       z     vdW  Elec       q    Type
REMARK                         _______ _______ _______ _____ _____    ______ ____
ROOT
ATOM      1  N   UNL     1      -6.981  -6.216   4.609  0.00  0.00    -0.354 N 
ATOM      2  N   UNL     1      -8.538  -4.536   4.268  0.00  0.00    -0.372 N 
ATOM      3  N   UNL     1      -6.320  -3.974   4.439  0.00  0.00    -0.372 N 
ATOM      4  C   UNL     1      -7.267  -4.918   4.441  0.00  0.00    +0.166 C 
ATOM      5  H   UNL     1      -7.747  -6.879   4.631  0.00  0.00    +0.163 HD
ATOM      6  H   UNL     1      -8.784  -3.564   4.135  0.00  0.00    +0.159 HD
ATOM      7  H   UNL     1      -9.297  -5.206   4.244  0.00  0.00    +0.159 HD
ATOM      8  H   UNL     1      -5.342  -4.196   4.570  0.00  0.00    +0.159 HD
ATOM      9  H   UNL     1      -6.548  -2.995   4.319  0.00  0.00    +0.159 HD
ENDROOT
BRANCH   1  10
ATOM     10  C   UNL     1      -5.624  -6.742   4.751  0.00  0.00    +0.151 C 
BRANCH  10  11
ATOM     11  C   UNL     1      -5.378  -7.080   6.196  0.00  0.00    -0.028 A 
ATOM     12  C   UNL     1      -5.903  -8.255   6.752  0.00  0.00    +0.005 A 
ATOM     13  C   UNL     1      -4.615  -6.231   7.012  0.00  0.00    +0.005 A 
ATOM     14  C   UNL     1      -5.649  -8.584   8.086  0.00  0.00    +0.000 A 
ATOM     15  C   UNL     1      -4.364  -6.563   8.344  0.00  0.00    +0.000 A 
ATOM     16  C   UNL     1      -4.880  -7.740   8.879  0.00  0.00    +0.000 A 
ENDBRANCH  10  11
ENDBRANCH   1  10
TORSDOF 2
ENDMDL
MODEL 5
REMARK VINA RESULT:    -5.437      2.753      4.755
REMARK INTER + INTRA:          -6.168
REMARK INTER:                  -6.230
REMARK INTRA:                   0.061
REMARK UNBOUND:                -0.096
REMARK  Name = 1550473
REMARK  2 active torsions:
REMARK  status: ('A' for Active; 'I' for Inactive)
REMARK    1  A    between atoms: N_1  and  C_4
REMARK    2  A    between atoms: C_4  and  C_5
REMARK                            x       y       z     vdW  Elec       q    Type
REMARK                         _______ _______ _______ _____ _____    ______ ____
ROOT
ATOM      1  N   UNL     1      -6.015  -5.821   5.078  0.00  0.00    -0.354 N 
ATOM      2  N   UNL     1      -8.064  -4.748   4.959  0.00  0.00    -0.372 N 
ATOM      3  N   UNL     1      -6.212  -3.700   4.101  0.00  0.00    -0.372 N 
ATOM      4  C   UNL     1      -6.748  -4.761   4.712  0.00  0.00    +0.166 C 
ATOM      5  H   UNL     1      -6.476  -6.581   5.565  0.00  0.00    +0.163 HD
ATOM      6  H   UNL     1      -8.644  -3.964   4.692  0.00  0.00    +0.159 HD
ATOM      7  H   UNL     1      -8.530  -5.529   5.405  0.00  0.00    +0.159 HD
ATOM      8  H   UNL     1      -5.224  -3.646   3.891  0.00  0.00    +0.159 HD
ATOM      9  H   UNL     1      -6.773  -2.901   3.836  0.00  0.00    +0.159 HD
ENDROOT
BRANCH   1  10
ATOM     10  C   UNL     1      -4.585  -5.958   4.807  0.00  0.00    +0.151 C 
BRANCH  10  11
ATOM     11  C   UNL     1      -3.811  -5.242   5.880  0.00  0.00    -0.028 A 
ATOM     12  C   UNL     1      -4.393  -4.991   7.131  0.00  0.00    +0.005 A 
ATOM     13  C   UNL     1      -2.493  -4.817   5.653  0.00  0.00    +0.005 A 
ATOM     14  C   UNL     1      -3.665  -4.353   8.137  0.00  0.00    +0.000 A 
ATOM     15  C   UNL     1      -1.770  -4.178   6.660  0.00  0.00    +0.000 A 
ATOM     16  C   UNL     1      -2.355  -3.949   7.903  0.00  0.00    +0.000 A 
ENDBRANCH  10  11
ENDBRANCH   1  10
TORSDOF 2
ENDMDL
MODEL 6
REMARK VINA RESULT:    -5.256      5.841      8.179
REMARK INTER + INTRA:          -5.966
REMARK INTER:                  -5.790
REMARK INTRA:                  -0.176
REMARK UNBOUND:                -0.096
REMARK  Name = 1550473
REMARK  2 active torsions:
REMARK  status: ('A' for Active; 'I' for Inactive)
REMARK    1  A    between atoms: N_1  and  C_4
REMARK    2  A    between atoms: C_4  and  C_5
REMARK                            x       y       z     vdW  Elec       q    Type
REMARK                         _______ _______ _______ _____ _____    ______ ____
ROOT
ATOM      1  N   UNL     1      -4.409  -7.101  11.030  0.00  0.00    -0.354 N 
ATOM      2  N   UNL     1      -3.275  -5.296  10.125  0.00  0.00    -0.372 N 
ATOM      3  N   UNL     1      -4.389  -5.023  12.112  0.00  0.00    -0.372 N 
ATOM      4  C   UNL     1      -4.033  -5.817  11.097  0.00  0.00    +0.166 C 
ATOM      5  H   UNL     1      -4.131  -7.642  10.219  0.00  0.00    +0.163 HD
ATOM      6  H   UNL     1      -2.973  -4.331  10.151  0.00  0.00    +0.159 HD
ATOM      7  H   UNL     1      -2.960  -5.851   9.339  0.00  0.00    +0.159 HD
ATOM      8  H   UNL     1      -4.965  -5.354  12.875  0.00  0.00    +0.159 HD
ATOM      9  H   UNL     1      -4.106  -4.052  12.150  0.00  0.00    +0.159 HD
ENDROOT
BRANCH   1  10
ATOM     10  C   UNL     1      -5.189  -7.780  12.063  0.00  0.00    +0.151 C 
BRANCH  10  11
ATOM     11  C   UNL     1      -4.251  -8.469  13.014  0.00  0.00    -0.028 A 
ATOM     12  C   UNL     1      -4.124  -8.023  14.338  0.00  0.00    +0.005 A 
ATOM     13  C   UNL     1      -3.490  -9.574  12.600  0.00  0.00    +0.005 A 
ATOM     14  C   UNL     1      -3.274  -8.681  15.230  0.00  0.00    +0.000 A 
ATOM     15  C   UNL     1      -2.643 -10.228  13.494  0.00  0.00    +0.000 A 
ATOM     16  C   UNL     1      -2.537  -9.783  14.810  0.00  0.00    +0.000 A 
ENDBRANCH  10  11
ENDBRANCH   1  10
TORSDOF 2
ENDMDL
MODEL 7
REMARK VINA RESULT:    -5.229      3.505      4.828
REMARK INTER + INTRA:          -5.937
REMARK INTER:                  -5.833
REMARK INTRA:                  -0.104
REMARK UNBOUND:                -0.096
REMARK  Name = 1550473
REMARK  2 active torsions:
REMARK  status: ('A' for Active; 'I' for Inactive)
REMARK    1  A    between atoms: N_1  and  C_4
REMARK    2  A    between atoms: C_4  and  C_5
REMARK                            x       y       z     vdW  Elec       q    Type
REMARK                         _______ _______ _______ _____ _____    ______ ____
ROOT
ATOM      1  N   UNL     1      -4.523  -7.100   5.601  0.00  0.00    -0.354 N 
ATOM      2  N   UNL     1      -2.916  -5.881   4.462  0.00  0.00    -0.372 N 
ATOM      3  N   UNL     1      -4.983  -4.944   4.805  0.00  0.00    -0.372 N 
ATOM      4  C   UNL     1      -4.153  -5.981   4.963  0.00  0.00    +0.166 C 
ATOM      5  H   UNL     1      -3.857  -7.862   5.660  0.00  0.00    +0.163 HD
ATOM      6  H   UNL     1      -2.608  -5.048   3.979  0.00  0.00    +0.159 HD
ATOM      7  H   UNL     1      -2.238  -6.626   4.563  0.00  0.00    +0.159 HD
ATOM      8  H   UNL     1      -5.931  -4.959   5.155  0.00  0.00    +0.159 HD
ATOM      9  H   UNL     1      -4.696  -4.107   4.314  0.00  0.00    +0.159 HD
ENDROOT
BRANCH   1  10
ATOM     10  C   UNL     1      -5.829  -7.290   6.230  0.00  0.00    +0.151 C 
BRANCH  10  11
ATOM     11  C   UNL     1      -5.662  -8.132   7.464  0.00  0.00    -0.028 A 
ATOM     12  C   UNL     1      -5.724  -9.531   7.385  0.00  0.00    +0.005 A 
ATOM     13  C   UNL     1      -5.434  -7.538   8.715  0.00  0.00    +0.005 A 
ATOM     14  C   UNL     1      -5.540 -10.315   8.526  0.00  0.00    +0.000 A 
ATOM     15  C   UNL     1      -5.251  -8.324   9.852  0.00  0.00    +0.000 A 
ATOM     16  C   UNL     1      -5.301  -9.713   9.757  0.00  0.00    +0.000 A 
ENDBRANCH  10  11
ENDBRANCH   1  10
TORSDOF 2
ENDMDL
MODEL 8
REMARK VINA RESULT:    -5.165     13.681     15.399
REMARK INTER + INTRA:          -5.865
REMARK INTER:                  -5.708
REMARK INTRA:                  -0.157
REMARK UNBOUND:                -0.096
REMARK  Name = 1550473
REMARK  2 active torsions:
REMARK  status: ('A' for Active; 'I' for Inactive)
REMARK    1  A    between atoms: N_1  and  C_4
REMARK    2  A    between atoms: C_4  and  C_5
REMARK                            x       y       z     vdW  Elec       q    Type
REMARK                         _______ _______ _______ _____ _____    ______ ____
ROOT
ATOM      1  N   UNL     1     -13.577  -2.987  -4.054  0.00  0.00    -0.354 N 
ATOM      2  N   UNL     1     -14.303  -1.934  -2.123  0.00  0.00    -0.372 N 
ATOM      3  N   UNL     1     -14.740  -4.170  -2.398  0.00  0.00    -0.372 N 
ATOM      4  C   UNL     1     -14.203  -3.040  -2.871  0.00  0.00    +0.166 C 
ATOM      5  H   UNL     1     -13.218  -2.093  -4.370  0.00  0.00    +0.163 HD
ATOM      6  H   UNL     1     -14.766  -1.944  -1.225  0.00  0.00    +0.159 HD
ATOM      7  H   UNL     1     -13.903  -1.052  -2.420  0.00  0.00    +0.159 HD
ATOM      8  H   UNL     1     -14.703  -5.038  -2.916  0.00  0.00    +0.159 HD
ATOM      9  H   UNL     1     -15.218  -4.197  -1.506  0.00  0.00    +0.159 HD
ENDROOT
BRANCH   1  10
ATOM     10  C   UNL     1     -13.367  -4.146  -4.920  0.00  0.00    +0.151 C 
BRANCH  10  11
ATOM     11  C   UNL     1     -14.035  -3.897  -6.244  0.00  0.00    -0.028 A 
ATOM     12  C   UNL     1     -15.429  -3.769  -6.326  0.00  0.00    +0.005 A 
ATOM     13  C   UNL     1     -13.278  -3.783  -7.421  0.00  0.00    +0.005 A 
ATOM     14  C   UNL     1     -16.048  -3.508  -7.551  0.00  0.00    +0.000 A 
ATOM     15  C   UNL     1     -13.900  -3.523  -8.642  0.00  0.00    +0.000 A 
ATOM     16  C   UNL     1     -15.284  -3.383  -8.706  0.00  0.00    +0.000 A 
ENDBRANCH  10  11
ENDBRANCH   1  10
TORSDOF 2
ENDMDL
MODEL 9
REMARK VINA RESULT:    -4.971     23.917     24.491
REMARK INTER + INTRA:          -5.649
REMARK INTER:                  -5.503
REMARK INTRA:                  -0.146
REMARK UNBOUND:                -0.096
REMARK  Name = 1550473
REMARK  2 active torsions:
REMARK  status: ('A' for Active; 'I' for Inactive)
REMARK    1  A    between atoms: N_1  and  C_4
REMARK    2  A    between atoms: C_4  and  C_5
REMARK                            x       y       z     vdW  Elec       q    Type
REMARK                         _______ _______ _______ _____ _____    ______ ____
ROOT
ATOM      1  N   UNL     1       2.833  -9.181 -15.487  0.00  0.00    -0.354 N 
ATOM      2  N   UNL     1       2.753  -8.706 -13.221  0.00  0.00    -0.372 N 
ATOM      3  N   UNL     1       3.198 -10.856 -13.888  0.00  0.00    -0.372 N 
ATOM      4  C   UNL     1       2.929  -9.587 -14.213  0.00  0.00    +0.166 C 
ATOM      5  H   UNL     1       2.597  -8.212 -15.667  0.00  0.00    +0.163 HD
ATOM      6  H   UNL     1       2.823  -8.982 -12.251  0.00  0.00    +0.159 HD
ATOM      7  H   UNL     1       2.563  -7.728 -13.405  0.00  0.00    +0.159 HD
ATOM      8  H   UNL     1       3.336 -11.571 -14.590  0.00  0.00    +0.159 HD
ATOM      9  H   UNL     1       3.260 -11.154 -12.922  0.00  0.00    +0.159 HD
ENDROOT
BRANCH   1  10
ATOM     10  C   UNL     1       3.060 -10.050 -16.640  0.00  0.00    +0.151 C 
BRANCH  10  11
ATOM     11  C   UNL     1       1.755 -10.272 -17.353  0.00  0.00    -0.028 A 
ATOM     12  C   UNL     1       1.568  -9.799 -18.660  0.00  0.00    +0.005 A 
ATOM     13  C   UNL     1       0.702 -10.958 -16.728  0.00  0.00    +0.005 A 
ATOM     14  C   UNL     1       0.366 -10.031 -19.333  0.00  0.00    +0.000 A 
ATOM     15  C   UNL     1      -0.496 -11.187 -17.403  0.00  0.00    +0.000 A 
ATOM     16  C   UNL     1      -0.664 -10.726 -18.706  0.00  0.00    +0.000 A 
ENDBRANCH  10  11
ENDBRANCH   1  10
TORSDOF 2
ENDMDL
