MODEL 1
REMARK VINA RESULT:    -5.076      0.000      0.000
REMARK INTER + INTRA:          -5.784
REMARK INTER:                  -5.669
REMARK INTRA:                  -0.115
REMARK UNBOUND:                -0.115
REMARK  Name = 1550473
REMARK  2 active torsions:
REMARK  status: ('A' for Active; 'I' for Inactive)
REMARK    1  A    between atoms: N_1  and  C_4
REMARK    2  A    between atoms: C_4  and  C_5
REMARK                            x       y       z     vdW  Elec       q    Type
REMARK                         _______ _______ _______ _____ _____    ______ ____
ROOT
ATOM      1  N   UNL     1     -10.962 -12.804   0.405  0.00  0.00    -0.354 N 
ATOM      2  N   UNL     1      -9.971 -12.569  -1.675  0.00  0.00    -0.372 N 
ATOM      3  N   UNL     1     -11.741 -14.012  -1.446  0.00  0.00    -0.372 N 
ATOM      4  C   UNL     1     -10.900 -13.132  -0.892  0.00  0.00    +0.166 C 
ATOM      5  H   UNL     1     -10.276 -12.153   0.770  0.00  0.00    +0.163 HD
ATOM      6  H   UNL     1      -9.902 -12.794  -2.659  0.00  0.00    +0.159 HD
ATOM      7  H   UNL     1      -9.317 -11.884  -1.318  0.00  0.00    +0.159 HD
ATOM      8  H   UNL     1     -12.460 -14.476  -0.908  0.00  0.00    +0.159 HD
ATOM      9  H   UNL     1     -11.680 -14.259  -2.426  0.00  0.00    +0.159 HD
ENDROOT
BRANCH   1  10
ATOM     10  C   UNL     1     -11.969 -13.319   1.331  0.00  0.00    +0.151 C 
BRANCH  10  11
ATOM     11  C   UNL     1     -12.334 -12.238   2.311  0.00  0.00    -0.028 A 
ATOM     12  C   UNL     1     -13.671 -12.040   2.687  0.00  0.00    +0.005 A 
ATOM     13  C   UNL     1     -11.347 -11.413   2.871  0.00  0.00    +0.005 A 
ATOM     14  C   UNL     1     -14.007 -11.056   3.620  0.00  0.00    +0.000 A 
ATOM     15  C   UNL     1     -11.687 -10.431   3.801  0.00  0.00    +0.000 A 
ATOM     16  C   UNL     1     -13.017 -10.254   4.177  0.00  0.00    +0.000 A 
ENDBRANCH  10  11
ENDBRANCH   1  10
TORSDOF 2
ENDMDL
MODEL 2
REMARK VINA RESULT:    -5.051     19.979     21.144
REMARK INTER + INTRA:          -5.757
REMARK INTER:                  -5.641
REMARK INTRA:                  -0.116
REMARK UNBOUND:                -0.115
REMARK  Name = 1550473
REMARK  2 active torsions:
REMARK  status: ('A' for Active; 'I' for Inactive)
REMARK    1  A    between atoms: N_1  and  C_4
REMARK    2  A    between atoms: C_4  and  C_5
REMARK                            x       y       z     vdW  Elec       q    Type
REMARK                         _______ _______ _______ _____ _____    ______ ____
ROOT
ATOM      1  N   UNL     1      -7.632   8.139   5.764  0.00  0.00    -0.354 N 
ATOM      2  N   UNL     1      -6.360   8.167   7.699  0.00  0.00    -0.372 N 
ATOM      3  N   UNL     1      -6.201   9.932   6.242  0.00  0.00    -0.372 N 
ATOM      4  C   UNL     1      -6.738   8.748   6.554  0.00  0.00    +0.166 C 
ATOM      5  H   UNL     1      -7.979   7.228   6.043  0.00  0.00    +0.163 HD
ATOM      6  H   UNL     1      -5.690   8.604   8.317  0.00  0.00    +0.159 HD
ATOM      7  H   UNL     1      -6.743   7.278   7.997  0.00  0.00    +0.159 HD
ATOM      8  H   UNL     1      -6.440  10.420   5.389  0.00  0.00    +0.159 HD
ATOM      9  H   UNL     1      -5.520  10.380   6.842  0.00  0.00    +0.159 HD
ENDROOT
BRANCH   1  10
ATOM     10  C   UNL     1      -8.151   8.712   4.523  0.00  0.00    +0.151 C 
BRANCH  10  11
ATOM     11  C   UNL     1      -9.516   8.143   4.253  0.00  0.00    -0.028 A 
ATOM     12  C   UNL     1     -10.527   8.224   5.222  0.00  0.00    +0.005 A 
ATOM     13  C   UNL     1      -9.808   7.525   3.027  0.00  0.00    +0.005 A 
ATOM     14  C   UNL     1     -11.804   7.722   4.960  0.00  0.00    +0.000 A 
ATOM     15  C   UNL     1     -11.084   7.025   2.769  0.00  0.00    +0.000 A 
ATOM     16  C   UNL     1     -12.082   7.126   3.735  0.00  0.00    +0.000 A 
ENDBRANCH  10  11
ENDBRANCH   1  10
TORSDOF 2
ENDMDL
MODEL 3
REMARK VINA RESULT:    -4.982     20.589     21.848
REMARK INTER + INTRA:          -5.680
REMARK INTER:                  -5.518
REMARK INTRA:                  -0.162
REMARK UNBOUND:                -0.115
REMARK  Name = 1550473
REMARK  2 active torsions:
REMARK  status: ('A' for Active; 'I' for Inactive)
REMARK    1  A    between atoms: N_1  and  C_4
REMARK    2  A    between atoms: C_4  and  C_5
REMARK                            x       y       z     vdW  Elec       q    Type
REMARK                         _______ _______ _______ _____ _____    ______ ____
ROOT
ATOM      1  N   UNL     1      -6.663   9.286   5.811  0.00  0.00    -0.354 N 
ATOM      2  N   UNL     1      -5.499   8.254   7.527  0.00  0.00    -0.372 N 
ATOM      3  N   UNL     1      -7.516   9.242   7.993  0.00  0.00    -0.372 N 
ATOM      4  C   UNL     1      -6.569   8.935   7.100  0.00  0.00    +0.166 C 
ATOM      5  H   UNL     1      -5.897   9.049   5.191  0.00  0.00    +0.163 HD
ATOM      6  H   UNL     1      -5.402   7.973   8.493  0.00  0.00    +0.159 HD
ATOM      7  H   UNL     1      -4.756   7.979   6.895  0.00  0.00    +0.159 HD
ATOM      8  H   UNL     1      -8.346   9.760   7.736  0.00  0.00    +0.159 HD
ATOM      9  H   UNL     1      -7.432   8.980   8.967  0.00  0.00    +0.159 HD
ENDROOT
BRANCH   1  10
ATOM     10  C   UNL     1      -7.812   9.982   5.234  0.00  0.00    +0.151 C 
BRANCH  10  11
ATOM     11  C   UNL     1      -8.493   9.072   4.249  0.00  0.00    -0.028 A 
ATOM     12  C   UNL     1      -8.128   9.087   2.895  0.00  0.00    +0.005 A 
ATOM     13  C   UNL     1      -9.502   8.189   4.665  0.00  0.00    +0.005 A 
ATOM     14  C   UNL     1      -8.740   8.221   1.986  0.00  0.00    +0.000 A 
ATOM     15  C   UNL     1     -10.111   7.327   3.754  0.00  0.00    +0.000 A 
ATOM     16  C   UNL     1      -9.728   7.341   2.415  0.00  0.00    +0.000 A 
ENDBRANCH  10  11
ENDBRANCH   1  10
TORSDOF 2
ENDMDL
MODEL 4
REMARK VINA RESULT:    -4.703     34.847     35.957
REMARK INTER + INTRA:          -5.369
REMARK INTER:                  -5.247
REMARK INTRA:                  -0.121
REMARK UNBOUND:                -0.115
REMARK  Name = 1550473
REMARK  2 active torsions:
REMARK  status: ('A' for Active; 'I' for Inactive)
REMARK    1  A    between atoms: N_1  and  C_4
REMARK    2  A    between atoms: C_4  and  C_5
REMARK                            x       y       z     vdW  Elec       q    Type
REMARK                         _______ _______ _______ _____ _____    ______ ____
ROOT
ATOM      1  N   UNL     1      14.292  12.730   2.305  0.00  0.00    -0.354 N 
ATOM      2  N   UNL     1      15.730  12.758   0.489  0.00  0.00    -0.372 N 
ATOM      3  N   UNL     1      14.035  11.212   0.538  0.00  0.00    -0.372 N 
ATOM      4  C   UNL     1      14.675  12.231   1.122  0.00  0.00    +0.166 C 
ATOM      5  H   UNL     1      14.837  13.483   2.709  0.00  0.00    +0.163 HD
ATOM      6  H   UNL     1      16.040  12.405  -0.406  0.00  0.00    +0.159 HD
ATOM      7  H   UNL     1      16.245  13.541   0.874  0.00  0.00    +0.159 HD
ATOM      8  H   UNL     1      13.235  10.766   0.966  0.00  0.00    +0.159 HD
ATOM      9  H   UNL     1      14.338  10.837  -0.353  0.00  0.00    +0.159 HD
ENDROOT
BRANCH   1  10
ATOM     10  C   UNL     1      13.124  12.263   3.050  0.00  0.00    +0.151 C 
BRANCH  10  11
ATOM     11  C   UNL     1      12.875  13.192   4.205  0.00  0.00    -0.028 A 
ATOM     12  C   UNL     1      13.377  14.502   4.187  0.00  0.00    +0.005 A 
ATOM     13  C   UNL     1      12.132  12.772   5.319  0.00  0.00    +0.005 A 
ATOM     14  C   UNL     1      13.120  15.375   5.246  0.00  0.00    +0.000 A 
ATOM     15  C   UNL     1      11.878  13.646   6.375  0.00  0.00    +0.000 A 
ATOM     16  C   UNL     1      12.370  14.949   6.337  0.00  0.00    +0.000 A 
ENDBRANCH  10  11
ENDBRANCH   1  10
TORSDOF 2
ENDMDL
MODEL 5
REMARK VINA RESULT:    -4.676     20.143     21.259
REMARK INTER + INTRA:          -5.338
REMARK INTER:                  -5.263
REMARK INTRA:                  -0.076
REMARK UNBOUND:                -0.115
REMARK  Name = 1550473
REMARK  2 active torsions:
REMARK  status: ('A' for Active; 'I' for Inactive)
REMARK    1  A    between atoms: N_1  and  C_4
REMARK    2  A    between atoms: C_4  and  C_5
REMARK                            x       y       z     vdW  Elec       q    Type
REMARK                         _______ _______ _______ _____ _____    ______ ____
ROOT
ATOM      1  N   UNL     1      -8.424   9.513   5.759  0.00  0.00    -0.354 N 
ATOM      2  N   UNL     1      -6.204  10.174   5.734  0.00  0.00    -0.372 N 
ATOM      3  N   UNL     1      -6.743   8.128   6.623  0.00  0.00    -0.372 N 
ATOM      4  C   UNL     1      -7.138   9.265   6.041  0.00  0.00    +0.166 C 
ATOM      5  H   UNL     1      -8.662  10.407   5.344  0.00  0.00    +0.163 HD
ATOM      6  H   UNL     1      -5.226  10.013   5.931  0.00  0.00    +0.159 HD
ATOM      7  H   UNL     1      -6.440  11.047   5.278  0.00  0.00    +0.159 HD
ATOM      8  H   UNL     1      -7.399   7.404   6.885  0.00  0.00    +0.159 HD
ATOM      9  H   UNL     1      -5.769   7.954   6.839  0.00  0.00    +0.159 HD
ENDROOT
BRANCH   1  10
ATOM     10  C   UNL     1      -9.512   8.567   6.003  0.00  0.00    +0.151 C 
BRANCH  10  11
ATOM     11  C   UNL     1     -10.045   8.081   4.683  0.00  0.00    -0.028 A 
ATOM     12  C   UNL     1      -9.231   8.087   3.541  0.00  0.00    +0.005 A 
ATOM     13  C   UNL     1     -11.361   7.608   4.570  0.00  0.00    +0.005 A 
ATOM     14  C   UNL     1      -9.716   7.608   2.322  0.00  0.00    +0.000 A 
ATOM     15  C   UNL     1     -11.842   7.131   3.351  0.00  0.00    +0.000 A 
ATOM     16  C   UNL     1     -11.018   7.129   2.228  0.00  0.00    +0.000 A 
ENDBRANCH  10  11
ENDBRANCH   1  10
TORSDOF 2
ENDMDL
MODEL 6
REMARK VINA RESULT:    -4.552     10.785     12.358
REMARK INTER + INTRA:          -5.200
REMARK INTER:                  -5.079
REMARK INTRA:                  -0.121
REMARK UNBOUND:                -0.115
REMARK  Name = 1550473
REMARK  2 active torsions:
REMARK  status: ('A' for Active; 'I' for Inactive)
REMARK    1  A    between atoms: N_1  and  C_4
REMARK    2  A    between atoms: C_4  and  C_5
REMARK                            x       y       z     vdW  Elec       q    Type
REMARK                         _______ _______ _______ _____ _____    ______ ____
ROOT
ATOM      1  N   UNL     1     -18.876  -1.840   4.143  0.00  0.00    -0.354 N 
ATOM      2  N   UNL     1     -19.450  -0.102   2.724  0.00  0.00    -0.372 N 
ATOM      3  N   UNL     1     -19.241   0.323   4.969  0.00  0.00    -0.372 N 
ATOM      4  C   UNL     1     -19.186  -0.549   3.957  0.00  0.00    +0.166 C 
ATOM      5  H   UNL     1     -18.881  -2.457   3.339  0.00  0.00    +0.163 HD
ATOM      6  H   UNL     1     -19.683   0.867   2.552  0.00  0.00    +0.159 HD
ATOM      7  H   UNL     1     -19.410  -0.711   1.916  0.00  0.00    +0.159 HD
ATOM      8  H   UNL     1     -19.057   0.048   5.924  0.00  0.00    +0.159 HD
ATOM      9  H   UNL     1     -19.483   1.295   4.819  0.00  0.00    +0.159 HD
ENDROOT
BRANCH   1  10
ATOM     10  C   UNL     1     -18.519  -2.416   5.438  0.00  0.00    +0.151 C 
BRANCH  10  11
ATOM     11  C   UNL     1     -18.634  -3.913   5.358  0.00  0.00    -0.028 A 
ATOM     12  C   UNL     1     -18.600  -4.564   4.116  0.00  0.00    +0.005 A 
ATOM     13  C   UNL     1     -18.771  -4.687   6.521  0.00  0.00    +0.005 A 
ATOM     14  C   UNL     1     -18.677  -5.957   4.043  0.00  0.00    +0.000 A 
ATOM     15  C   UNL     1     -18.848  -6.078   6.443  0.00  0.00    +0.000 A 
ATOM     16  C   UNL     1     -18.798  -6.712   5.205  0.00  0.00    +0.000 A 
ENDBRANCH  10  11
ENDBRANCH   1  10
TORSDOF 2
ENDMDL
MODEL 7
REMARK VINA RESULT:    -4.518     32.041     33.296
REMARK INTER + INTRA:          -5.161
REMARK INTER:                  -5.053
REMARK INTRA:                  -0.108
REMARK UNBOUND:                -0.115
REMARK  Name = 1550473
REMARK  2 active torsions:
REMARK  status: ('A' for Active; 'I' for Inactive)
REMARK    1  A    between atoms: N_1  and  C_4
REMARK    2  A    between atoms: C_4  and  C_5
REMARK                            x       y       z     vdW  Elec       q    Type
REMARK                         _______ _______ _______ _____ _____    ______ ____
ROOT
ATOM      1  N   UNL     1      17.360   3.244   6.710  0.00  0.00    -0.354 N 
ATOM      2  N   UNL     1      17.355   3.976   4.513  0.00  0.00    -0.372 N 
ATOM      3  N   UNL     1      17.849   5.474   6.179  0.00  0.00    -0.372 N 
ATOM      4  C   UNL     1      17.521   4.229   5.816  0.00  0.00    +0.166 C 
ATOM      5  H   UNL     1      17.082   2.329   6.373  0.00  0.00    +0.163 HD
ATOM      6  H   UNL     1      17.473   4.698   3.815  0.00  0.00    +0.159 HD
ATOM      7  H   UNL     1      17.122   3.050   4.175  0.00  0.00    +0.159 HD
ATOM      8  H   UNL     1      17.983   5.731   7.148  0.00  0.00    +0.159 HD
ATOM      9  H   UNL     1      17.960   6.213   5.497  0.00  0.00    +0.159 HD
ENDROOT
BRANCH   1  10
ATOM     10  C   UNL     1      17.571   3.402   8.148  0.00  0.00    +0.151 C 
BRANCH  10  11
ATOM     11  C   UNL     1      17.202   2.120   8.842  0.00  0.00    -0.028 A 
ATOM     12  C   UNL     1      15.985   1.482   8.562  0.00  0.00    +0.005 A 
ATOM     13  C   UNL     1      18.069   1.534   9.777  0.00  0.00    +0.005 A 
ATOM     14  C   UNL     1      15.656   0.276   9.184  0.00  0.00    +0.000 A 
ATOM     15  C   UNL     1      17.737   0.330  10.397  0.00  0.00    +0.000 A 
ATOM     16  C   UNL     1      16.531  -0.300  10.098  0.00  0.00    +0.000 A 
ENDBRANCH  10  11
ENDBRANCH   1  10
TORSDOF 2
ENDMDL
MODEL 8
REMARK VINA RESULT:    -4.473      4.068      5.013
REMARK INTER + INTRA:          -5.111
REMARK INTER:                  -5.021
REMARK INTRA:                  -0.091
REMARK UNBOUND:                -0.115
REMARK  Name = 1550473
REMARK  2 active torsions:
REMARK  status: ('A' for Active; 'I' for Inactive)
REMARK    1  A    between atoms: N_1  and  C_4
REMARK    2  A    between atoms: C_4  and  C_5
REMARK                            x       y       z     vdW  Elec       q    Type
REMARK                         _______ _______ _______ _____ _____    ______ ____
ROOT
ATOM      1  N   UNL     1     -16.323 -12.027   3.781  0.00  0.00    -0.354 N 
ATOM      2  N   UNL     1     -17.627 -13.106   2.200  0.00  0.00    -0.372 N 
ATOM      3  N   UNL     1     -17.067 -10.907   1.861  0.00  0.00    -0.372 N 
ATOM      4  C   UNL     1     -16.997 -12.003   2.623  0.00  0.00    +0.166 C 
ATOM      5  H   UNL     1     -16.334 -12.880   4.327  0.00  0.00    +0.163 HD
ATOM      6  H   UNL     1     -18.140 -13.120   1.329  0.00  0.00    +0.159 HD
ATOM      7  H   UNL     1     -17.598 -13.971   2.726  0.00  0.00    +0.159 HD
ATOM      8  H   UNL     1     -16.618 -10.040   2.127  0.00  0.00    +0.159 HD
ATOM      9  H   UNL     1     -17.586 -10.897   0.992  0.00  0.00    +0.159 HD
ENDROOT
BRANCH   1  10
ATOM     10  C   UNL     1     -15.559 -10.896   4.305  0.00  0.00    +0.151 C 
BRANCH  10  11
ATOM     11  C   UNL     1     -14.092 -11.160   4.106  0.00  0.00    -0.028 A 
ATOM     12  C   UNL     1     -13.224 -11.222   5.206  0.00  0.00    +0.005 A 
ATOM     13  C   UNL     1     -13.564 -11.355   2.820  0.00  0.00    +0.005 A 
ATOM     14  C   UNL     1     -11.866 -11.498   5.024  0.00  0.00    +0.000 A 
ATOM     15  C   UNL     1     -12.208 -11.629   2.643  0.00  0.00    +0.000 A 
ATOM     16  C   UNL     1     -11.360 -11.703   3.745  0.00  0.00    +0.000 A 
ENDBRANCH  10  11
ENDBRANCH   1  10
TORSDOF 2
ENDMDL
MODEL 9
REMARK VINA RESULT:    -4.342     31.595     32.476
REMARK INTER + INTRA:          -4.964
REMARK INTER:                  -4.833
REMARK INTRA:                  -0.131
REMARK UNBOUND:                -0.115
REMARK  Name = 1550473
REMARK  2 active torsions:
REMARK  status: ('A' for Active; 'I' for Inactive)
REMARK    1  A    between atoms: N_1  and  C_4
REMARK    2  A    between atoms: C_4  and  C_5
REMARK                            x       y       z     vdW  Elec       q    Type
REMARK                         _______ _______ _______ _____ _____    ______ ____
ROOT
ATOM      1  N   UNL     1      17.018   1.470   5.984  0.00  0.00    -0.354 N 
ATOM      2  N   UNL     1      17.485   3.379   4.759  0.00  0.00    -0.372 N 
ATOM      3  N   UNL     1      19.143   1.822   5.062  0.00  0.00    -0.372 N 
ATOM      4  C   UNL     1      17.882   2.210   5.276  0.00  0.00    +0.166 C 
ATOM      5  H   UNL     1      16.084   1.834   6.136  0.00  0.00    +0.163 HD
ATOM      6  H   UNL     1      18.114   3.958   4.218  0.00  0.00    +0.159 HD
ATOM      7  H   UNL     1      16.538   3.719   4.874  0.00  0.00    +0.159 HD
ATOM      8  H   UNL     1      19.506   0.953   5.430  0.00  0.00    +0.159 HD
ATOM      9  H   UNL     1      19.791   2.393   4.533  0.00  0.00    +0.159 HD
ENDROOT
BRANCH   1  10
ATOM     10  C   UNL     1      17.334   0.157   6.544  0.00  0.00    +0.151 C 
BRANCH  10  11
ATOM     11  C   UNL     1      16.890   0.116   7.980  0.00  0.00    -0.028 A 
ATOM     12  C   UNL     1      17.615  -0.619   8.929  0.00  0.00    +0.005 A 
ATOM     13  C   UNL     1      15.747   0.815   8.399  0.00  0.00    +0.005 A 
ATOM     14  C   UNL     1      17.220  -0.634  10.269  0.00  0.00    +0.000 A 
ATOM     15  C   UNL     1      15.356   0.797   9.738  0.00  0.00    +0.000 A 
ATOM     16  C   UNL     1      16.094   0.075  10.673  0.00  0.00    +0.000 A 
ENDBRANCH  10  11
ENDBRANCH   1  10
TORSDOF 2
ENDMDL
