MODEL 1
REMARK VINA RESULT:    -5.259      0.000      0.000
REMARK INTER + INTRA:          -5.972
REMARK INTER:                  -5.874
REMARK INTRA:                  -0.098
REMARK UNBOUND:                -0.098
REMARK  Name = 1550473
REMARK  2 active torsions:
REMARK  status: ('A' for Active; 'I' for Inactive)
REMARK    1  A    between atoms: N_1  and  C_4
REMARK    2  A    between atoms: C_4  and  C_5
REMARK                            x       y       z     vdW  Elec       q    Type
REMARK                         _______ _______ _______ _____ _____    ______ ____
ROOT
ATOM      1  N   UNL     1     -10.210   0.209   1.404  0.00  0.00    -0.354 N 
ATOM      2  N   UNL     1     -11.526  -0.254   3.252  0.00  0.00    -0.372 N 
ATOM      3  N   UNL     1      -9.258  -0.043   3.531  0.00  0.00    -0.372 N 
ATOM      4  C   UNL     1     -10.320  -0.026   2.718  0.00  0.00    +0.166 C 
ATOM      5  H   UNL     1     -11.049   0.178   0.837  0.00  0.00    +0.163 HD
ATOM      6  H   UNL     1     -11.641  -0.431   4.241  0.00  0.00    +0.159 HD
ATOM      7  H   UNL     1     -12.369  -0.239   2.691  0.00  0.00    +0.159 HD
ATOM      8  H   UNL     1      -8.320   0.116   3.189  0.00  0.00    +0.159 HD
ATOM      9  H   UNL     1      -9.352  -0.230   4.521  0.00  0.00    +0.159 HD
ENDROOT
BRANCH   1  10
ATOM     10  C   UNL     1      -8.949   0.522   0.732  0.00  0.00    +0.151 C 
BRANCH  10  11
ATOM     11  C   UNL     1      -9.223   0.804  -0.719  0.00  0.00    -0.028 A 
ATOM     12  C   UNL     1      -8.902   2.051  -1.275  0.00  0.00    +0.005 A 
ATOM     13  C   UNL     1      -9.798  -0.173  -1.546  0.00  0.00    +0.005 A 
ATOM     14  C   UNL     1      -9.128   2.304  -2.630  0.00  0.00    +0.000 A 
ATOM     15  C   UNL     1     -10.023   0.083  -2.898  0.00  0.00    +0.000 A 
ATOM     16  C   UNL     1      -9.686   1.321  -3.440  0.00  0.00    +0.000 A 
ENDBRANCH  10  11
ENDBRANCH   1  10
TORSDOF 2
ENDMDL
MODEL 2
REMARK VINA RESULT:    -5.202      9.830     10.598
REMARK INTER + INTRA:          -5.909
REMARK INTER:                  -5.778
REMARK INTRA:                  -0.131
REMARK UNBOUND:                -0.098
REMARK  Name = 1550473
REMARK  2 active torsions:
REMARK  status: ('A' for Active; 'I' for Inactive)
REMARK    1  A    between atoms: N_1  and  C_4
REMARK    2  A    between atoms: C_4  and  C_5
REMARK                            x       y       z     vdW  Elec       q    Type
REMARK                         _______ _______ _______ _____ _____    ______ ____
ROOT
ATOM      1  N   UNL     1      -0.212   4.116   2.558  0.00  0.00    -0.354 N 
ATOM      2  N   UNL     1       1.317   2.430   2.988  0.00  0.00    -0.372 N 
ATOM      3  N   UNL     1      -0.339   2.058   1.444  0.00  0.00    -0.372 N 
ATOM      4  C   UNL     1       0.244   2.878   2.326  0.00  0.00    +0.166 C 
ATOM      5  H   UNL     1       0.256   4.677   3.261  0.00  0.00    +0.163 HD
ATOM      6  H   UNL     1       1.685   1.502   2.831  0.00  0.00    +0.159 HD
ATOM      7  H   UNL     1       1.810   3.009   3.657  0.00  0.00    +0.159 HD
ATOM      8  H   UNL     1      -1.156   2.334   0.916  0.00  0.00    +0.159 HD
ATOM      9  H   UNL     1       0.008   1.121   1.282  0.00  0.00    +0.159 HD
ENDROOT
BRANCH   1  10
ATOM     10  C   UNL     1      -1.340   4.718   1.851  0.00  0.00    +0.151 C 
BRANCH  10  11
ATOM     11  C   UNL     1      -2.156   5.525   2.824  0.00  0.00    -0.028 A 
ATOM     12  C   UNL     1      -2.531   4.980   4.061  0.00  0.00    +0.005 A 
ATOM     13  C   UNL     1      -2.552   6.836   2.517  0.00  0.00    +0.005 A 
ATOM     14  C   UNL     1      -3.263   5.739   4.977  0.00  0.00    +0.000 A 
ATOM     15  C   UNL     1      -3.283   7.590   3.434  0.00  0.00    +0.000 A 
ATOM     16  C   UNL     1      -3.637   7.042   4.665  0.00  0.00    +0.000 A 
ENDBRANCH  10  11
ENDBRANCH   1  10
TORSDOF 2
ENDMDL
MODEL 3
REMARK VINA RESULT:    -5.140     10.914     11.781
REMARK INTER + INTRA:          -5.839
REMARK INTER:                  -5.698
REMARK INTRA:                  -0.141
REMARK UNBOUND:                -0.098
REMARK  Name = 1550473
REMARK  2 active torsions:
REMARK  status: ('A' for Active; 'I' for Inactive)
REMARK    1  A    between atoms: N_1  and  C_4
REMARK    2  A    between atoms: C_4  and  C_5
REMARK                            x       y       z     vdW  Elec       q    Type
REMARK                         _______ _______ _______ _____ _____    ______ ____
ROOT
ATOM      1  N   UNL     1      -1.020  -2.819  -2.897  0.00  0.00    -0.354 N 
ATOM      2  N   UNL     1      -1.249  -2.499  -5.180  0.00  0.00    -0.372 N 
ATOM      3  N   UNL     1      -1.119  -0.662  -3.810  0.00  0.00    -0.372 N 
ATOM      4  C   UNL     1      -1.128  -1.993  -3.947  0.00  0.00    +0.166 C 
ATOM      5  H   UNL     1      -1.064  -3.817  -3.064  0.00  0.00    +0.163 HD
ATOM      6  H   UNL     1      -1.329  -1.900  -5.991  0.00  0.00    +0.159 HD
ATOM      7  H   UNL     1      -1.247  -3.497  -5.349  0.00  0.00    +0.159 HD
ATOM      8  H   UNL     1      -1.036  -0.217  -2.906  0.00  0.00    +0.159 HD
ATOM      9  H   UNL     1      -1.209  -0.047  -4.609  0.00  0.00    +0.159 HD
ENDROOT
BRANCH   1  10
ATOM     10  C   UNL     1      -0.829  -2.369  -1.519  0.00  0.00    +0.151 C 
BRANCH  10  11
ATOM     11  C   UNL     1       0.477  -2.906  -1.004  0.00  0.00    -0.028 A 
ATOM     12  C   UNL     1       1.565  -2.047  -0.791  0.00  0.00    +0.005 A 
ATOM     13  C   UNL     1       0.633  -4.272  -0.721  0.00  0.00    +0.005 A 
ATOM     14  C   UNL     1       2.770  -2.540  -0.283  0.00  0.00    +0.000 A 
ATOM     15  C   UNL     1       1.837  -4.760  -0.216  0.00  0.00    +0.000 A 
ATOM     16  C   UNL     1       2.905  -3.893   0.005  0.00  0.00    +0.000 A 
ENDBRANCH  10  11
ENDBRANCH   1  10
TORSDOF 2
ENDMDL
MODEL 4
REMARK VINA RESULT:    -5.052      7.764      8.548
REMARK INTER + INTRA:          -5.741
REMARK INTER:                  -5.645
REMARK INTRA:                  -0.096
REMARK UNBOUND:                -0.098
REMARK  Name = 1550473
REMARK  2 active torsions:
REMARK  status: ('A' for Active; 'I' for Inactive)
REMARK    1  A    between atoms: N_1  and  C_4
REMARK    2  A    between atoms: C_4  and  C_5
REMARK                            x       y       z     vdW  Elec       q    Type
REMARK                         _______ _______ _______ _____ _____    ______ ____
ROOT
ATOM      1  N   UNL     1      -2.505   3.173  -3.877  0.00  0.00    -0.354 N 
ATOM      2  N   UNL     1      -0.425   2.498  -4.640  0.00  0.00    -0.372 N 
ATOM      3  N   UNL     1      -1.790   0.954  -3.631  0.00  0.00    -0.372 N 
ATOM      4  C   UNL     1      -1.588   2.210  -4.043  0.00  0.00    +0.166 C 
ATOM      5  H   UNL     1      -2.279   4.112  -4.184  0.00  0.00    +0.163 HD
ATOM      6  H   UNL     1       0.284   1.792  -4.783  0.00  0.00    +0.159 HD
ATOM      7  H   UNL     1      -0.220   3.427  -4.988  0.00  0.00    +0.159 HD
ATOM      8  H   UNL     1      -2.644   0.674  -3.168  0.00  0.00    +0.159 HD
ATOM      9  H   UNL     1      -1.087   0.237  -3.754  0.00  0.00    +0.159 HD
ENDROOT
BRANCH   1  10
ATOM     10  C   UNL     1      -3.825   2.951  -3.287  0.00  0.00    +0.151 C 
BRANCH  10  11
ATOM     11  C   UNL     1      -4.673   4.173  -3.509  0.00  0.00    -0.028 A 
ATOM     12  C   UNL     1      -4.360   5.383  -2.873  0.00  0.00    +0.005 A 
ATOM     13  C   UNL     1      -5.788   4.129  -4.360  0.00  0.00    +0.005 A 
ATOM     14  C   UNL     1      -5.130   6.526  -3.102  0.00  0.00    +0.000 A 
ATOM     15  C   UNL     1      -6.555   5.272  -4.586  0.00  0.00    +0.000 A 
ATOM     16  C   UNL     1      -6.224   6.471  -3.959  0.00  0.00    +0.000 A 
ENDBRANCH  10  11
ENDBRANCH   1  10
TORSDOF 2
ENDMDL
MODEL 5
REMARK VINA RESULT:    -4.996     13.280     14.110
REMARK INTER + INTRA:          -5.678
REMARK INTER:                  -5.540
REMARK INTRA:                  -0.138
REMARK UNBOUND:                -0.098
REMARK  Name = 1550473
REMARK  2 active torsions:
REMARK  status: ('A' for Active; 'I' for Inactive)
REMARK    1  A    between atoms: N_1  and  C_4
REMARK    2  A    between atoms: C_4  and  C_5
REMARK                            x       y       z     vdW  Elec       q    Type
REMARK                         _______ _______ _______ _____ _____    ______ ____
ROOT
ATOM      1  N   UNL     1       5.162  -1.841  -0.312  0.00  0.00    -0.354 N 
ATOM      2  N   UNL     1       6.472  -0.302  -1.443  0.00  0.00    -0.372 N 
ATOM      3  N   UNL     1       5.498   0.315   0.541  0.00  0.00    -0.372 N 
ATOM      4  C   UNL     1       5.701  -0.618  -0.395  0.00  0.00    +0.166 C 
ATOM      5  H   UNL     1       5.329  -2.493  -1.070  0.00  0.00    +0.163 HD
ATOM      6  H   UNL     1       6.896   0.612  -1.531  0.00  0.00    +0.159 HD
ATOM      7  H   UNL     1       6.676  -0.971  -2.175  0.00  0.00    +0.159 HD
ATOM      8  H   UNL     1       4.922   0.142   1.353  0.00  0.00    +0.159 HD
ATOM      9  H   UNL     1       5.904   1.240   0.465  0.00  0.00    +0.159 HD
ENDROOT
BRANCH   1  10
ATOM     10  C   UNL     1       4.351  -2.303   0.814  0.00  0.00    +0.151 C 
BRANCH  10  11
ATOM     11  C   UNL     1       3.067  -2.883   0.289  0.00  0.00    -0.028 A 
ATOM     12  C   UNL     1       2.034  -2.043  -0.151  0.00  0.00    +0.005 A 
ATOM     13  C   UNL     1       2.879  -4.272   0.223  0.00  0.00    +0.005 A 
ATOM     14  C   UNL     1       0.852  -2.581  -0.666  0.00  0.00    +0.000 A 
ATOM     15  C   UNL     1       1.698  -4.806  -0.291  0.00  0.00    +0.000 A 
ATOM     16  C   UNL     1       0.686  -3.960  -0.738  0.00  0.00    +0.000 A 
ENDBRANCH  10  11
ENDBRANCH   1  10
TORSDOF 2
ENDMDL
MODEL 6
REMARK VINA RESULT:    -4.908      9.050      9.923
REMARK INTER + INTRA:          -5.580
REMARK INTER:                  -5.464
REMARK INTRA:                  -0.116
REMARK UNBOUND:                -0.098
REMARK  Name = 1550473
REMARK  2 active torsions:
REMARK  status: ('A' for Active; 'I' for Inactive)
REMARK    1  A    between atoms: N_1  and  C_4
REMARK    2  A    between atoms: C_4  and  C_5
REMARK                            x       y       z     vdW  Elec       q    Type
REMARK                         _______ _______ _______ _____ _____    ______ ____
ROOT
ATOM      1  N   UNL     1      -0.977   2.469   3.542  0.00  0.00    -0.354 N 
ATOM      2  N   UNL     1       1.281   2.298   3.057  0.00  0.00    -0.372 N 
ATOM      3  N   UNL     1       0.004   0.392   3.079  0.00  0.00    -0.372 N 
ATOM      4  C   UNL     1       0.087   1.718   3.229  0.00  0.00    +0.166 C 
ATOM      5  H   UNL     1      -0.842   3.465   3.671  0.00  0.00    +0.163 HD
ATOM      6  H   UNL     1       2.101   1.758   2.817  0.00  0.00    +0.159 HD
ATOM      7  H   UNL     1       1.404   3.300   3.142  0.00  0.00    +0.159 HD
ATOM      8  H   UNL     1      -0.867  -0.107   3.201  0.00  0.00    +0.159 HD
ATOM      9  H   UNL     1       0.816  -0.168   2.851  0.00  0.00    +0.159 HD
ENDROOT
BRANCH   1  10
ATOM     10  C   UNL     1      -2.332   1.942   3.698  0.00  0.00    +0.151 C 
BRANCH  10  11
ATOM     11  C   UNL     1      -3.154   2.927   4.483  0.00  0.00    -0.028 A 
ATOM     12  C   UNL     1      -2.901   4.303   4.386  0.00  0.00    +0.005 A 
ATOM     13  C   UNL     1      -4.191   2.490   5.321  0.00  0.00    +0.005 A 
ATOM     14  C   UNL     1      -3.684   5.220   5.092  0.00  0.00    +0.000 A 
ATOM     15  C   UNL     1      -4.970   3.409   6.025  0.00  0.00    +0.000 A 
ATOM     16  C   UNL     1      -4.718   4.774   5.908  0.00  0.00    +0.000 A 
ENDBRANCH  10  11
ENDBRANCH   1  10
TORSDOF 2
ENDMDL
MODEL 7
REMARK VINA RESULT:    -4.842     13.158     14.051
REMARK INTER + INTRA:          -5.507
REMARK INTER:                  -5.332
REMARK INTRA:                  -0.175
REMARK UNBOUND:                -0.098
REMARK  Name = 1550473
REMARK  2 active torsions:
REMARK  status: ('A' for Active; 'I' for Inactive)
REMARK    1  A    between atoms: N_1  and  C_4
REMARK    2  A    between atoms: C_4  and  C_5
REMARK                            x       y       z     vdW  Elec       q    Type
REMARK                         _______ _______ _______ _____ _____    ______ ____
ROOT
ATOM      1  N   UNL     1       5.146  -1.572   0.023  0.00  0.00    -0.354 N 
ATOM      2  N   UNL     1       6.548  -0.501  -1.477  0.00  0.00    -0.372 N 
ATOM      3  N   UNL     1       4.746   0.642  -0.633  0.00  0.00    -0.372 N 
ATOM      4  C   UNL     1       5.469  -0.482  -0.686  0.00  0.00    +0.166 C 
ATOM      5  H   UNL     1       5.718  -2.403  -0.085  0.00  0.00    +0.163 HD
ATOM      6  H   UNL     1       6.818   0.308  -2.021  0.00  0.00    +0.159 HD
ATOM      7  H   UNL     1       7.144  -1.317  -1.548  0.00  0.00    +0.159 HD
ATOM      8  H   UNL     1       3.917   0.719  -0.059  0.00  0.00    +0.159 HD
ATOM      9  H   UNL     1       4.994   1.458  -1.178  0.00  0.00    +0.159 HD
ENDROOT
BRANCH   1  10
ATOM     10  C   UNL     1       4.022  -1.638   0.955  0.00  0.00    +0.151 C 
BRANCH  10  11
ATOM     11  C   UNL     1       2.932  -2.479   0.351  0.00  0.00    -0.028 A 
ATOM     12  C   UNL     1       3.004  -3.879   0.395  0.00  0.00    +0.005 A 
ATOM     13  C   UNL     1       1.820  -1.881  -0.262  0.00  0.00    +0.005 A 
ATOM     14  C   UNL     1       1.976  -4.660  -0.139  0.00  0.00    +0.000 A 
ATOM     15  C   UNL     1       0.796  -2.664  -0.796  0.00  0.00    +0.000 A 
ATOM     16  C   UNL     1       0.874  -4.053  -0.732  0.00  0.00    +0.000 A 
ENDBRANCH  10  11
ENDBRANCH   1  10
TORSDOF 2
ENDMDL
MODEL 8
REMARK VINA RESULT:    -4.831      6.284      7.710
REMARK INTER + INTRA:          -5.494
REMARK INTER:                  -5.360
REMARK INTRA:                  -0.134
REMARK UNBOUND:                -0.098
REMARK  Name = 1550473
REMARK  2 active torsions:
REMARK  status: ('A' for Active; 'I' for Inactive)
REMARK    1  A    between atoms: N_1  and  C_4
REMARK    2  A    between atoms: C_4  and  C_5
REMARK                            x       y       z     vdW  Elec       q    Type
REMARK                         _______ _______ _______ _____ _____    ______ ____
ROOT
ATOM      1  N   UNL     1      -2.570   1.233   4.325  0.00  0.00    -0.354 N 
ATOM      2  N   UNL     1      -0.380   1.692   4.924  0.00  0.00    -0.372 N 
ATOM      3  N   UNL     1      -1.680   3.388   4.087  0.00  0.00    -0.372 N 
ATOM      4  C   UNL     1      -1.559   2.104   4.440  0.00  0.00    +0.166 C 
ATOM      5  H   UNL     1      -2.405   0.267   4.581  0.00  0.00    +0.163 HD
ATOM      6  H   UNL     1       0.400   2.327   5.025  0.00  0.00    +0.159 HD
ATOM      7  H   UNL     1      -0.232   0.736   5.222  0.00  0.00    +0.159 HD
ATOM      8  H   UNL     1      -2.541   3.761   3.710  0.00  0.00    +0.159 HD
ATOM      9  H   UNL     1      -0.907   4.036   4.171  0.00  0.00    +0.159 HD
ENDROOT
BRANCH   1  10
ATOM     10  C   UNL     1      -3.909   1.592   3.860  0.00  0.00    +0.151 C 
BRANCH  10  11
ATOM     11  C   UNL     1      -4.440   0.486   2.991  0.00  0.00    -0.028 A 
ATOM     12  C   UNL     1      -5.811   0.190   2.975  0.00  0.00    +0.005 A 
ATOM     13  C   UNL     1      -3.579  -0.267   2.178  0.00  0.00    +0.005 A 
ATOM     14  C   UNL     1      -6.309  -0.818   2.145  0.00  0.00    +0.000 A 
ATOM     15  C   UNL     1      -4.080  -1.273   1.352  0.00  0.00    +0.000 A 
ATOM     16  C   UNL     1      -5.446  -1.546   1.334  0.00  0.00    +0.000 A 
ENDBRANCH  10  11
ENDBRANCH   1  10
TORSDOF 2
ENDMDL
MODEL 9
REMARK VINA RESULT:    -4.787     10.822     11.771
REMARK INTER + INTRA:          -5.445
REMARK INTER:                  -5.308
REMARK INTRA:                  -0.136
REMARK UNBOUND:                -0.098
REMARK  Name = 1550473
REMARK  2 active torsions:
REMARK  status: ('A' for Active; 'I' for Inactive)
REMARK    1  A    between atoms: N_1  and  C_4
REMARK    2  A    between atoms: C_4  and  C_5
REMARK                            x       y       z     vdW  Elec       q    Type
REMARK                         _______ _______ _______ _____ _____    ______ ____
ROOT
ATOM      1  N   UNL     1       0.483   1.428   1.411  0.00  0.00    -0.354 N 
ATOM      2  N   UNL     1       0.959   3.536   2.246  0.00  0.00    -0.372 N 
ATOM      3  N   UNL     1       0.186   1.922   3.682  0.00  0.00    -0.372 N 
ATOM      4  C   UNL     1       0.538   2.280   2.443  0.00  0.00    +0.166 C 
ATOM      5  H   UNL     1       0.735   1.770   0.491  0.00  0.00    +0.163 HD
ATOM      6  H   UNL     1       1.015   4.200   3.006  0.00  0.00    +0.159 HD
ATOM      7  H   UNL     1       1.254   3.861   1.333  0.00  0.00    +0.159 HD
ATOM      8  H   UNL     1      -0.146   0.991   3.897  0.00  0.00    +0.159 HD
ATOM      9  H   UNL     1       0.224   2.576   4.454  0.00  0.00    +0.159 HD
ENDROOT
BRANCH   1  10
ATOM     10  C   UNL     1       0.090   0.025   1.529  0.00  0.00    +0.151 C 
BRANCH  10  11
ATOM     11  C   UNL     1       1.222  -0.843   1.054  0.00  0.00    -0.028 A 
ATOM     12  C   UNL     1       1.967  -1.605   1.967  0.00  0.00    +0.005 A 
ATOM     13  C   UNL     1       1.552  -0.913  -0.308  0.00  0.00    +0.005 A 
ATOM     14  C   UNL     1       2.999  -2.435   1.523  0.00  0.00    +0.000 A 
ATOM     15  C   UNL     1       2.584  -1.743  -0.747  0.00  0.00    +0.000 A 
ATOM     16  C   UNL     1       3.306  -2.505   0.168  0.00  0.00    +0.000 A 
ENDBRANCH  10  11
ENDBRANCH   1  10
TORSDOF 2
ENDMDL
