MODEL 1
REMARK VINA RESULT:    -5.023      0.000      0.000
REMARK INTER + INTRA:          -5.728
REMARK INTER:                  -5.610
REMARK INTRA:                  -0.118
REMARK UNBOUND:                -0.118
REMARK  Name = 1550473
REMARK  2 active torsions:
REMARK  status: ('A' for Active; 'I' for Inactive)
REMARK    1  A    between atoms: N_1  and  C_4
REMARK    2  A    between atoms: C_4  and  C_5
REMARK                            x       y       z     vdW  Elec       q    Type
REMARK                         _______ _______ _______ _____ _____    ______ ____
ROOT
ATOM      1  N   UNL     1      -9.950   0.048  -3.165  0.00  0.00    -0.354 N 
ATOM      2  N   UNL     1      -8.136  -0.042  -1.728  0.00  0.00    -0.372 N 
ATOM      3  N   UNL     1      -9.368  -1.945  -2.078  0.00  0.00    -0.372 N 
ATOM      4  C   UNL     1      -9.165  -0.648  -2.333  0.00  0.00    +0.166 C 
ATOM      5  H   UNL     1      -9.761   1.035  -3.293  0.00  0.00    +0.163 HD
ATOM      6  H   UNL     1      -7.524  -0.542  -1.098  0.00  0.00    +0.159 HD
ATOM      7  H   UNL     1      -7.922   0.934  -1.893  0.00  0.00    +0.159 HD
ATOM      8  H   UNL     1     -10.131  -2.460  -2.498  0.00  0.00    +0.159 HD
ATOM      9  H   UNL     1      -8.774  -2.460  -1.441  0.00  0.00    +0.159 HD
ENDROOT
BRANCH   1  10
ATOM     10  C   UNL     1     -11.063  -0.532  -3.915  0.00  0.00    +0.151 C 
BRANCH  10  11
ATOM     11  C   UNL     1     -11.865   0.577  -4.539  0.00  0.00    -0.028 A 
ATOM     12  C   UNL     1     -13.214   0.381  -4.870  0.00  0.00    +0.005 A 
ATOM     13  C   UNL     1     -11.283   1.827  -4.798  0.00  0.00    +0.005 A 
ATOM     14  C   UNL     1     -13.967   1.420  -5.422  0.00  0.00    +0.000 A 
ATOM     15  C   UNL     1     -12.038   2.862  -5.350  0.00  0.00    +0.000 A 
ATOM     16  C   UNL     1     -13.381   2.658  -5.660  0.00  0.00    +0.000 A 
ENDBRANCH  10  11
ENDBRANCH   1  10
TORSDOF 2
ENDMDL
MODEL 2
REMARK VINA RESULT:    -4.904      1.563      2.304
REMARK INTER + INTRA:          -5.596
REMARK INTER:                  -5.434
REMARK INTRA:                  -0.162
REMARK UNBOUND:                -0.118
REMARK  Name = 1550473
REMARK  2 active torsions:
REMARK  status: ('A' for Active; 'I' for Inactive)
REMARK    1  A    between atoms: N_1  and  C_4
REMARK    2  A    between atoms: C_4  and  C_5
REMARK                            x       y       z     vdW  Elec       q    Type
REMARK                         _______ _______ _______ _____ _____    ______ ____
ROOT
ATOM      1  N   UNL     1     -10.593  -1.321  -4.943  0.00  0.00    -0.354 N 
ATOM      2  N   UNL     1      -8.529  -2.124  -5.621  0.00  0.00    -0.372 N 
ATOM      3  N   UNL     1      -8.709  -1.126  -3.562  0.00  0.00    -0.372 N 
ATOM      4  C   UNL     1      -9.290  -1.517  -4.702  0.00  0.00    +0.166 C 
ATOM      5  H   UNL     1     -10.966  -1.613  -5.839  0.00  0.00    +0.163 HD
ATOM      6  H   UNL     1      -7.544  -2.289  -5.465  0.00  0.00    +0.159 HD
ATOM      7  H   UNL     1      -8.914  -2.457  -6.496  0.00  0.00    +0.159 HD
ATOM      8  H   UNL     1      -9.227  -0.657  -2.831  0.00  0.00    +0.159 HD
ATOM      9  H   UNL     1      -7.722  -1.272  -3.393  0.00  0.00    +0.159 HD
ENDROOT
BRANCH   1  10
ATOM     10  C   UNL     1     -11.520  -0.718  -3.987  0.00  0.00    +0.151 C 
BRANCH  10  11
ATOM     11  C   UNL     1     -12.073   0.552  -4.572  0.00  0.00    -0.028 A 
ATOM     12  C   UNL     1     -11.262   1.690  -4.699  0.00  0.00    +0.005 A 
ATOM     13  C   UNL     1     -13.405   0.623  -5.007  0.00  0.00    +0.005 A 
ATOM     14  C   UNL     1     -11.767   2.860  -5.270  0.00  0.00    +0.000 A 
ATOM     15  C   UNL     1     -13.905   1.794  -5.576  0.00  0.00    +0.000 A 
ATOM     16  C   UNL     1     -13.085   2.911  -5.710  0.00  0.00    +0.000 A 
ENDBRANCH  10  11
ENDBRANCH   1  10
TORSDOF 2
ENDMDL
MODEL 3
REMARK VINA RESULT:    -4.888      2.383      3.429
REMARK INTER + INTRA:          -5.578
REMARK INTER:                  -5.419
REMARK INTRA:                  -0.159
REMARK UNBOUND:                -0.118
REMARK  Name = 1550473
REMARK  2 active torsions:
REMARK  status: ('A' for Active; 'I' for Inactive)
REMARK    1  A    between atoms: N_1  and  C_4
REMARK    2  A    between atoms: C_4  and  C_5
REMARK                            x       y       z     vdW  Elec       q    Type
REMARK                         _______ _______ _______ _____ _____    ______ ____
ROOT
ATOM      1  N   UNL     1      -9.439   0.679  -5.690  0.00  0.00    -0.354 N 
ATOM      2  N   UNL     1      -7.913   0.782  -7.430  0.00  0.00    -0.372 N 
ATOM      3  N   UNL     1      -8.259   2.652  -6.146  0.00  0.00    -0.372 N 
ATOM      4  C   UNL     1      -8.547   1.373  -6.410  0.00  0.00    +0.166 C 
ATOM      5  H   UNL     1      -9.634  -0.278  -5.960  0.00  0.00    +0.163 HD
ATOM      6  H   UNL     1      -7.233   1.279  -7.988  0.00  0.00    +0.159 HD
ATOM      7  H   UNL     1      -8.077  -0.188  -7.668  0.00  0.00    +0.159 HD
ATOM      8  H   UNL     1      -8.707   3.158  -5.393  0.00  0.00    +0.159 HD
ATOM      9  H   UNL     1      -7.590   3.170  -6.701  0.00  0.00    +0.159 HD
ENDROOT
BRANCH   1  10
ATOM     10  C   UNL     1     -10.144   1.213  -4.526  0.00  0.00    +0.151 C 
BRANCH  10  11
ATOM     11  C   UNL     1     -11.531   1.624  -4.938  0.00  0.00    -0.028 A 
ATOM     12  C   UNL     1     -11.779   2.921  -5.410  0.00  0.00    +0.005 A 
ATOM     13  C   UNL     1     -12.600   0.718  -4.864  0.00  0.00    +0.005 A 
ATOM     14  C   UNL     1     -13.061   3.294  -5.821  0.00  0.00    +0.000 A 
ATOM     15  C   UNL     1     -13.879   1.094  -5.274  0.00  0.00    +0.000 A 
ATOM     16  C   UNL     1     -14.108   2.381  -5.755  0.00  0.00    +0.000 A 
ENDBRANCH  10  11
ENDBRANCH   1  10
TORSDOF 2
ENDMDL
MODEL 4
REMARK VINA RESULT:    -4.703      2.479      3.069
REMARK INTER + INTRA:          -5.371
REMARK INTER:                  -5.241
REMARK INTRA:                  -0.130
REMARK UNBOUND:                -0.118
REMARK  Name = 1550473
REMARK  2 active torsions:
REMARK  status: ('A' for Active; 'I' for Inactive)
REMARK    1  A    between atoms: N_1  and  C_4
REMARK    2  A    between atoms: C_4  and  C_5
REMARK                            x       y       z     vdW  Elec       q    Type
REMARK                         _______ _______ _______ _____ _____    ______ ____
ROOT
ATOM      1  N   UNL     1     -12.603  -1.678  -4.779  0.00  0.00    -0.354 N 
ATOM      2  N   UNL     1     -13.750  -3.690  -4.769  0.00  0.00    -0.372 N 
ATOM      3  N   UNL     1     -12.558  -3.083  -2.904  0.00  0.00    -0.372 N 
ATOM      4  C   UNL     1     -12.962  -2.804  -4.148  0.00  0.00    +0.166 C 
ATOM      5  H   UNL     1     -12.918  -1.539  -5.732  0.00  0.00    +0.163 HD
ATOM      6  H   UNL     1     -14.039  -4.547  -4.317  0.00  0.00    +0.159 HD
ATOM      7  H   UNL     1     -14.100  -3.528  -5.705  0.00  0.00    +0.159 HD
ATOM      8  H   UNL     1     -11.957  -2.459  -2.383  0.00  0.00    +0.159 HD
ATOM      9  H   UNL     1     -12.828  -3.941  -2.439  0.00  0.00    +0.159 HD
ENDROOT
BRANCH   1  10
ATOM     10  C   UNL     1     -11.792  -0.624  -4.172  0.00  0.00    +0.151 C 
BRANCH  10  11
ATOM     11  C   UNL     1     -12.216   0.706  -4.732  0.00  0.00    -0.028 A 
ATOM     12  C   UNL     1     -13.531   0.904  -5.180  0.00  0.00    +0.005 A 
ATOM     13  C   UNL     1     -11.310   1.774  -4.813  0.00  0.00    +0.005 A 
ATOM     14  C   UNL     1     -13.933   2.147  -5.673  0.00  0.00    +0.000 A 
ATOM     15  C   UNL     1     -11.715   3.014  -5.306  0.00  0.00    +0.000 A 
ATOM     16  C   UNL     1     -13.027   3.201  -5.734  0.00  0.00    +0.000 A 
ENDBRANCH  10  11
ENDBRANCH   1  10
TORSDOF 2
ENDMDL
MODEL 5
REMARK VINA RESULT:    -4.557     29.920     31.135
REMARK INTER + INTRA:          -5.208
REMARK INTER:                  -5.045
REMARK INTRA:                  -0.162
REMARK UNBOUND:                -0.118
REMARK  Name = 1550473
REMARK  2 active torsions:
REMARK  status: ('A' for Active; 'I' for Inactive)
REMARK    1  A    between atoms: N_1  and  C_4
REMARK    2  A    between atoms: C_4  and  C_5
REMARK                            x       y       z     vdW  Elec       q    Type
REMARK                         _______ _______ _______ _____ _____    ______ ____
ROOT
ATOM      1  N   UNL     1      15.132  15.250   0.878  0.00  0.00    -0.354 N 
ATOM      2  N   UNL     1      16.060  17.235   0.127  0.00  0.00    -0.372 N 
ATOM      3  N   UNL     1      14.275  17.320   1.566  0.00  0.00    -0.372 N 
ATOM      4  C   UNL     1      15.148  16.589   0.863  0.00  0.00    +0.166 C 
ATOM      5  H   UNL     1      15.801  14.755   0.299  0.00  0.00    +0.163 HD
ATOM      6  H   UNL     1      16.098  18.245   0.099  0.00  0.00    +0.159 HD
ATOM      7  H   UNL     1      16.757  16.737  -0.414  0.00  0.00    +0.159 HD
ATOM      8  H   UNL     1      13.558  16.893   2.137  0.00  0.00    +0.159 HD
ATOM      9  H   UNL     1      14.290  18.332   1.541  0.00  0.00    +0.159 HD
ENDROOT
BRANCH   1  10
ATOM     10  C   UNL     1      14.215  14.451   1.688  0.00  0.00    +0.151 C 
BRANCH  10  11
ATOM     11  C   UNL     1      14.950  13.926   2.890  0.00  0.00    -0.028 A 
ATOM     12  C   UNL     1      15.101  14.720   4.036  0.00  0.00    +0.005 A 
ATOM     13  C   UNL     1      15.494  12.632   2.891  0.00  0.00    +0.005 A 
ATOM     14  C   UNL     1      15.758  14.222   5.163  0.00  0.00    +0.000 A 
ATOM     15  C   UNL     1      16.151  12.139   4.018  0.00  0.00    +0.000 A 
ATOM     16  C   UNL     1      16.280  12.933   5.155  0.00  0.00    +0.000 A 
ENDBRANCH  10  11
ENDBRANCH   1  10
TORSDOF 2
ENDMDL
MODEL 6
REMARK VINA RESULT:    -4.528     24.552     25.455
REMARK INTER + INTRA:          -5.175
REMARK INTER:                  -5.041
REMARK INTRA:                  -0.135
REMARK UNBOUND:                -0.118
REMARK  Name = 1550473
REMARK  2 active torsions:
REMARK  status: ('A' for Active; 'I' for Inactive)
REMARK    1  A    between atoms: N_1  and  C_4
REMARK    2  A    between atoms: C_4  and  C_5
REMARK                            x       y       z     vdW  Elec       q    Type
REMARK                         _______ _______ _______ _____ _____    ______ ____
ROOT
ATOM      1  N   UNL     1       9.501   2.830  10.080  0.00  0.00    -0.354 N 
ATOM      2  N   UNL     1      11.713   2.963   9.406  0.00  0.00    -0.372 N 
ATOM      3  N   UNL     1      10.947   4.431  10.995  0.00  0.00    -0.372 N 
ATOM      4  C   UNL     1      10.706   3.409  10.166  0.00  0.00    +0.166 C 
ATOM      5  H   UNL     1       9.375   2.080   9.410  0.00  0.00    +0.163 HD
ATOM      6  H   UNL     1      12.634   3.379   9.452  0.00  0.00    +0.159 HD
ATOM      7  H   UNL     1      11.596   2.183   8.771  0.00  0.00    +0.159 HD
ATOM      8  H   UNL     1      10.228   4.818  11.592  0.00  0.00    +0.159 HD
ATOM      9  H   UNL     1      11.859   4.867  11.047  0.00  0.00    +0.159 HD
ENDROOT
BRANCH   1  10
ATOM     10  C   UNL     1       8.352   3.205  10.903  0.00  0.00    +0.151 C 
BRANCH  10  11
ATOM     11  C   UNL     1       7.842   1.985  11.619  0.00  0.00    -0.028 A 
ATOM     12  C   UNL     1       6.593   2.003  12.255  0.00  0.00    +0.005 A 
ATOM     13  C   UNL     1       8.601   0.805  11.659  0.00  0.00    +0.005 A 
ATOM     14  C   UNL     1       6.105   0.861  12.895  0.00  0.00    +0.000 A 
ATOM     15  C   UNL     1       8.111  -0.333  12.300  0.00  0.00    +0.000 A 
ATOM     16  C   UNL     1       6.862  -0.305  12.915  0.00  0.00    +0.000 A 
ENDBRANCH  10  11
ENDBRANCH   1  10
TORSDOF 2
ENDMDL
MODEL 7
REMARK VINA RESULT:    -4.471     21.601     23.630
REMARK INTER + INTRA:          -5.112
REMARK INTER:                  -5.004
REMARK INTRA:                  -0.108
REMARK UNBOUND:                -0.118
REMARK  Name = 1550473
REMARK  2 active torsions:
REMARK  status: ('A' for Active; 'I' for Inactive)
REMARK    1  A    between atoms: N_1  and  C_4
REMARK    2  A    between atoms: C_4  and  C_5
REMARK                            x       y       z     vdW  Elec       q    Type
REMARK                         _______ _______ _______ _____ _____    ______ ____
ROOT
ATOM      1  N   UNL     1      10.315   4.449  -5.435  0.00  0.00    -0.354 N 
ATOM      2  N   UNL     1       8.570   4.121  -3.948  0.00  0.00    -0.372 N 
ATOM      3  N   UNL     1       8.967   6.237  -4.743  0.00  0.00    -0.372 N 
ATOM      4  C   UNL     1       9.295   4.940  -4.719  0.00  0.00    +0.166 C 
ATOM      5  H   UNL     1      10.531   3.462  -5.350  0.00  0.00    +0.163 HD
ATOM      6  H   UNL     1       7.792   4.463  -3.399  0.00  0.00    +0.159 HD
ATOM      7  H   UNL     1       8.760   3.127  -3.900  0.00  0.00    +0.159 HD
ATOM      8  H   UNL     1       9.479   6.908  -5.300  0.00  0.00    +0.159 HD
ATOM      9  H   UNL     1       8.200   6.600  -4.191  0.00  0.00    +0.159 HD
ENDROOT
BRANCH   1  10
ATOM     10  C   UNL     1      11.133   5.246  -6.347  0.00  0.00    +0.151 C 
BRANCH  10  11
ATOM     11  C   UNL     1      12.201   4.371  -6.942  0.00  0.00    -0.028 A 
ATOM     12  C   UNL     1      12.966   3.525  -6.124  0.00  0.00    +0.005 A 
ATOM     13  C   UNL     1      12.450   4.378  -8.323  0.00  0.00    +0.005 A 
ATOM     14  C   UNL     1      13.938   2.690  -6.680  0.00  0.00    +0.000 A 
ATOM     15  C   UNL     1      13.422   3.543  -8.874  0.00  0.00    +0.000 A 
ATOM     16  C   UNL     1      14.164   2.697  -8.052  0.00  0.00    +0.000 A 
ENDBRANCH  10  11
ENDBRANCH   1  10
TORSDOF 2
ENDMDL
MODEL 8
REMARK VINA RESULT:    -4.406     18.605     19.486
REMARK INTER + INTRA:          -5.039
REMARK INTER:                  -4.938
REMARK INTRA:                  -0.101
REMARK UNBOUND:                -0.118
REMARK  Name = 1550473
REMARK  2 active torsions:
REMARK  status: ('A' for Active; 'I' for Inactive)
REMARK    1  A    between atoms: N_1  and  C_4
REMARK    2  A    between atoms: C_4  and  C_5
REMARK                            x       y       z     vdW  Elec       q    Type
REMARK                         _______ _______ _______ _____ _____    ______ ____
ROOT
ATOM      1  N   UNL     1      -3.106  -7.748 -17.699  0.00  0.00    -0.354 N 
ATOM      2  N   UNL     1      -3.804  -5.543 -17.823  0.00  0.00    -0.372 N 
ATOM      3  N   UNL     1      -4.715  -6.906 -16.218  0.00  0.00    -0.372 N 
ATOM      4  C   UNL     1      -3.872  -6.747 -17.243  0.00  0.00    +0.166 C 
ATOM      5  H   UNL     1      -2.510  -7.571 -18.499  0.00  0.00    +0.163 HD
ATOM      6  H   UNL     1      -4.367  -4.768 -17.499  0.00  0.00    +0.159 HD
ATOM      7  H   UNL     1      -3.173  -5.357 -18.593  0.00  0.00    +0.159 HD
ATOM      8  H   UNL     1      -4.818  -7.792 -15.741  0.00  0.00    +0.159 HD
ATOM      9  H   UNL     1      -5.296  -6.145 -15.887  0.00  0.00    +0.159 HD
ENDROOT
BRANCH   1  10
ATOM     10  C   UNL     1      -3.066  -9.082 -17.104  0.00  0.00    +0.151 C 
BRANCH  10  11
ATOM     11  C   UNL     1      -1.719  -9.697 -17.367  0.00  0.00    -0.028 A 
ATOM     12  C   UNL     1      -1.285  -9.925 -18.682  0.00  0.00    +0.005 A 
ATOM     13  C   UNL     1      -0.869 -10.049 -16.307  0.00  0.00    +0.005 A 
ATOM     14  C   UNL     1      -0.022 -10.468 -18.928  0.00  0.00    +0.000 A 
ATOM     15  C   UNL     1       0.391 -10.592 -16.557  0.00  0.00    +0.000 A 
ATOM     16  C   UNL     1       0.815 -10.799 -17.867  0.00  0.00    +0.000 A 
ENDBRANCH  10  11
ENDBRANCH   1  10
TORSDOF 2
ENDMDL
MODEL 9
REMARK VINA RESULT:    -4.323     15.775     17.274
REMARK INTER + INTRA:          -4.946
REMARK INTER:                  -4.781
REMARK INTRA:                  -0.165
REMARK UNBOUND:                -0.118
REMARK  Name = 1550473
REMARK  2 active torsions:
REMARK  status: ('A' for Active; 'I' for Inactive)
REMARK    1  A    between atoms: N_1  and  C_4
REMARK    2  A    between atoms: C_4  and  C_5
REMARK                            x       y       z     vdW  Elec       q    Type
REMARK                         _______ _______ _______ _____ _____    ______ ____
ROOT
ATOM      1  N   UNL     1      -0.749  -6.887  10.058  0.00  0.00    -0.354 N 
ATOM      2  N   UNL     1       1.197  -6.255  11.144  0.00  0.00    -0.372 N 
ATOM      3  N   UNL     1       1.266  -6.652   8.885  0.00  0.00    -0.372 N 
ATOM      4  C   UNL     1       0.559  -6.603  10.019  0.00  0.00    +0.166 C 
ATOM      5  H   UNL     1      -1.221  -6.861  10.954  0.00  0.00    +0.163 HD
ATOM      6  H   UNL     1       2.183  -6.032  11.145  0.00  0.00    +0.159 HD
ATOM      7  H   UNL     1       0.712  -6.185  12.030  0.00  0.00    +0.159 HD
ATOM      8  H   UNL     1       0.845  -6.913   8.003  0.00  0.00    +0.159 HD
ATOM      9  H   UNL     1       2.256  -6.443   8.868  0.00  0.00    +0.159 HD
ENDROOT
BRANCH   1  10
ATOM     10  C   UNL     1      -1.548  -7.224   8.881  0.00  0.00    +0.151 C 
BRANCH  10  11
ATOM     11  C   UNL     1      -2.129  -5.962   8.304  0.00  0.00    -0.028 A 
ATOM     12  C   UNL     1      -1.826  -5.574   6.991  0.00  0.00    +0.005 A 
ATOM     13  C   UNL     1      -2.988  -5.154   9.064  0.00  0.00    +0.005 A 
ATOM     14  C   UNL     1      -2.390  -4.418   6.445  0.00  0.00    +0.000 A 
ATOM     15  C   UNL     1      -3.548  -4.000   8.516  0.00  0.00    +0.000 A 
ATOM     16  C   UNL     1      -3.251  -3.634   7.205  0.00  0.00    +0.000 A 
ENDBRANCH  10  11
ENDBRANCH   1  10
TORSDOF 2
ENDMDL
