MODEL 1
REMARK VINA RESULT:    -5.168      0.000      0.000
REMARK INTER + INTRA:          -5.857
REMARK INTER:                  -5.772
REMARK INTRA:                  -0.085
REMARK UNBOUND:                -0.085
REMARK  Name = 1550473
REMARK  2 active torsions:
REMARK  status: ('A' for Active; 'I' for Inactive)
REMARK    1  A    between atoms: N_1  and  C_4
REMARK    2  A    between atoms: C_4  and  C_5
REMARK                            x       y       z     vdW  Elec       q    Type
REMARK                         _______ _______ _______ _____ _____    ______ ____
ROOT
ATOM      1  N   UNL     1      -0.271   6.165   4.920  0.00  0.00    -0.354 N 
ATOM      2  N   UNL     1       0.021   6.105   2.623  0.00  0.00    -0.372 N 
ATOM      3  N   UNL     1       1.745   6.849   3.941  0.00  0.00    -0.372 N 
ATOM      4  C   UNL     1       0.499   6.375   3.844  0.00  0.00    +0.166 C 
ATOM      5  H   UNL     1      -1.217   5.832   4.777  0.00  0.00    +0.163 HD
ATOM      6  H   UNL     1       0.579   6.250   1.793  0.00  0.00    +0.159 HD
ATOM      7  H   UNL     1      -0.910   5.729   2.486  0.00  0.00    +0.159 HD
ATOM      8  H   UNL     1       2.163   7.078   4.833  0.00  0.00    +0.159 HD
ATOM      9  H   UNL     1       2.316   7.012   3.120  0.00  0.00    +0.159 HD
ENDROOT
BRANCH   1  10
ATOM     10  C   UNL     1       0.174   6.375   6.296  0.00  0.00    +0.151 C 
BRANCH  10  11
ATOM     11  C   UNL     1       0.273   5.044   6.990  0.00  0.00    -0.028 A 
ATOM     12  C   UNL     1      -0.045   4.925   8.350  0.00  0.00    +0.005 A 
ATOM     13  C   UNL     1       0.679   3.898   6.290  0.00  0.00    +0.005 A 
ATOM     14  C   UNL     1       0.018   3.683   8.987  0.00  0.00    +0.000 A 
ATOM     15  C   UNL     1       0.741   2.660   6.929  0.00  0.00    +0.000 A 
ATOM     16  C   UNL     1       0.408   2.553   8.278  0.00  0.00    +0.000 A 
ENDBRANCH  10  11
ENDBRANCH   1  10
TORSDOF 2
ENDMDL
MODEL 2
REMARK VINA RESULT:    -5.033      0.755      1.830
REMARK INTER + INTRA:          -5.707
REMARK INTER:                  -5.565
REMARK INTRA:                  -0.142
REMARK UNBOUND:                -0.085
REMARK  Name = 1550473
REMARK  2 active torsions:
REMARK  status: ('A' for Active; 'I' for Inactive)
REMARK    1  A    between atoms: N_1  and  C_4
REMARK    2  A    between atoms: C_4  and  C_5
REMARK                            x       y       z     vdW  Elec       q    Type
REMARK                         _______ _______ _______ _____ _____    ______ ____
ROOT
ATOM      1  N   UNL     1       0.363   6.175   5.199  0.00  0.00    -0.354 N 
ATOM      2  N   UNL     1       0.075   6.580   2.937  0.00  0.00    -0.372 N 
ATOM      3  N   UNL     1      -1.542   7.284   4.405  0.00  0.00    -0.372 N 
ATOM      4  C   UNL     1      -0.369   6.678   4.196  0.00  0.00    +0.166 C 
ATOM      5  H   UNL     1       1.229   5.701   4.972  0.00  0.00    +0.163 HD
ATOM      6  H   UNL     1      -0.454   6.953   2.160  0.00  0.00    +0.159 HD
ATOM      7  H   UNL     1       0.963   6.146   2.718  0.00  0.00    +0.159 HD
ATOM      8  H   UNL     1      -1.936   7.385   5.331  0.00  0.00    +0.159 HD
ATOM      9  H   UNL     1      -2.092   7.654   3.639  0.00  0.00    +0.159 HD
ENDROOT
BRANCH   1  10
ATOM     10  C   UNL     1      -0.005   6.277   6.610  0.00  0.00    +0.151 C 
BRANCH  10  11
ATOM     11  C   UNL     1       0.162   4.931   7.260  0.00  0.00    -0.028 A 
ATOM     12  C   UNL     1       0.569   3.821   6.505  0.00  0.00    +0.005 A 
ATOM     13  C   UNL     1      -0.080   4.759   8.632  0.00  0.00    +0.005 A 
ATOM     14  C   UNL     1       0.753   2.577   7.113  0.00  0.00    +0.000 A 
ATOM     15  C   UNL     1       0.104   3.515   9.235  0.00  0.00    +0.000 A 
ATOM     16  C   UNL     1       0.523   2.425   8.476  0.00  0.00    +0.000 A 
ENDBRANCH  10  11
ENDBRANCH   1  10
TORSDOF 2
ENDMDL
MODEL 3
REMARK VINA RESULT:    -4.700      2.731      3.596
REMARK INTER + INTRA:          -5.335
REMARK INTER:                  -5.155
REMARK INTRA:                  -0.180
REMARK UNBOUND:                -0.085
REMARK  Name = 1550473
REMARK  2 active torsions:
REMARK  status: ('A' for Active; 'I' for Inactive)
REMARK    1  A    between atoms: N_1  and  C_4
REMARK    2  A    between atoms: C_4  and  C_5
REMARK                            x       y       z     vdW  Elec       q    Type
REMARK                         _______ _______ _______ _____ _____    ______ ____
ROOT
ATOM      1  N   UNL     1      -1.810   6.594   9.082  0.00  0.00    -0.354 N 
ATOM      2  N   UNL     1      -4.033   6.962   8.550  0.00  0.00    -0.372 N 
ATOM      3  N   UNL     1      -2.442   7.237   6.919  0.00  0.00    -0.372 N 
ATOM      4  C   UNL     1      -2.746   6.929   8.185  0.00  0.00    +0.166 C 
ATOM      5  H   UNL     1      -2.102   6.401  10.033  0.00  0.00    +0.163 HD
ATOM      6  H   UNL     1      -4.762   7.208   7.894  0.00  0.00    +0.159 HD
ATOM      7  H   UNL     1      -4.327   6.724   9.489  0.00  0.00    +0.159 HD
ATOM      8  H   UNL     1      -1.489   7.237   6.582  0.00  0.00    +0.159 HD
ATOM      9  H   UNL     1      -3.157   7.498   6.251  0.00  0.00    +0.159 HD
ENDROOT
BRANCH   1  10
ATOM     10  C   UNL     1      -0.386   6.476   8.773  0.00  0.00    +0.151 C 
BRANCH  10  11
ATOM     11  C   UNL     1      -0.068   5.040   8.460  0.00  0.00    -0.028 A 
ATOM     12  C   UNL     1      -0.211   4.049   9.441  0.00  0.00    +0.005 A 
ATOM     13  C   UNL     1       0.370   4.664   7.181  0.00  0.00    +0.005 A 
ATOM     14  C   UNL     1       0.055   2.710   9.142  0.00  0.00    +0.000 A 
ATOM     15  C   UNL     1       0.636   3.326   6.886  0.00  0.00    +0.000 A 
ATOM     16  C   UNL     1       0.476   2.350   7.866  0.00  0.00    +0.000 A 
ENDBRANCH  10  11
ENDBRANCH   1  10
TORSDOF 2
ENDMDL
MODEL 4
REMARK VINA RESULT:    -4.478      4.497      5.996
REMARK INTER + INTRA:          -5.087
REMARK INTER:                  -4.907
REMARK INTRA:                  -0.180
REMARK UNBOUND:                -0.085
REMARK  Name = 1550473
REMARK  2 active torsions:
REMARK  status: ('A' for Active; 'I' for Inactive)
REMARK    1  A    between atoms: N_1  and  C_4
REMARK    2  A    between atoms: C_4  and  C_5
REMARK                            x       y       z     vdW  Elec       q    Type
REMARK                         _______ _______ _______ _____ _____    ______ ____
ROOT
ATOM      1  N   UNL     1      -2.102   3.367  10.877  0.00  0.00    -0.354 N 
ATOM      2  N   UNL     1      -4.340   2.786  11.005  0.00  0.00    -0.372 N 
ATOM      3  N   UNL     1      -2.774   1.124  10.787  0.00  0.00    -0.372 N 
ATOM      4  C   UNL     1      -3.056   2.427  10.888  0.00  0.00    +0.166 C 
ATOM      5  H   UNL     1      -2.384   4.340  10.927  0.00  0.00    +0.163 HD
ATOM      6  H   UNL     1      -5.082   2.099  11.020  0.00  0.00    +0.159 HD
ATOM      7  H   UNL     1      -4.616   3.756  11.101  0.00  0.00    +0.159 HD
ATOM      8  H   UNL     1      -1.825   0.788  10.690  0.00  0.00    +0.159 HD
ATOM      9  H   UNL     1      -3.503   0.422  10.788  0.00  0.00    +0.159 HD
ENDROOT
BRANCH   1  10
ATOM     10  C   UNL     1      -0.671   3.079  10.809  0.00  0.00    +0.151 C 
BRANCH  10  11
ATOM     11  C   UNL     1      -0.176   3.372   9.419  0.00  0.00    -0.028 A 
ATOM     12  C   UNL     1       0.149   2.326   8.544  0.00  0.00    +0.005 A 
ATOM     13  C   UNL     1      -0.038   4.695   8.970  0.00  0.00    +0.005 A 
ATOM     14  C   UNL     1       0.580   2.598   7.243  0.00  0.00    +0.000 A 
ATOM     15  C   UNL     1       0.393   4.962   7.670  0.00  0.00    +0.000 A 
ATOM     16  C   UNL     1       0.700   3.913   6.806  0.00  0.00    +0.000 A 
ENDBRANCH  10  11
ENDBRANCH   1  10
TORSDOF 2
ENDMDL
MODEL 5
REMARK VINA RESULT:    -4.455     18.147     19.204
REMARK INTER + INTRA:          -5.061
REMARK INTER:                  -4.961
REMARK INTRA:                  -0.100
REMARK UNBOUND:                -0.085
REMARK  Name = 1550473
REMARK  2 active torsions:
REMARK  status: ('A' for Active; 'I' for Inactive)
REMARK    1  A    between atoms: N_1  and  C_4
REMARK    2  A    between atoms: C_4  and  C_5
REMARK                            x       y       z     vdW  Elec       q    Type
REMARK                         _______ _______ _______ _____ _____    ______ ____
ROOT
ATOM      1  N   UNL     1     -10.031  -3.094  -7.140  0.00  0.00    -0.354 N 
ATOM      2  N   UNL     1      -9.520  -4.868  -5.742  0.00  0.00    -0.372 N 
ATOM      3  N   UNL     1     -10.247  -5.309  -7.873  0.00  0.00    -0.372 N 
ATOM      4  C   UNL     1      -9.937  -4.413  -6.930  0.00  0.00    +0.166 C 
ATOM      5  H   UNL     1      -9.810  -2.467  -6.374  0.00  0.00    +0.163 HD
ATOM      6  H   UNL     1      -9.436  -5.858  -5.555  0.00  0.00    +0.159 HD
ATOM      7  H   UNL     1      -9.257  -4.239  -4.993  0.00  0.00    +0.159 HD
ATOM      8  H   UNL     1     -10.573  -5.031  -8.789  0.00  0.00    +0.159 HD
ATOM      9  H   UNL     1     -10.180  -6.304  -7.702  0.00  0.00    +0.159 HD
ENDROOT
BRANCH   1  10
ATOM     10  C   UNL     1     -10.423  -2.494  -8.414  0.00  0.00    +0.151 C 
BRANCH  10  11
ATOM     11  C   UNL     1      -9.713  -1.178  -8.577  0.00  0.00    -0.028 A 
ATOM     12  C   UNL     1      -8.721  -1.021  -9.556  0.00  0.00    +0.005 A 
ATOM     13  C   UNL     1     -10.032  -0.084  -7.759  0.00  0.00    +0.005 A 
ATOM     14  C   UNL     1      -8.083   0.210  -9.728  0.00  0.00    +0.000 A 
ATOM     15  C   UNL     1      -9.392   1.143  -7.933  0.00  0.00    +0.000 A 
ATOM     16  C   UNL     1      -8.420   1.290  -8.919  0.00  0.00    +0.000 A 
ENDBRANCH  10  11
ENDBRANCH   1  10
TORSDOF 2
ENDMDL
MODEL 6
REMARK VINA RESULT:    -4.331     20.868     23.209
REMARK INTER + INTRA:          -4.923
REMARK INTER:                  -4.759
REMARK INTRA:                  -0.163
REMARK UNBOUND:                -0.085
REMARK  Name = 1550473
REMARK  2 active torsions:
REMARK  status: ('A' for Active; 'I' for Inactive)
REMARK    1  A    between atoms: N_1  and  C_4
REMARK    2  A    between atoms: C_4  and  C_5
REMARK                            x       y       z     vdW  Elec       q    Type
REMARK                         _______ _______ _______ _____ _____    ______ ____
ROOT
ATOM      1  N   UNL     1      -6.903   3.052 -14.729  0.00  0.00    -0.354 N 
ATOM      2  N   UNL     1      -6.168   2.146 -12.728  0.00  0.00    -0.372 N 
ATOM      3  N   UNL     1      -7.087   4.248 -12.722  0.00  0.00    -0.372 N 
ATOM      4  C   UNL     1      -6.725   3.157 -13.405  0.00  0.00    +0.166 C 
ATOM      5  H   UNL     1      -6.579   2.211 -15.192  0.00  0.00    +0.163 HD
ATOM      6  H   UNL     1      -6.024   2.196 -11.728  0.00  0.00    +0.159 HD
ATOM      7  H   UNL     1      -5.887   1.288 -13.187  0.00  0.00    +0.159 HD
ATOM      8  H   UNL     1      -7.508   5.049 -13.175  0.00  0.00    +0.159 HD
ATOM      9  H   UNL     1      -6.941   4.321 -11.723  0.00  0.00    +0.159 HD
ENDROOT
BRANCH   1  10
ATOM     10  C   UNL     1      -7.549   4.073 -15.551  0.00  0.00    +0.151 C 
BRANCH  10  11
ATOM     11  C   UNL     1      -6.498   4.808 -16.337  0.00  0.00    -0.028 A 
ATOM     12  C   UNL     1      -5.405   4.119 -16.883  0.00  0.00    +0.005 A 
ATOM     13  C   UNL     1      -6.593   6.193 -16.543  0.00  0.00    +0.005 A 
ATOM     14  C   UNL     1      -4.445   4.796 -17.638  0.00  0.00    +0.000 A 
ATOM     15  C   UNL     1      -5.631   6.866 -17.297  0.00  0.00    +0.000 A 
ATOM     16  C   UNL     1      -4.559   6.167 -17.846  0.00  0.00    +0.000 A 
ENDBRANCH  10  11
ENDBRANCH   1  10
TORSDOF 2
ENDMDL
MODEL 7
REMARK VINA RESULT:    -4.205     17.752     19.375
REMARK INTER + INTRA:          -4.781
REMARK INTER:                  -4.684
REMARK INTRA:                  -0.097
REMARK UNBOUND:                -0.085
REMARK  Name = 1550473
REMARK  2 active torsions:
REMARK  status: ('A' for Active; 'I' for Inactive)
REMARK    1  A    between atoms: N_1  and  C_4
REMARK    2  A    between atoms: C_4  and  C_5
REMARK                            x       y       z     vdW  Elec       q    Type
REMARK                         _______ _______ _______ _____ _____    ______ ____
ROOT
ATOM      1  N   UNL     1      -7.903   0.212  -9.053  0.00  0.00    -0.354 N 
ATOM      2  N   UNL     1      -6.515   1.843  -8.172  0.00  0.00    -0.372 N 
ATOM      3  N   UNL     1      -6.263   1.243 -10.372  0.00  0.00    -0.372 N 
ATOM      4  C   UNL     1      -6.902   1.088  -9.207  0.00  0.00    +0.166 C 
ATOM      5  H   UNL     1      -8.327   0.121  -8.137  0.00  0.00    +0.163 HD
ATOM      6  H   UNL     1      -5.764   2.515  -8.259  0.00  0.00    +0.159 HD
ATOM      7  H   UNL     1      -6.970   1.783  -7.269  0.00  0.00    +0.159 HD
ATOM      8  H   UNL     1      -6.503   0.699 -11.190  0.00  0.00    +0.159 HD
ATOM      9  H   UNL     1      -5.502   1.902 -10.476  0.00  0.00    +0.159 HD
ENDROOT
BRANCH   1  10
ATOM     10  C   UNL     1      -8.437  -0.618 -10.132  0.00  0.00    +0.151 C 
BRANCH  10  11
ATOM     11  C   UNL     1      -9.795  -1.127  -9.734  0.00  0.00    -0.028 A 
ATOM     12  C   UNL     1     -10.934  -0.766 -10.468  0.00  0.00    +0.005 A 
ATOM     13  C   UNL     1      -9.948  -1.977  -8.627  0.00  0.00    +0.005 A 
ATOM     14  C   UNL     1     -12.191  -1.263 -10.117  0.00  0.00    +0.000 A 
ATOM     15  C   UNL     1     -11.206  -2.470  -8.279  0.00  0.00    +0.000 A 
ATOM     16  C   UNL     1     -12.326  -2.115  -9.026  0.00  0.00    +0.000 A 
ENDBRANCH  10  11
ENDBRANCH   1  10
TORSDOF 2
ENDMDL
MODEL 8
REMARK VINA RESULT:    -4.145      2.931      3.670
REMARK INTER + INTRA:          -4.715
REMARK INTER:                  -4.590
REMARK INTRA:                  -0.125
REMARK UNBOUND:                -0.085
REMARK  Name = 1550473
REMARK  2 active torsions:
REMARK  status: ('A' for Active; 'I' for Inactive)
REMARK    1  A    between atoms: N_1  and  C_4
REMARK    2  A    between atoms: C_4  and  C_5
REMARK                            x       y       z     vdW  Elec       q    Type
REMARK                         _______ _______ _______ _____ _____    ______ ____
ROOT
ATOM      1  N   UNL     1      -2.434   8.035   6.615  0.00  0.00    -0.354 N 
ATOM      2  N   UNL     1      -3.835   9.461   5.445  0.00  0.00    -0.372 N 
ATOM      3  N   UNL     1      -2.772  10.244   7.322  0.00  0.00    -0.372 N 
ATOM      4  C   UNL     1      -3.004   9.239   6.470  0.00  0.00    +0.166 C 
ATOM      5  H   UNL     1      -2.674   7.306   5.952  0.00  0.00    +0.163 HD
ATOM      6  H   UNL     1      -4.277  10.360   5.309  0.00  0.00    +0.159 HD
ATOM      7  H   UNL     1      -4.038   8.745   4.759  0.00  0.00    +0.159 HD
ATOM      8  H   UNL     1      -2.160  10.139   8.120  0.00  0.00    +0.159 HD
ATOM      9  H   UNL     1      -3.214  11.147   7.209  0.00  0.00    +0.159 HD
ENDROOT
BRANCH   1  10
ATOM     10  C   UNL     1      -1.473   7.706   7.666  0.00  0.00    +0.151 C 
BRANCH  10  11
ATOM     11  C   UNL     1      -0.707   6.476   7.263  0.00  0.00    -0.028 A 
ATOM     12  C   UNL     1      -0.035   5.709   8.226  0.00  0.00    +0.005 A 
ATOM     13  C   UNL     1      -0.653   6.070   5.921  0.00  0.00    +0.005 A 
ATOM     14  C   UNL     1       0.652   4.550   7.857  0.00  0.00    +0.000 A 
ATOM     15  C   UNL     1       0.035   4.913   5.556  0.00  0.00    +0.000 A 
ATOM     16  C   UNL     1       0.685   4.152   6.525  0.00  0.00    +0.000 A 
ENDBRANCH  10  11
ENDBRANCH   1  10
TORSDOF 2
ENDMDL
MODEL 9
REMARK VINA RESULT:    -3.918     21.452     22.675
REMARK INTER + INTRA:          -4.461
REMARK INTER:                  -4.300
REMARK INTRA:                  -0.161
REMARK UNBOUND:                -0.085
REMARK  Name = 1550473
REMARK  2 active torsions:
REMARK  status: ('A' for Active; 'I' for Inactive)
REMARK    1  A    between atoms: N_1  and  C_4
REMARK    2  A    between atoms: C_4  and  C_5
REMARK                            x       y       z     vdW  Elec       q    Type
REMARK                         _______ _______ _______ _____ _____    ______ ____
ROOT
ATOM      1  N   UNL     1       5.743  17.331  26.110  0.00  0.00    -0.354 N 
ATOM      2  N   UNL     1       7.446  16.148  27.141  0.00  0.00    -0.372 N 
ATOM      3  N   UNL     1       5.435  15.105  26.774  0.00  0.00    -0.372 N 
ATOM      4  C   UNL     1       6.195  16.200  26.669  0.00  0.00    +0.166 C 
ATOM      5  H   UNL     1       6.358  18.136  26.088  0.00  0.00    +0.163 HD
ATOM      6  H   UNL     1       7.816  15.307  27.564  0.00  0.00    +0.159 HD
ATOM      7  H   UNL     1       8.074  16.939  27.076  0.00  0.00    +0.159 HD
ATOM      8  H   UNL     1       4.480  15.082  26.443  0.00  0.00    +0.159 HD
ATOM      9  H   UNL     1       5.783  14.258  27.206  0.00  0.00    +0.159 HD
ENDROOT
BRANCH   1  10
ATOM     10  C   UNL     1       4.414  17.476  25.517  0.00  0.00    +0.151 C 
BRANCH  10  11
ATOM     11  C   UNL     1       4.502  17.197  24.042  0.00  0.00    -0.028 A 
ATOM     12  C   UNL     1       3.503  16.453  23.398  0.00  0.00    +0.005 A 
ATOM     13  C   UNL     1       5.578  17.680  23.282  0.00  0.00    +0.005 A 
ATOM     14  C   UNL     1       3.568  16.219  22.022  0.00  0.00    +0.000 A 
ATOM     15  C   UNL     1       5.640  17.443  21.909  0.00  0.00    +0.000 A 
ATOM     16  C   UNL     1       4.634  16.715  21.279  0.00  0.00    +0.000 A 
ENDBRANCH  10  11
ENDBRANCH   1  10
TORSDOF 2
ENDMDL
