MODEL 1
REMARK VINA RESULT:    -6.370      0.000      0.000
REMARK INTER + INTRA:          -7.222
REMARK INTER:                  -7.114
REMARK INTRA:                  -0.108
REMARK UNBOUND:                -0.108
REMARK  Name = 1550473
REMARK  2 active torsions:
REMARK  status: ('A' for Active; 'I' for Inactive)
REMARK    1  A    between atoms: N_1  and  C_4
REMARK    2  A    between atoms: C_4  and  C_5
REMARK                            x       y       z     vdW  Elec       q    Type
REMARK                         _______ _______ _______ _____ _____    ______ ____
ROOT
ATOM      1  N   UNL     1      -1.100  -1.966  10.351  0.00  0.00    -0.354 N 
ATOM      2  N   UNL     1      -3.415  -2.035  10.369  0.00  0.00    -0.372 N 
ATOM      3  N   UNL     1      -2.256  -3.892   9.682  0.00  0.00    -0.372 N 
ATOM      4  C   UNL     1      -2.241  -2.633  10.133  0.00  0.00    +0.166 C 
ATOM      5  H   UNL     1      -1.157  -1.004  10.664  0.00  0.00    +0.163 HD
ATOM      6  H   UNL     1      -4.292  -2.514  10.217  0.00  0.00    +0.159 HD
ATOM      7  H   UNL     1      -3.468  -1.088  10.726  0.00  0.00    +0.159 HD
ATOM      8  H   UNL     1      -1.404  -4.397   9.478  0.00  0.00    +0.159 HD
ATOM      9  H   UNL     1      -3.124  -4.384   9.512  0.00  0.00    +0.159 HD
ENDROOT
BRANCH   1  10
ATOM     10  C   UNL     1       0.231  -2.544  10.176  0.00  0.00    +0.151 C 
BRANCH  10  11
ATOM     11  C   UNL     1       1.258  -1.449  10.266  0.00  0.00    -0.028 A 
ATOM     12  C   UNL     1       2.318  -1.390   9.349  0.00  0.00    +0.005 A 
ATOM     13  C   UNL     1       1.174  -0.465  11.263  0.00  0.00    +0.005 A 
ATOM     14  C   UNL     1       3.255  -0.356   9.414  0.00  0.00    +0.000 A 
ATOM     15  C   UNL     1       2.112   0.565  11.325  0.00  0.00    +0.000 A 
ATOM     16  C   UNL     1       3.151   0.621  10.399  0.00  0.00    +0.000 A 
ENDBRANCH  10  11
ENDBRANCH   1  10
TORSDOF 2
ENDMDL
MODEL 2
REMARK VINA RESULT:    -6.296      1.414      1.865
REMARK INTER + INTRA:          -7.140
REMARK INTER:                  -7.032
REMARK INTRA:                  -0.108
REMARK UNBOUND:                -0.108
REMARK  Name = 1550473
REMARK  2 active torsions:
REMARK  status: ('A' for Active; 'I' for Inactive)
REMARK    1  A    between atoms: N_1  and  C_4
REMARK    2  A    between atoms: C_4  and  C_5
REMARK                            x       y       z     vdW  Elec       q    Type
REMARK                         _______ _______ _______ _____ _____    ______ ____
ROOT
ATOM      1  N   UNL     1      -0.361  -0.857  10.289  0.00  0.00    -0.354 N 
ATOM      2  N   UNL     1      -2.655  -0.902  10.604  0.00  0.00    -0.372 N 
ATOM      3  N   UNL     1      -1.683  -2.522   9.302  0.00  0.00    -0.372 N 
ATOM      4  C   UNL     1      -1.551  -1.429  10.061  0.00  0.00    +0.166 C 
ATOM      5  H   UNL     1      -0.332  -0.013  10.849  0.00  0.00    +0.163 HD
ATOM      6  H   UNL     1      -3.567  -1.313  10.453  0.00  0.00    +0.159 HD
ATOM      7  H   UNL     1      -2.618  -0.084  11.200  0.00  0.00    +0.159 HD
ATOM      8  H   UNL     1      -0.889  -2.965   8.859  0.00  0.00    +0.159 HD
ATOM      9  H   UNL     1      -2.588  -2.941   9.129  0.00  0.00    +0.159 HD
ENDROOT
BRANCH   1  10
ATOM     10  C   UNL     1       0.908  -1.384   9.789  0.00  0.00    +0.151 C 
BRANCH  10  11
ATOM     11  C   UNL     1       2.039  -0.695  10.501  0.00  0.00    -0.028 A 
ATOM     12  C   UNL     1       2.020   0.694  10.693  0.00  0.00    +0.005 A 
ATOM     13  C   UNL     1       3.132  -1.428  10.991  0.00  0.00    +0.005 A 
ATOM     14  C   UNL     1       3.057   1.330  11.381  0.00  0.00    +0.000 A 
ATOM     15  C   UNL     1       4.165  -0.789  11.677  0.00  0.00    +0.000 A 
ATOM     16  C   UNL     1       4.126   0.589  11.873  0.00  0.00    +0.000 A 
ENDBRANCH  10  11
ENDBRANCH   1  10
TORSDOF 2
ENDMDL
MODEL 3
REMARK VINA RESULT:    -5.514     27.409     28.890
REMARK INTER + INTRA:          -6.267
REMARK INTER:                  -6.091
REMARK INTRA:                  -0.176
REMARK UNBOUND:                -0.108
REMARK  Name = 1550473
REMARK  2 active torsions:
REMARK  status: ('A' for Active; 'I' for Inactive)
REMARK    1  A    between atoms: N_1  and  C_4
REMARK    2  A    between atoms: C_4  and  C_5
REMARK                            x       y       z     vdW  Elec       q    Type
REMARK                         _______ _______ _______ _____ _____    ______ ____
ROOT
ATOM      1  N   UNL     1      -6.954 -26.679  -5.286  0.00  0.00    -0.354 N 
ATOM      2  N   UNL     1      -6.199 -28.839  -4.928  0.00  0.00    -0.372 N 
ATOM      3  N   UNL     1      -6.580 -27.483  -3.117  0.00  0.00    -0.372 N 
ATOM      4  C   UNL     1      -6.582 -27.652  -4.443  0.00  0.00    +0.166 C 
ATOM      5  H   UNL     1      -6.905 -26.861  -6.282  0.00  0.00    +0.163 HD
ATOM      6  H   UNL     1      -5.917 -29.593  -4.316  0.00  0.00    +0.159 HD
ATOM      7  H   UNL     1      -6.195 -29.033  -5.922  0.00  0.00    +0.159 HD
ATOM      8  H   UNL     1      -6.852 -26.609  -2.688  0.00  0.00    +0.159 HD
ATOM      9  H   UNL     1      -6.289 -28.222  -2.489  0.00  0.00    +0.159 HD
ENDROOT
BRANCH   1  10
ATOM     10  C   UNL     1      -7.439 -25.368  -4.859  0.00  0.00    +0.151 C 
BRANCH  10  11
ATOM     11  C   UNL     1      -6.308 -24.379  -4.927  0.00  0.00    -0.028 A 
ATOM     12  C   UNL     1      -5.912 -23.835  -6.158  0.00  0.00    +0.005 A 
ATOM     13  C   UNL     1      -5.633 -23.978  -3.765  0.00  0.00    +0.005 A 
ATOM     14  C   UNL     1      -4.881 -22.894  -6.218  0.00  0.00    +0.000 A 
ATOM     15  C   UNL     1      -4.604 -23.039  -3.829  0.00  0.00    +0.000 A 
ATOM     16  C   UNL     1      -4.230 -22.495  -5.056  0.00  0.00    +0.000 A 
ENDBRANCH  10  11
ENDBRANCH   1  10
TORSDOF 2
ENDMDL
MODEL 4
REMARK VINA RESULT:    -5.357     23.089     24.378
REMARK INTER + INTRA:          -6.091
REMARK INTER:                  -5.968
REMARK INTRA:                  -0.123
REMARK UNBOUND:                -0.108
REMARK  Name = 1550473
REMARK  2 active torsions:
REMARK  status: ('A' for Active; 'I' for Inactive)
REMARK    1  A    between atoms: N_1  and  C_4
REMARK    2  A    between atoms: C_4  and  C_5
REMARK                            x       y       z     vdW  Elec       q    Type
REMARK                         _______ _______ _______ _____ _____    ______ ____
ROOT
ATOM      1  N   UNL     1     -21.953   0.414   1.261  0.00  0.00    -0.354 N 
ATOM      2  N   UNL     1     -21.944  -1.008   3.089  0.00  0.00    -0.372 N 
ATOM      3  N   UNL     1     -23.896   0.056   2.522  0.00  0.00    -0.372 N 
ATOM      4  C   UNL     1     -22.600  -0.169   2.279  0.00  0.00    +0.166 C 
ATOM      5  H   UNL     1     -20.963   0.225   1.149  0.00  0.00    +0.163 HD
ATOM      6  H   UNL     1     -22.406  -1.465   3.863  0.00  0.00    +0.159 HD
ATOM      7  H   UNL     1     -20.966  -1.231   2.947  0.00  0.00    +0.159 HD
ATOM      8  H   UNL     1     -24.446   0.683   1.951  0.00  0.00    +0.159 HD
ATOM      9  H   UNL     1     -24.374  -0.383   3.299  0.00  0.00    +0.159 HD
ENDROOT
BRANCH   1  10
ATOM     10  C   UNL     1     -22.588   1.301   0.289  0.00  0.00    +0.151 C 
BRANCH  10  11
ATOM     11  C   UNL     1     -21.525   2.080  -0.435  0.00  0.00    -0.028 A 
ATOM     12  C   UNL     1     -21.866   3.184  -1.229  0.00  0.00    +0.005 A 
ATOM     13  C   UNL     1     -20.172   1.721  -0.326  0.00  0.00    +0.005 A 
ATOM     14  C   UNL     1     -20.876   3.925  -1.878  0.00  0.00    +0.000 A 
ATOM     15  C   UNL     1     -19.186   2.463  -0.976  0.00  0.00    +0.000 A 
ATOM     16  C   UNL     1     -19.538   3.567  -1.749  0.00  0.00    +0.000 A 
ENDBRANCH  10  11
ENDBRANCH   1  10
TORSDOF 2
ENDMDL
MODEL 5
REMARK VINA RESULT:    -5.286     32.852     34.076
REMARK INTER + INTRA:          -6.012
REMARK INTER:                  -5.905
REMARK INTRA:                  -0.107
REMARK UNBOUND:                -0.108
REMARK  Name = 1550473
REMARK  2 active torsions:
REMARK  status: ('A' for Active; 'I' for Inactive)
REMARK    1  A    between atoms: N_1  and  C_4
REMARK    2  A    between atoms: C_4  and  C_5
REMARK                            x       y       z     vdW  Elec       q    Type
REMARK                         _______ _______ _______ _____ _____    ______ ____
ROOT
ATOM      1  N   UNL     1      -8.681  -8.765 -20.052  0.00  0.00    -0.354 N 
ATOM      2  N   UNL     1      -8.141  -8.184 -17.876  0.00  0.00    -0.372 N 
ATOM      3  N   UNL     1      -9.961  -9.531 -18.245  0.00  0.00    -0.372 N 
ATOM      4  C   UNL     1      -8.934  -8.832 -18.738  0.00  0.00    +0.166 C 
ATOM      5  H   UNL     1      -7.904  -8.194 -20.364  0.00  0.00    +0.163 HD
ATOM      6  H   UNL     1      -8.305  -8.219 -16.879  0.00  0.00    +0.159 HD
ATOM      7  H   UNL     1      -7.339  -7.651 -18.187  0.00  0.00    +0.159 HD
ATOM      8  H   UNL     1     -10.600 -10.038 -18.843  0.00  0.00    +0.159 HD
ATOM      9  H   UNL     1     -10.149  -9.569 -17.251  0.00  0.00    +0.159 HD
ENDROOT
BRANCH   1  10
ATOM     10  C   UNL     1      -9.451  -9.478 -21.070  0.00  0.00    +0.151 C 
BRANCH  10  11
ATOM     11  C   UNL     1      -8.571  -9.731 -22.263  0.00  0.00    -0.028 A 
ATOM     12  C   UNL     1      -7.816  -8.691 -22.825  0.00  0.00    +0.005 A 
ATOM     13  C   UNL     1      -8.484 -11.010 -22.833  0.00  0.00    +0.005 A 
ATOM     14  C   UNL     1      -6.976  -8.932 -23.914  0.00  0.00    +0.000 A 
ATOM     15  C   UNL     1      -7.645 -11.247 -23.922  0.00  0.00    +0.000 A 
ATOM     16  C   UNL     1      -6.889 -10.209 -24.460  0.00  0.00    +0.000 A 
ENDBRANCH  10  11
ENDBRANCH   1  10
TORSDOF 2
ENDMDL
MODEL 6
REMARK VINA RESULT:    -5.166     25.606     26.816
REMARK INTER + INTRA:          -5.878
REMARK INTER:                  -5.759
REMARK INTRA:                  -0.119
REMARK UNBOUND:                -0.108
REMARK  Name = 1550473
REMARK  2 active torsions:
REMARK  status: ('A' for Active; 'I' for Inactive)
REMARK    1  A    between atoms: N_1  and  C_4
REMARK    2  A    between atoms: C_4  and  C_5
REMARK                            x       y       z     vdW  Elec       q    Type
REMARK                         _______ _______ _______ _____ _____    ______ ____
ROOT
ATOM      1  N   UNL     1      12.642  -8.610 -11.548  0.00  0.00    -0.354 N 
ATOM      2  N   UNL     1      10.601  -7.599 -11.126  0.00  0.00    -0.372 N 
ATOM      3  N   UNL     1      11.815  -6.927 -12.954  0.00  0.00    -0.372 N 
ATOM      4  C   UNL     1      11.700  -7.717 -11.881  0.00  0.00    +0.166 C 
ATOM      5  H   UNL     1      12.509  -9.158 -10.705  0.00  0.00    +0.163 HD
ATOM      6  H   UNL     1       9.872  -6.937 -11.354  0.00  0.00    +0.159 HD
ATOM      7  H   UNL     1      10.450  -8.180 -10.311  0.00  0.00    +0.159 HD
ATOM      8  H   UNL     1      12.623  -6.963 -13.561  0.00  0.00    +0.159 HD
ATOM      9  H   UNL     1      11.101  -6.250 -13.192  0.00  0.00    +0.159 HD
ENDROOT
BRANCH   1  10
ATOM     10  C   UNL     1      13.850  -8.855 -12.333  0.00  0.00    +0.151 C 
BRANCH  10  11
ATOM     11  C   UNL     1      14.883  -9.504 -11.454  0.00  0.00    -0.028 A 
ATOM     12  C   UNL     1      14.494 -10.291 -10.359  0.00  0.00    +0.005 A 
ATOM     13  C   UNL     1      16.253  -9.342 -11.714  0.00  0.00    +0.005 A 
ATOM     14  C   UNL     1      15.453 -10.919  -9.561  0.00  0.00    +0.000 A 
ATOM     15  C   UNL     1      17.207  -9.970 -10.913  0.00  0.00    +0.000 A 
ATOM     16  C   UNL     1      16.807 -10.761  -9.839  0.00  0.00    +0.000 A 
ENDBRANCH  10  11
ENDBRANCH   1  10
TORSDOF 2
ENDMDL
MODEL 7
REMARK VINA RESULT:    -5.132     27.824     28.401
REMARK INTER + INTRA:          -5.840
REMARK INTER:                  -5.723
REMARK INTRA:                  -0.117
REMARK UNBOUND:                -0.108
REMARK  Name = 1550473
REMARK  2 active torsions:
REMARK  status: ('A' for Active; 'I' for Inactive)
REMARK    1  A    between atoms: N_1  and  C_4
REMARK    2  A    between atoms: C_4  and  C_5
REMARK                            x       y       z     vdW  Elec       q    Type
REMARK                         _______ _______ _______ _____ _____    ______ ____
ROOT
ATOM      1  N   UNL     1     -13.892  13.099 -10.094  0.00  0.00    -0.354 N 
ATOM      2  N   UNL     1     -14.812  11.279  -8.995  0.00  0.00    -0.372 N 
ATOM      3  N   UNL     1     -13.129  10.923 -10.513  0.00  0.00    -0.372 N 
ATOM      4  C   UNL     1     -13.936  11.778  -9.876  0.00  0.00    +0.166 C 
ATOM      5  H   UNL     1     -14.551  13.690  -9.602  0.00  0.00    +0.163 HD
ATOM      6  H   UNL     1     -14.866  10.287  -8.807  0.00  0.00    +0.159 HD
ATOM      7  H   UNL     1     -15.438  11.877  -8.470  0.00  0.00    +0.159 HD
ATOM      8  H   UNL     1     -12.450  11.235 -11.195  0.00  0.00    +0.159 HD
ATOM      9  H   UNL     1     -13.176   9.925 -10.347  0.00  0.00    +0.159 HD
ENDROOT
BRANCH   1  10
ATOM     10  C   UNL     1     -12.939  13.748 -10.993  0.00  0.00    +0.151 C 
BRANCH  10  11
ATOM     11  C   UNL     1     -12.098  14.712 -10.204  0.00  0.00    -0.028 A 
ATOM     12  C   UNL     1     -11.742  14.427  -8.878  0.00  0.00    +0.005 A 
ATOM     13  C   UNL     1     -11.648  15.911 -10.779  0.00  0.00    +0.005 A 
ATOM     14  C   UNL     1     -10.935  15.308  -8.154  0.00  0.00    +0.000 A 
ATOM     15  C   UNL     1     -10.844  16.789 -10.053  0.00  0.00    +0.000 A 
ATOM     16  C   UNL     1     -10.485  16.486  -8.741  0.00  0.00    +0.000 A 
ENDBRANCH  10  11
ENDBRANCH   1  10
TORSDOF 2
ENDMDL
MODEL 8
REMARK VINA RESULT:    -5.126     26.604     27.129
REMARK INTER + INTRA:          -5.833
REMARK INTER:                  -5.691
REMARK INTRA:                  -0.143
REMARK UNBOUND:                -0.108
REMARK  Name = 1550473
REMARK  2 active torsions:
REMARK  status: ('A' for Active; 'I' for Inactive)
REMARK    1  A    between atoms: N_1  and  C_4
REMARK    2  A    between atoms: C_4  and  C_5
REMARK                            x       y       z     vdW  Elec       q    Type
REMARK                         _______ _______ _______ _____ _____    ______ ____
ROOT
ATOM      1  N   UNL     1      12.922  -8.662 -13.352  0.00  0.00    -0.354 N 
ATOM      2  N   UNL     1      13.146  -7.221 -15.151  0.00  0.00    -0.372 N 
ATOM      3  N   UNL     1      11.903  -6.552 -13.342  0.00  0.00    -0.372 N 
ATOM      4  C   UNL     1      12.654  -7.486 -13.935  0.00  0.00    +0.166 C 
ATOM      5  H   UNL     1      13.472  -9.340 -13.866  0.00  0.00    +0.163 HD
ATOM      6  H   UNL     1      12.964  -6.341 -15.615  0.00  0.00    +0.159 HD
ATOM      7  H   UNL     1      13.734  -7.882 -15.644  0.00  0.00    +0.159 HD
ATOM      8  H   UNL     1      11.497  -6.692 -12.427  0.00  0.00    +0.159 HD
ATOM      9  H   UNL     1      11.700  -5.669 -13.795  0.00  0.00    +0.159 HD
ENDROOT
BRANCH   1  10
ATOM     10  C   UNL     1      12.479  -9.028 -12.008  0.00  0.00    +0.151 C 
BRANCH  10  11
ATOM     11  C   UNL     1      13.668  -9.479 -11.204  0.00  0.00    -0.028 A 
ATOM     12  C   UNL     1      14.799  -8.659 -11.085  0.00  0.00    +0.005 A 
ATOM     13  C   UNL     1      13.666 -10.723 -10.555  0.00  0.00    +0.005 A 
ATOM     14  C   UNL     1      15.892  -9.064 -10.315  0.00  0.00    +0.000 A 
ATOM     15  C   UNL     1      14.759 -11.125  -9.787  0.00  0.00    +0.000 A 
ATOM     16  C   UNL     1      15.871 -10.294  -9.665  0.00  0.00    +0.000 A 
ENDBRANCH  10  11
ENDBRANCH   1  10
TORSDOF 2
ENDMDL
MODEL 9
REMARK VINA RESULT:    -4.980     23.676     24.884
REMARK INTER + INTRA:          -5.671
REMARK INTER:                  -5.500
REMARK INTRA:                  -0.171
REMARK UNBOUND:                -0.108
REMARK  Name = 1550473
REMARK  2 active torsions:
REMARK  status: ('A' for Active; 'I' for Inactive)
REMARK    1  A    between atoms: N_1  and  C_4
REMARK    2  A    between atoms: C_4  and  C_5
REMARK                            x       y       z     vdW  Elec       q    Type
REMARK                         _______ _______ _______ _____ _____    ______ ____
ROOT
ATOM      1  N   UNL     1     -22.692   5.397   0.405  0.00  0.00    -0.354 N 
ATOM      2  N   UNL     1     -22.557   6.450   2.464  0.00  0.00    -0.372 N 
ATOM      3  N   UNL     1     -22.994   4.199   2.396  0.00  0.00    -0.372 N 
ATOM      4  C   UNL     1     -22.750   5.339   1.743  0.00  0.00    +0.166 C 
ATOM      5  H   UNL     1     -22.533   6.298  -0.031  0.00  0.00    +0.163 HD
ATOM      6  H   UNL     1     -22.591   6.437   3.474  0.00  0.00    +0.159 HD
ATOM      7  H   UNL     1     -22.353   7.341   2.027  0.00  0.00    +0.159 HD
ATOM      8  H   UNL     1     -23.154   3.326   1.910  0.00  0.00    +0.159 HD
ATOM      9  H   UNL     1     -23.044   4.167   3.407  0.00  0.00    +0.159 HD
ENDROOT
BRANCH   1  10
ATOM     10  C   UNL     1     -22.834   4.235  -0.470  0.00  0.00    +0.151 C 
BRANCH  10  11
ATOM     11  C   UNL     1     -21.467   3.723  -0.832  0.00  0.00    -0.028 A 
ATOM     12  C   UNL     1     -20.735   4.320  -1.869  0.00  0.00    +0.005 A 
ATOM     13  C   UNL     1     -20.896   2.645  -0.138  0.00  0.00    +0.005 A 
ATOM     14  C   UNL     1     -19.453   3.864  -2.186  0.00  0.00    +0.000 A 
ATOM     15  C   UNL     1     -19.616   2.193  -0.458  0.00  0.00    +0.000 A 
ATOM     16  C   UNL     1     -18.894   2.804  -1.480  0.00  0.00    +0.000 A 
ENDBRANCH  10  11
ENDBRANCH   1  10
TORSDOF 2
ENDMDL
