MODEL 1
REMARK VINA RESULT:    -4.471      0.000      0.000
REMARK INTER + INTRA:          -5.118
REMARK INTER:                  -4.994
REMARK INTRA:                  -0.124
REMARK UNBOUND:                -0.124
REMARK  Name = 1550473
REMARK  2 active torsions:
REMARK  status: ('A' for Active; 'I' for Inactive)
REMARK    1  A    between atoms: N_1  and  C_4
REMARK    2  A    between atoms: C_4  and  C_5
REMARK                            x       y       z     vdW  Elec       q    Type
REMARK                         _______ _______ _______ _____ _____    ______ ____
ROOT
ATOM      1  N   UNL     1     -10.582 -10.706   2.265  0.00  0.00    -0.354 N 
ATOM      2  N   UNL     1      -9.581 -10.488   0.188  0.00  0.00    -0.372 N 
ATOM      3  N   UNL     1     -11.742  -9.765   0.459  0.00  0.00    -0.372 N 
ATOM      4  C   UNL     1     -10.644 -10.320   0.983  0.00  0.00    +0.166 C 
ATOM      5  H   UNL     1      -9.731 -11.148   2.594  0.00  0.00    +0.163 HD
ATOM      6  H   UNL     1      -9.597 -10.203  -0.782  0.00  0.00    +0.159 HD
ATOM      7  H   UNL     1      -8.716 -10.888   0.531  0.00  0.00    +0.159 HD
ATOM      8  H   UNL     1     -12.580  -9.617   1.005  0.00  0.00    +0.159 HD
ATOM      9  H   UNL     1     -11.782  -9.484  -0.513  0.00  0.00    +0.159 HD
ENDROOT
BRANCH   1  10
ATOM     10  C   UNL     1     -11.665 -10.519   3.229  0.00  0.00    +0.151 C 
BRANCH  10  11
ATOM     11  C   UNL     1     -11.162 -10.857   4.605  0.00  0.00    -0.028 A 
ATOM     12  C   UNL     1     -12.030 -10.835   5.706  0.00  0.00    +0.005 A 
ATOM     13  C   UNL     1      -9.819 -11.206   4.813  0.00  0.00    +0.005 A 
ATOM     14  C   UNL     1     -11.570 -11.178   6.980  0.00  0.00    +0.000 A 
ATOM     15  C   UNL     1      -9.363 -11.547   6.087  0.00  0.00    +0.000 A 
ATOM     16  C   UNL     1     -10.240 -11.535   7.169  0.00  0.00    +0.000 A 
ENDBRANCH  10  11
ENDBRANCH   1  10
TORSDOF 2
ENDMDL
MODEL 2
REMARK VINA RESULT:    -4.471      1.137      1.883
REMARK INTER + INTRA:          -5.117
REMARK INTER:                  -4.979
REMARK INTRA:                  -0.139
REMARK UNBOUND:                -0.124
REMARK  Name = 1550473
REMARK  2 active torsions:
REMARK  status: ('A' for Active; 'I' for Inactive)
REMARK    1  A    between atoms: N_1  and  C_4
REMARK    2  A    between atoms: C_4  and  C_5
REMARK                            x       y       z     vdW  Elec       q    Type
REMARK                         _______ _______ _______ _____ _____    ______ ____
ROOT
ATOM      1  N   UNL     1     -10.689 -11.515   1.256  0.00  0.00    -0.354 N 
ATOM      2  N   UNL     1      -9.413 -11.364  -0.671  0.00  0.00    -0.372 N 
ATOM      3  N   UNL     1     -10.326  -9.451   0.208  0.00  0.00    -0.372 N 
ATOM      4  C   UNL     1     -10.152 -10.775   0.277  0.00  0.00    +0.166 C 
ATOM      5  H   UNL     1     -10.546 -12.518   1.235  0.00  0.00    +0.163 HD
ATOM      6  H   UNL     1      -8.992 -10.831  -1.420  0.00  0.00    +0.159 HD
ATOM      7  H   UNL     1      -9.233 -12.361  -0.663  0.00  0.00    +0.159 HD
ATOM      8  H   UNL     1     -10.877  -8.947   0.889  0.00  0.00    +0.159 HD
ATOM      9  H   UNL     1      -9.922  -8.902  -0.541  0.00  0.00    +0.159 HD
ENDROOT
BRANCH   1  10
ATOM     10  C   UNL     1     -11.465 -10.964   2.365  0.00  0.00    +0.151 C 
BRANCH  10  11
ATOM     11  C   UNL     1     -10.806 -11.345   3.662  0.00  0.00    -0.028 A 
ATOM     12  C   UNL     1      -9.631 -12.110   3.666  0.00  0.00    +0.005 A 
ATOM     13  C   UNL     1     -11.350 -10.940   4.891  0.00  0.00    +0.005 A 
ATOM     14  C   UNL     1      -9.002 -12.439   4.869  0.00  0.00    +0.000 A 
ATOM     15  C   UNL     1     -10.719 -11.271   6.090  0.00  0.00    +0.000 A 
ATOM     16  C   UNL     1      -9.544 -12.018   6.079  0.00  0.00    +0.000 A 
ENDBRANCH  10  11
ENDBRANCH   1  10
TORSDOF 2
ENDMDL
MODEL 3
REMARK VINA RESULT:    -4.469     13.937     15.125
REMARK INTER + INTRA:          -5.115
REMARK INTER:                  -4.957
REMARK INTRA:                  -0.158
REMARK UNBOUND:                -0.124
REMARK  Name = 1550473
REMARK  2 active torsions:
REMARK  status: ('A' for Active; 'I' for Inactive)
REMARK    1  A    between atoms: N_1  and  C_4
REMARK    2  A    between atoms: C_4  and  C_5
REMARK                            x       y       z     vdW  Elec       q    Type
REMARK                         _______ _______ _______ _____ _____    ______ ____
ROOT
ATOM      1  N   UNL     1      -9.014  -1.361  15.545  0.00  0.00    -0.354 N 
ATOM      2  N   UNL     1      -6.933  -2.002  16.335  0.00  0.00    -0.372 N 
ATOM      3  N   UNL     1      -8.016  -3.359  14.834  0.00  0.00    -0.372 N 
ATOM      4  C   UNL     1      -8.002  -2.239  15.565  0.00  0.00    +0.166 C 
ATOM      5  H   UNL     1      -8.956  -0.546  16.145  0.00  0.00    +0.163 HD
ATOM      6  H   UNL     1      -6.153  -2.644  16.367  0.00  0.00    +0.159 HD
ATOM      7  H   UNL     1      -6.857  -1.164  16.898  0.00  0.00    +0.159 HD
ATOM      8  H   UNL     1      -8.796  -3.599  14.237  0.00  0.00    +0.159 HD
ATOM      9  H   UNL     1      -7.249  -4.020  14.862  0.00  0.00    +0.159 HD
ENDROOT
BRANCH   1  10
ATOM     10  C   UNL     1     -10.199  -1.498  14.700  0.00  0.00    +0.151 C 
BRANCH  10  11
ATOM     11  C   UNL     1     -10.183  -0.419  13.653  0.00  0.00    -0.028 A 
ATOM     12  C   UNL     1      -9.951  -0.737  12.307  0.00  0.00    +0.005 A 
ATOM     13  C   UNL     1     -10.406   0.922  14.000  0.00  0.00    +0.005 A 
ATOM     14  C   UNL     1      -9.966   0.261  11.329  0.00  0.00    +0.000 A 
ATOM     15  C   UNL     1     -10.419   1.916  13.021  0.00  0.00    +0.000 A 
ATOM     16  C   UNL     1     -10.201   1.585  11.686  0.00  0.00    +0.000 A 
ENDBRANCH  10  11
ENDBRANCH   1  10
TORSDOF 2
ENDMDL
MODEL 4
REMARK VINA RESULT:    -4.467     27.180     28.172
REMARK INTER + INTRA:          -5.113
REMARK INTER:                  -4.987
REMARK INTRA:                  -0.126
REMARK UNBOUND:                -0.124
REMARK  Name = 1550473
REMARK  2 active torsions:
REMARK  status: ('A' for Active; 'I' for Inactive)
REMARK    1  A    between atoms: N_1  and  C_4
REMARK    2  A    between atoms: C_4  and  C_5
REMARK                            x       y       z     vdW  Elec       q    Type
REMARK                         _______ _______ _______ _____ _____    ______ ____
ROOT
ATOM      1  N   UNL     1       3.315   8.668  20.500  0.00  0.00    -0.354 N 
ATOM      2  N   UNL     1       5.232   9.779  21.174  0.00  0.00    -0.372 N 
ATOM      3  N   UNL     1       4.963   7.577  21.759  0.00  0.00    -0.372 N 
ATOM      4  C   UNL     1       4.491   8.665  21.141  0.00  0.00    +0.166 C 
ATOM      5  H   UNL     1       2.999   9.534  20.077  0.00  0.00    +0.163 HD
ATOM      6  H   UNL     1       6.125   9.806  21.647  0.00  0.00    +0.159 HD
ATOM      7  H   UNL     1       4.935  10.630  20.711  0.00  0.00    +0.159 HD
ATOM      8  H   UNL     1       4.449   6.706  21.776  0.00  0.00    +0.159 HD
ATOM      9  H   UNL     1       5.849   7.587  22.248  0.00  0.00    +0.159 HD
ENDROOT
BRANCH   1  10
ATOM     10  C   UNL     1       2.457   7.493  20.359  0.00  0.00    +0.151 C 
BRANCH  10  11
ATOM     11  C   UNL     1       1.454   7.744  19.267  0.00  0.00    -0.028 A 
ATOM     12  C   UNL     1       1.567   8.874  18.443  0.00  0.00    +0.005 A 
ATOM     13  C   UNL     1       0.392   6.854  19.048  0.00  0.00    +0.005 A 
ATOM     14  C   UNL     1       0.653   9.092  17.410  0.00  0.00    +0.000 A 
ATOM     15  C   UNL     1      -0.519   7.076  18.015  0.00  0.00    +0.000 A 
ATOM     16  C   UNL     1      -0.387   8.193  17.195  0.00  0.00    +0.000 A 
ENDBRANCH  10  11
ENDBRANCH   1  10
TORSDOF 2
ENDMDL
MODEL 5
REMARK VINA RESULT:    -4.360     26.883     27.948
REMARK INTER + INTRA:          -4.993
REMARK INTER:                  -4.854
REMARK INTRA:                  -0.139
REMARK UNBOUND:                -0.124
REMARK  Name = 1550473
REMARK  2 active torsions:
REMARK  status: ('A' for Active; 'I' for Inactive)
REMARK    1  A    between atoms: N_1  and  C_4
REMARK    2  A    between atoms: C_4  and  C_5
REMARK                            x       y       z     vdW  Elec       q    Type
REMARK                         _______ _______ _______ _____ _____    ______ ____
ROOT
ATOM      1  N   UNL     1       2.351   8.206  21.258  0.00  0.00    -0.354 N 
ATOM      2  N   UNL     1       2.134  10.317  20.331  0.00  0.00    -0.372 N 
ATOM      3  N   UNL     1       4.192   9.647  21.094  0.00  0.00    -0.372 N 
ATOM      4  C   UNL     1       2.896   9.376  20.901  0.00  0.00    +0.166 C 
ATOM      5  H   UNL     1       1.356   8.075  21.113  0.00  0.00    +0.163 HD
ATOM      6  H   UNL     1       2.519  11.209  20.047  0.00  0.00    +0.159 HD
ATOM      7  H   UNL     1       1.151  10.166  20.145  0.00  0.00    +0.159 HD
ATOM      8  H   UNL     1       4.819   8.981  21.525  0.00  0.00    +0.159 HD
ATOM      9  H   UNL     1       4.593  10.538  20.828  0.00  0.00    +0.159 HD
ENDROOT
BRANCH   1  10
ATOM     10  C   UNL     1       3.104   7.095  21.837  0.00  0.00    +0.151 C 
BRANCH  10  11
ATOM     11  C   UNL     1       2.828   5.848  21.044  0.00  0.00    -0.028 A 
ATOM     12  C   UNL     1       1.630   5.710  20.329  0.00  0.00    +0.005 A 
ATOM     13  C   UNL     1       3.765   4.804  20.998  0.00  0.00    +0.005 A 
ATOM     14  C   UNL     1       1.386   4.564  19.568  0.00  0.00    +0.000 A 
ATOM     15  C   UNL     1       3.517   3.661  20.237  0.00  0.00    +0.000 A 
ATOM     16  C   UNL     1       2.329   3.543  19.520  0.00  0.00    +0.000 A 
ENDBRANCH  10  11
ENDBRANCH   1  10
TORSDOF 2
ENDMDL
MODEL 6
REMARK VINA RESULT:    -4.351     16.447     17.784
REMARK INTER + INTRA:          -4.984
REMARK INTER:                  -4.800
REMARK INTRA:                  -0.183
REMARK UNBOUND:                -0.124
REMARK  Name = 1550473
REMARK  2 active torsions:
REMARK  status: ('A' for Active; 'I' for Inactive)
REMARK    1  A    between atoms: N_1  and  C_4
REMARK    2  A    between atoms: C_4  and  C_5
REMARK                            x       y       z     vdW  Elec       q    Type
REMARK                         _______ _______ _______ _____ _____    ______ ____
ROOT
ATOM      1  N   UNL     1       2.177 -16.423  -5.318  0.00  0.00    -0.354 N 
ATOM      2  N   UNL     1       3.807 -14.793  -5.542  0.00  0.00    -0.372 N 
ATOM      3  N   UNL     1       4.213 -16.890  -6.380  0.00  0.00    -0.372 N 
ATOM      4  C   UNL     1       3.390 -16.049  -5.746  0.00  0.00    +0.166 C 
ATOM      5  H   UNL     1       1.613 -15.746  -4.817  0.00  0.00    +0.163 HD
ATOM      6  H   UNL     1       4.716 -14.481  -5.856  0.00  0.00    +0.159 HD
ATOM      7  H   UNL     1       3.223 -14.106  -5.082  0.00  0.00    +0.159 HD
ATOM      8  H   UNL     1       3.960 -17.853  -6.560  0.00  0.00    +0.159 HD
ATOM      9  H   UNL     1       5.131 -16.600  -6.692  0.00  0.00    +0.159 HD
ENDROOT
BRANCH   1  10
ATOM     10  C   UNL     1       1.606 -17.751  -5.538  0.00  0.00    +0.151 C 
BRANCH  10  11
ATOM     11  C   UNL     1       0.670 -17.695  -6.714  0.00  0.00    -0.028 A 
ATOM     12  C   UNL     1      -0.490 -16.908  -6.663  0.00  0.00    +0.005 A 
ATOM     13  C   UNL     1       0.941 -18.421  -7.884  0.00  0.00    +0.005 A 
ATOM     14  C   UNL     1      -1.344 -16.832  -7.766  0.00  0.00    +0.000 A 
ATOM     15  C   UNL     1       0.085 -18.342  -8.982  0.00  0.00    +0.000 A 
ATOM     16  C   UNL     1      -1.056 -17.546  -8.924  0.00  0.00    +0.000 A 
ENDBRANCH  10  11
ENDBRANCH   1  10
TORSDOF 2
ENDMDL
MODEL 7
REMARK VINA RESULT:    -4.311     27.427     28.596
REMARK INTER + INTRA:          -4.939
REMARK INTER:                  -4.818
REMARK INTRA:                  -0.121
REMARK UNBOUND:                -0.124
REMARK  Name = 1550473
REMARK  2 active torsions:
REMARK  status: ('A' for Active; 'I' for Inactive)
REMARK    1  A    between atoms: N_1  and  C_4
REMARK    2  A    between atoms: C_4  and  C_5
REMARK                            x       y       z     vdW  Elec       q    Type
REMARK                         _______ _______ _______ _____ _____    ______ ____
ROOT
ATOM      1  N   UNL     1      16.050  -3.864   2.293  0.00  0.00    -0.354 N 
ATOM      2  N   UNL     1      14.935  -1.998   1.493  0.00  0.00    -0.372 N 
ATOM      3  N   UNL     1      14.576  -2.660   3.660  0.00  0.00    -0.372 N 
ATOM      4  C   UNL     1      15.193  -2.853   2.490  0.00  0.00    +0.166 C 
ATOM      5  H   UNL     1      16.462  -3.974   1.373  0.00  0.00    +0.163 HD
ATOM      6  H   UNL     1      14.296  -1.224   1.613  0.00  0.00    +0.159 HD
ATOM      7  H   UNL     1      15.383  -2.083   0.589  0.00  0.00    +0.159 HD
ATOM      8  H   UNL     1      14.723  -3.273   4.451  0.00  0.00    +0.159 HD
ATOM      9  H   UNL     1      13.924  -1.898   3.796  0.00  0.00    +0.159 HD
ENDROOT
BRANCH   1  10
ATOM     10  C   UNL     1      16.440  -4.819   3.329  0.00  0.00    +0.151 C 
BRANCH  10  11
ATOM     11  C   UNL     1      17.401  -5.815   2.742  0.00  0.00    -0.028 A 
ATOM     12  C   UNL     1      18.147  -6.662   3.575  0.00  0.00    +0.005 A 
ATOM     13  C   UNL     1      17.566  -5.922   1.352  0.00  0.00    +0.005 A 
ATOM     14  C   UNL     1      19.017  -7.608   3.029  0.00  0.00    +0.000 A 
ATOM     15  C   UNL     1      18.437  -6.868   0.811  0.00  0.00    +0.000 A 
ATOM     16  C   UNL     1      19.160  -7.712   1.649  0.00  0.00    +0.000 A 
ENDBRANCH  10  11
ENDBRANCH   1  10
TORSDOF 2
ENDMDL
MODEL 8
REMARK VINA RESULT:    -4.251     30.807     32.118
REMARK INTER + INTRA:          -4.872
REMARK INTER:                  -4.736
REMARK INTRA:                  -0.136
REMARK UNBOUND:                -0.124
REMARK  Name = 1550473
REMARK  2 active torsions:
REMARK  status: ('A' for Active; 'I' for Inactive)
REMARK    1  A    between atoms: N_1  and  C_4
REMARK    2  A    between atoms: C_4  and  C_5
REMARK                            x       y       z     vdW  Elec       q    Type
REMARK                         _______ _______ _______ _____ _____    ______ ____
ROOT
ATOM      1  N   UNL     1      -8.055  10.283 -20.870  0.00  0.00    -0.354 N 
ATOM      2  N   UNL     1      -9.287  12.081 -21.654  0.00  0.00    -0.372 N 
ATOM      3  N   UNL     1      -7.250  11.631 -22.610  0.00  0.00    -0.372 N 
ATOM      4  C   UNL     1      -8.187  11.320 -21.708  0.00  0.00    +0.166 C 
ATOM      5  H   UNL     1      -8.787  10.119 -20.189  0.00  0.00    +0.163 HD
ATOM      6  H   UNL     1      -9.416  12.868 -22.276  0.00  0.00    +0.159 HD
ATOM      7  H   UNL     1     -10.038  11.887 -21.003  0.00  0.00    +0.159 HD
ATOM      8  H   UNL     1      -6.394  11.099 -22.698  0.00  0.00    +0.159 HD
ATOM      9  H   UNL     1      -7.356  12.421 -23.233  0.00  0.00    +0.159 HD
ENDROOT
BRANCH   1  10
ATOM     10  C   UNL     1      -6.922   9.360 -20.883  0.00  0.00    +0.151 C 
BRANCH  10  11
ATOM     11  C   UNL     1      -7.434   7.955 -21.041  0.00  0.00    -0.028 A 
ATOM     12  C   UNL     1      -6.577   6.860 -20.855  0.00  0.00    +0.005 A 
ATOM     13  C   UNL     1      -8.776   7.712 -21.371  0.00  0.00    +0.005 A 
ATOM     14  C   UNL     1      -7.060   5.554 -20.972  0.00  0.00    +0.000 A 
ATOM     15  C   UNL     1      -9.254   6.407 -21.487  0.00  0.00    +0.000 A 
ATOM     16  C   UNL     1      -8.396   5.328 -21.285  0.00  0.00    +0.000 A 
ENDBRANCH  10  11
ENDBRANCH   1  10
TORSDOF 2
ENDMDL
MODEL 9
REMARK VINA RESULT:    -4.099     25.266     28.075
REMARK INTER + INTRA:          -4.702
REMARK INTER:                  -4.610
REMARK INTRA:                  -0.092
REMARK UNBOUND:                -0.124
REMARK  Name = 1550473
REMARK  2 active torsions:
REMARK  status: ('A' for Active; 'I' for Inactive)
REMARK    1  A    between atoms: N_1  and  C_4
REMARK    2  A    between atoms: C_4  and  C_5
REMARK                            x       y       z     vdW  Elec       q    Type
REMARK                         _______ _______ _______ _____ _____    ______ ____
ROOT
ATOM      1  N   UNL     1      -5.258   0.042 -19.482  0.00  0.00    -0.354 N 
ATOM      2  N   UNL     1      -4.763  -0.985 -17.465  0.00  0.00    -0.372 N 
ATOM      3  N   UNL     1      -4.433  -2.150 -19.414  0.00  0.00    -0.372 N 
ATOM      4  C   UNL     1      -4.821  -1.027 -18.802  0.00  0.00    +0.166 C 
ATOM      5  H   UNL     1      -5.567   0.853 -18.957  0.00  0.00    +0.163 HD
ATOM      6  H   UNL     1      -4.434  -1.774 -16.926  0.00  0.00    +0.159 HD
ATOM      7  H   UNL     1      -5.028  -0.157 -16.946  0.00  0.00    +0.159 HD
ATOM      8  H   UNL     1      -4.458  -2.248 -20.420  0.00  0.00    +0.159 HD
ATOM      9  H   UNL     1      -4.111  -2.955 -18.891  0.00  0.00    +0.159 HD
ENDROOT
BRANCH   1  10
ATOM     10  C   UNL     1      -5.310   0.118 -20.941  0.00  0.00    +0.151 C 
BRANCH  10  11
ATOM     11  C   UNL     1      -5.814   1.476 -21.344  0.00  0.00    -0.028 A 
ATOM     12  C   UNL     1      -7.183   1.774 -21.283  0.00  0.00    +0.005 A 
ATOM     13  C   UNL     1      -4.928   2.471 -21.784  0.00  0.00    +0.005 A 
ATOM     14  C   UNL     1      -7.649   3.044 -21.629  0.00  0.00    +0.000 A 
ATOM     15  C   UNL     1      -5.397   3.738 -22.129  0.00  0.00    +0.000 A 
ATOM     16  C   UNL     1      -6.757   4.025 -22.049  0.00  0.00    +0.000 A 
ENDBRANCH  10  11
ENDBRANCH   1  10
TORSDOF 2
ENDMDL
