MODEL 1
REMARK VINA RESULT:    -5.299      0.000      0.000
REMARK INTER + INTRA:          -6.042
REMARK INTER:                  -5.919
REMARK INTRA:                  -0.123
REMARK UNBOUND:                -0.123
REMARK  Name = 1550473
REMARK  2 active torsions:
REMARK  status: ('A' for Active; 'I' for Inactive)
REMARK    1  A    between atoms: N_1  and  C_4
REMARK    2  A    between atoms: C_4  and  C_5
REMARK                            x       y       z     vdW  Elec       q    Type
REMARK                         _______ _______ _______ _____ _____    ______ ____
ROOT
ATOM      1  N   UNL     1      12.485   7.426   3.297  0.00  0.00    -0.354 N 
ATOM      2  N   UNL     1      10.837   6.055   2.421  0.00  0.00    -0.372 N 
ATOM      3  N   UNL     1      11.513   5.730   4.589  0.00  0.00    -0.372 N 
ATOM      4  C   UNL     1      11.623   6.411   3.444  0.00  0.00    +0.166 C 
ATOM      5  H   UNL     1      12.542   7.883   2.394  0.00  0.00    +0.163 HD
ATOM      6  H   UNL     1      10.174   5.296   2.503  0.00  0.00    +0.159 HD
ATOM      7  H   UNL     1      10.863   6.543   1.534  0.00  0.00    +0.159 HD
ATOM      8  H   UNL     1      12.081   5.946   5.397  0.00  0.00    +0.159 HD
ATOM      9  H   UNL     1      10.863   4.960   4.688  0.00  0.00    +0.159 HD
ENDROOT
BRANCH   1  10
ATOM     10  C   UNL     1      13.347   7.928   4.366  0.00  0.00    +0.151 C 
BRANCH  10  11
ATOM     11  C   UNL     1      14.767   7.970   3.872  0.00  0.00    -0.028 A 
ATOM     12  C   UNL     1      15.145   8.873   2.867  0.00  0.00    +0.005 A 
ATOM     13  C   UNL     1      15.741   7.114   4.409  0.00  0.00    +0.005 A 
ATOM     14  C   UNL     1      16.470   8.933   2.430  0.00  0.00    +0.000 A 
ATOM     15  C   UNL     1      17.063   7.177   3.969  0.00  0.00    +0.000 A 
ATOM     16  C   UNL     1      17.428   8.088   2.981  0.00  0.00    +0.000 A 
ENDBRANCH  10  11
ENDBRANCH   1  10
TORSDOF 2
ENDMDL
MODEL 2
REMARK VINA RESULT:    -4.935     35.396     36.751
REMARK INTER + INTRA:          -5.635
REMARK INTER:                  -5.502
REMARK INTRA:                  -0.134
REMARK UNBOUND:                -0.123
REMARK  Name = 1550473
REMARK  2 active torsions:
REMARK  status: ('A' for Active; 'I' for Inactive)
REMARK    1  A    between atoms: N_1  and  C_4
REMARK    2  A    between atoms: C_4  and  C_5
REMARK                            x       y       z     vdW  Elec       q    Type
REMARK                         _______ _______ _______ _____ _____    ______ ____
ROOT
ATOM      1  N   UNL     1     -14.886  -3.046 -15.434  0.00  0.00    -0.354 N 
ATOM      2  N   UNL     1     -13.389  -1.811 -16.699  0.00  0.00    -0.372 N 
ATOM      3  N   UNL     1     -15.451  -2.297 -17.581  0.00  0.00    -0.372 N 
ATOM      4  C   UNL     1     -14.587  -2.393 -16.565  0.00  0.00    +0.166 C 
ATOM      5  H   UNL     1     -14.177  -3.108 -14.712  0.00  0.00    +0.163 HD
ATOM      6  H   UNL     1     -13.137  -1.309 -17.539  0.00  0.00    +0.159 HD
ATOM      7  H   UNL     1     -12.699  -1.836 -15.958  0.00  0.00    +0.159 HD
ATOM      8  H   UNL     1     -16.369  -2.720 -17.546  0.00  0.00    +0.159 HD
ATOM      9  H   UNL     1     -15.212  -1.809 -18.435  0.00  0.00    +0.159 HD
ENDROOT
BRANCH   1  10
ATOM     10  C   UNL     1     -16.181  -3.668 -15.167  0.00  0.00    +0.151 C 
BRANCH  10  11
ATOM     11  C   UNL     1     -16.501  -3.529 -13.704  0.00  0.00    -0.028 A 
ATOM     12  C   UNL     1     -17.656  -4.117 -13.168  0.00  0.00    +0.005 A 
ATOM     13  C   UNL     1     -15.649  -2.815 -12.847  0.00  0.00    +0.005 A 
ATOM     14  C   UNL     1     -17.938  -4.013 -11.804  0.00  0.00    +0.000 A 
ATOM     15  C   UNL     1     -15.934  -2.713 -11.485  0.00  0.00    +0.000 A 
ATOM     16  C   UNL     1     -17.077  -3.315 -10.964  0.00  0.00    +0.000 A 
ENDBRANCH  10  11
ENDBRANCH   1  10
TORSDOF 2
ENDMDL
MODEL 3
REMARK VINA RESULT:    -4.853     26.890     28.237
REMARK INTER + INTRA:          -5.544
REMARK INTER:                  -5.364
REMARK INTRA:                  -0.179
REMARK UNBOUND:                -0.123
REMARK  Name = 1550473
REMARK  2 active torsions:
REMARK  status: ('A' for Active; 'I' for Inactive)
REMARK    1  A    between atoms: N_1  and  C_4
REMARK    2  A    between atoms: C_4  and  C_5
REMARK                            x       y       z     vdW  Elec       q    Type
REMARK                         _______ _______ _______ _____ _____    ______ ____
ROOT
ATOM      1  N   UNL     1      -1.923 -10.625  -9.015  0.00  0.00    -0.354 N 
ATOM      2  N   UNL     1      -3.928  -9.701  -9.715  0.00  0.00    -0.372 N 
ATOM      3  N   UNL     1      -3.658 -10.214  -7.495  0.00  0.00    -0.372 N 
ATOM      4  C   UNL     1      -3.157 -10.186  -8.734  0.00  0.00    +0.166 C 
ATOM      5  H   UNL     1      -1.613 -10.605  -9.980  0.00  0.00    +0.163 HD
ATOM      6  H   UNL     1      -4.862  -9.360  -9.533  0.00  0.00    +0.159 HD
ATOM      7  H   UNL     1      -3.599  -9.640 -10.671  0.00  0.00    +0.159 HD
ATOM      8  H   UNL     1      -3.129 -10.573  -6.711  0.00  0.00    +0.159 HD
ATOM      9  H   UNL     1      -4.595  -9.887  -7.294  0.00  0.00    +0.159 HD
ENDROOT
BRANCH   1  10
ATOM     10  C   UNL     1      -0.983 -11.122  -8.012  0.00  0.00    +0.151 C 
BRANCH  10  11
ATOM     11  C   UNL     1      -0.992 -12.626  -8.033  0.00  0.00    -0.028 A 
ATOM     12  C   UNL     1      -0.581 -13.324  -9.177  0.00  0.00    +0.005 A 
ATOM     13  C   UNL     1      -1.406 -13.358  -6.909  0.00  0.00    +0.005 A 
ATOM     14  C   UNL     1      -0.561 -14.721  -9.187  0.00  0.00    +0.000 A 
ATOM     15  C   UNL     1      -1.385 -14.752  -6.923  0.00  0.00    +0.000 A 
ATOM     16  C   UNL     1      -0.960 -15.434  -8.061  0.00  0.00    +0.000 A 
ENDBRANCH  10  11
ENDBRANCH   1  10
TORSDOF 2
ENDMDL
MODEL 4
REMARK VINA RESULT:    -4.690      3.001      4.181
REMARK INTER + INTRA:          -5.362
REMARK INTER:                  -5.267
REMARK INTRA:                  -0.095
REMARK UNBOUND:                -0.123
REMARK  Name = 1550473
REMARK  2 active torsions:
REMARK  status: ('A' for Active; 'I' for Inactive)
REMARK    1  A    between atoms: N_1  and  C_4
REMARK    2  A    between atoms: C_4  and  C_5
REMARK                            x       y       z     vdW  Elec       q    Type
REMARK                         _______ _______ _______ _____ _____    ______ ____
ROOT
ATOM      1  N   UNL     1      13.342  11.108   3.109  0.00  0.00    -0.354 N 
ATOM      2  N   UNL     1      12.414  13.180   3.566  0.00  0.00    -0.372 N 
ATOM      3  N   UNL     1      12.169  12.295   1.464  0.00  0.00    -0.372 N 
ATOM      4  C   UNL     1      12.647  12.181   2.707  0.00  0.00    +0.166 C 
ATOM      5  H   UNL     1      13.704  11.096   4.056  0.00  0.00    +0.163 HD
ATOM      6  H   UNL     1      11.890  14.001   3.293  0.00  0.00    +0.159 HD
ATOM      7  H   UNL     1      12.737  13.145   4.526  0.00  0.00    +0.159 HD
ATOM      8  H   UNL     1      12.315  11.578   0.766  0.00  0.00    +0.159 HD
ATOM      9  H   UNL     1      11.652  13.114   1.168  0.00  0.00    +0.159 HD
ENDROOT
BRANCH   1  10
ATOM     10  C   UNL     1      13.605   9.942   2.267  0.00  0.00    +0.151 C 
BRANCH  10  11
ATOM     11  C   UNL     1      14.532   9.009   2.996  0.00  0.00    -0.028 A 
ATOM     12  C   UNL     1      14.100   8.330   4.145  0.00  0.00    +0.005 A 
ATOM     13  C   UNL     1      15.841   8.795   2.540  0.00  0.00    +0.005 A 
ATOM     14  C   UNL     1      14.951   7.441   4.806  0.00  0.00    +0.000 A 
ATOM     15  C   UNL     1      16.688   7.906   3.202  0.00  0.00    +0.000 A 
ATOM     16  C   UNL     1      16.242   7.228   4.334  0.00  0.00    +0.000 A 
ENDBRANCH  10  11
ENDBRANCH   1  10
TORSDOF 2
ENDMDL
MODEL 5
REMARK VINA RESULT:    -4.576     24.609     26.140
REMARK INTER + INTRA:          -5.234
REMARK INTER:                  -5.102
REMARK INTRA:                  -0.132
REMARK UNBOUND:                -0.123
REMARK  Name = 1550473
REMARK  2 active torsions:
REMARK  status: ('A' for Active; 'I' for Inactive)
REMARK    1  A    between atoms: N_1  and  C_4
REMARK    2  A    between atoms: C_4  and  C_5
REMARK                            x       y       z     vdW  Elec       q    Type
REMARK                         _______ _______ _______ _____ _____    ______ ____
ROOT
ATOM      1  N   UNL     1      -3.642 -10.293  -7.402  0.00  0.00    -0.354 N 
ATOM      2  N   UNL     1      -3.908  -9.681  -9.620  0.00  0.00    -0.372 N 
ATOM      3  N   UNL     1      -2.257 -11.178  -9.072  0.00  0.00    -0.372 N 
ATOM      4  C   UNL     1      -3.265 -10.390  -8.684  0.00  0.00    +0.166 C 
ATOM      5  H   UNL     1      -4.394  -9.655  -7.168  0.00  0.00    +0.163 HD
ATOM      6  H   UNL     1      -3.648  -9.736 -10.595  0.00  0.00    +0.159 HD
ATOM      7  H   UNL     1      -4.689  -9.079  -9.389  0.00  0.00    +0.159 HD
ATOM      8  H   UNL     1      -1.728 -11.734  -8.414  0.00  0.00    +0.159 HD
ATOM      9  H   UNL     1      -1.975 -11.238 -10.043  0.00  0.00    +0.159 HD
ENDROOT
BRANCH   1  10
ATOM     10  C   UNL     1      -3.043 -11.063  -6.313  0.00  0.00    +0.151 C 
BRANCH  10  11
ATOM     11  C   UNL     1      -2.592 -10.118  -5.234  0.00  0.00    -0.028 A 
ATOM     12  C   UNL     1      -1.253  -9.705  -5.163  0.00  0.00    +0.005 A 
ATOM     13  C   UNL     1      -3.499  -9.628  -4.282  0.00  0.00    +0.005 A 
ATOM     14  C   UNL     1      -0.840  -8.804  -4.179  0.00  0.00    +0.000 A 
ATOM     15  C   UNL     1      -3.082  -8.729  -3.300  0.00  0.00    +0.000 A 
ATOM     16  C   UNL     1      -1.754  -8.315  -3.250  0.00  0.00    +0.000 A 
ENDBRANCH  10  11
ENDBRANCH   1  10
TORSDOF 2
ENDMDL
MODEL 6
REMARK VINA RESULT:    -4.462      3.038      4.407
REMARK INTER + INTRA:          -5.107
REMARK INTER:                  -4.967
REMARK INTRA:                  -0.140
REMARK UNBOUND:                -0.123
REMARK  Name = 1550473
REMARK  2 active torsions:
REMARK  status: ('A' for Active; 'I' for Inactive)
REMARK    1  A    between atoms: N_1  and  C_4
REMARK    2  A    between atoms: C_4  and  C_5
REMARK                            x       y       z     vdW  Elec       q    Type
REMARK                         _______ _______ _______ _____ _____    ______ ____
ROOT
ATOM      1  N   UNL     1      13.411  10.873   2.163  0.00  0.00    -0.354 N 
ATOM      2  N   UNL     1      11.901  12.365   1.235  0.00  0.00    -0.372 N 
ATOM      3  N   UNL     1      12.585  12.683   3.402  0.00  0.00    -0.372 N 
ATOM      4  C   UNL     1      12.642  11.965   2.276  0.00  0.00    +0.166 C 
ATOM      5  H   UNL     1      13.387  10.355   1.292  0.00  0.00    +0.163 HD
ATOM      6  H   UNL     1      11.314  13.186   1.289  0.00  0.00    +0.159 HD
ATOM      7  H   UNL     1      11.915  11.871   0.351  0.00  0.00    +0.159 HD
ATOM      8  H   UNL     1      13.115  12.431   4.226  0.00  0.00    +0.159 HD
ATOM      9  H   UNL     1      11.995  13.502   3.480  0.00  0.00    +0.159 HD
ENDROOT
BRANCH   1  10
ATOM     10  C   UNL     1      14.296  10.384   3.219  0.00  0.00    +0.151 C 
BRANCH  10  11
ATOM     11  C   UNL     1      14.058   8.913   3.418  0.00  0.00    -0.028 A 
ATOM     12  C   UNL     1      15.085   8.083   3.889  0.00  0.00    +0.005 A 
ATOM     13  C   UNL     1      12.805   8.344   3.142  0.00  0.00    +0.005 A 
ATOM     14  C   UNL     1      14.855   6.721   4.102  0.00  0.00    +0.000 A 
ATOM     15  C   UNL     1      12.580   6.984   3.355  0.00  0.00    +0.000 A 
ATOM     16  C   UNL     1      13.604   6.174   3.838  0.00  0.00    +0.000 A 
ENDBRANCH  10  11
ENDBRANCH   1  10
TORSDOF 2
ENDMDL
MODEL 7
REMARK VINA RESULT:    -4.438     26.793     28.423
REMARK INTER + INTRA:          -5.080
REMARK INTER:                  -4.946
REMARK INTRA:                  -0.134
REMARK UNBOUND:                -0.123
REMARK  Name = 1550473
REMARK  2 active torsions:
REMARK  status: ('A' for Active; 'I' for Inactive)
REMARK    1  A    between atoms: N_1  and  C_4
REMARK    2  A    between atoms: C_4  and  C_5
REMARK                            x       y       z     vdW  Elec       q    Type
REMARK                         _______ _______ _______ _____ _____    ______ ____
ROOT
ATOM      1  N   UNL     1     -14.758   3.760  -0.108  0.00  0.00    -0.354 N 
ATOM      2  N   UNL     1     -15.135   4.526  -2.261  0.00  0.00    -0.372 N 
ATOM      3  N   UNL     1     -16.474   5.290  -0.562  0.00  0.00    -0.372 N 
ATOM      4  C   UNL     1     -15.455   4.521  -0.962  0.00  0.00    +0.166 C 
ATOM      5  H   UNL     1     -14.016   3.177  -0.479  0.00  0.00    +0.163 HD
ATOM      6  H   UNL     1     -15.640   5.093  -2.928  0.00  0.00    +0.159 HD
ATOM      7  H   UNL     1     -14.363   3.977  -2.622  0.00  0.00    +0.159 HD
ATOM      8  H   UNL     1     -16.770   5.327   0.404  0.00  0.00    +0.159 HD
ATOM      9  H   UNL     1     -17.000   5.855  -1.217  0.00  0.00    +0.159 HD
ENDROOT
BRANCH   1  10
ATOM     10  C   UNL     1     -14.991   3.724   1.334  0.00  0.00    +0.151 C 
BRANCH  10  11
ATOM     11  C   UNL     1     -13.667   3.691   2.046  0.00  0.00    -0.028 A 
ATOM     12  C   UNL     1     -13.498   2.912   3.199  0.00  0.00    +0.005 A 
ATOM     13  C   UNL     1     -12.576   4.433   1.568  0.00  0.00    +0.005 A 
ATOM     14  C   UNL     1     -12.259   2.857   3.844  0.00  0.00    +0.000 A 
ATOM     15  C   UNL     1     -11.341   4.376   2.214  0.00  0.00    +0.000 A 
ATOM     16  C   UNL     1     -11.183   3.587   3.351  0.00  0.00    +0.000 A 
ENDBRANCH  10  11
ENDBRANCH   1  10
TORSDOF 2
ENDMDL
MODEL 8
REMARK VINA RESULT:    -4.424      2.030      2.964
REMARK INTER + INTRA:          -5.064
REMARK INTER:                  -4.949
REMARK INTRA:                  -0.115
REMARK UNBOUND:                -0.123
REMARK  Name = 1550473
REMARK  2 active torsions:
REMARK  status: ('A' for Active; 'I' for Inactive)
REMARK    1  A    between atoms: N_1  and  C_4
REMARK    2  A    between atoms: C_4  and  C_5
REMARK                            x       y       z     vdW  Elec       q    Type
REMARK                         _______ _______ _______ _____ _____    ______ ____
ROOT
ATOM      1  N   UNL     1      12.061   5.218   1.543  0.00  0.00    -0.354 N 
ATOM      2  N   UNL     1      11.479   4.360  -0.528  0.00  0.00    -0.372 N 
ATOM      3  N   UNL     1       9.844   5.288   0.788  0.00  0.00    -0.372 N 
ATOM      4  C   UNL     1      11.130   4.962   0.615  0.00  0.00    +0.166 C 
ATOM      5  H   UNL     1      13.013   4.918   1.365  0.00  0.00    +0.163 HD
ATOM      6  H   UNL     1      10.799   4.157  -1.248  0.00  0.00    +0.159 HD
ATOM      7  H   UNL     1      12.439   4.103  -0.723  0.00  0.00    +0.159 HD
ATOM      8  H   UNL     1       9.514   5.738   1.631  0.00  0.00    +0.159 HD
ATOM      9  H   UNL     1       9.146   5.082   0.084  0.00  0.00    +0.159 HD
ENDROOT
BRANCH   1  10
ATOM     10  C   UNL     1      11.794   5.916   2.799  0.00  0.00    +0.151 C 
BRANCH  10  11
ATOM     11  C   UNL     1      13.097   6.386   3.386  0.00  0.00    -0.028 A 
ATOM     12  C   UNL     1      13.150   7.559   4.154  0.00  0.00    +0.005 A 
ATOM     13  C   UNL     1      14.280   5.660   3.184  0.00  0.00    +0.005 A 
ATOM     14  C   UNL     1      14.354   7.979   4.725  0.00  0.00    +0.000 A 
ATOM     15  C   UNL     1      15.480   6.083   3.755  0.00  0.00    +0.000 A 
ATOM     16  C   UNL     1      15.516   7.242   4.527  0.00  0.00    +0.000 A 
ENDBRANCH  10  11
ENDBRANCH   1  10
TORSDOF 2
ENDMDL
MODEL 9
REMARK VINA RESULT:    -4.344     26.417     27.015
REMARK INTER + INTRA:          -4.975
REMARK INTER:                  -4.865
REMARK INTRA:                  -0.110
REMARK UNBOUND:                -0.123
REMARK  Name = 1550473
REMARK  2 active torsions:
REMARK  status: ('A' for Active; 'I' for Inactive)
REMARK    1  A    between atoms: N_1  and  C_4
REMARK    2  A    between atoms: C_4  and  C_5
REMARK                            x       y       z     vdW  Elec       q    Type
REMARK                         _______ _______ _______ _____ _____    ______ ____
ROOT
ATOM      1  N   UNL     1      -2.061 -10.749  -9.280  0.00  0.00    -0.354 N 
ATOM      2  N   UNL     1      -4.068  -9.694  -9.751  0.00  0.00    -0.372 N 
ATOM      3  N   UNL     1      -3.604 -10.278  -7.581  0.00  0.00    -0.372 N 
ATOM      4  C   UNL     1      -3.232 -10.248  -8.865  0.00  0.00    +0.166 C 
ATOM      5  H   UNL     1      -1.850 -10.722 -10.271  0.00  0.00    +0.163 HD
ATOM      6  H   UNL     1      -4.957  -9.305  -9.466  0.00  0.00    +0.159 HD
ATOM      7  H   UNL     1      -3.835  -9.627 -10.734  0.00  0.00    +0.159 HD
ATOM      8  H   UNL     1      -3.021 -10.687  -6.863  0.00  0.00    +0.159 HD
ATOM      9  H   UNL     1      -4.495  -9.904  -7.278  0.00  0.00    +0.159 HD
ENDROOT
BRANCH   1  10
ATOM     10  C   UNL     1      -1.055 -11.324  -8.389  0.00  0.00    +0.151 C 
BRANCH  10  11
ATOM     11  C   UNL     1       0.223 -11.525  -9.155  0.00  0.00    -0.028 A 
ATOM     12  C   UNL     1       0.751 -10.491  -9.942  0.00  0.00    +0.005 A 
ATOM     13  C   UNL     1       0.914 -12.745  -9.093  0.00  0.00    +0.005 A 
ATOM     14  C   UNL     1       1.954 -10.667 -10.630  0.00  0.00    +0.000 A 
ATOM     15  C   UNL     1       2.115 -12.916  -9.782  0.00  0.00    +0.000 A 
ATOM     16  C   UNL     1       2.636 -11.877 -10.548  0.00  0.00    +0.000 A 
ENDBRANCH  10  11
ENDBRANCH   1  10
TORSDOF 2
ENDMDL
