MODEL 1
REMARK VINA RESULT:    -5.883      0.000      0.000
REMARK INTER + INTRA:          -6.728
REMARK INTER:                  -6.571
REMARK INTRA:                  -0.157
REMARK UNBOUND:                -0.157
REMARK  Name = 1550473
REMARK  2 active torsions:
REMARK  status: ('A' for Active; 'I' for Inactive)
REMARK    1  A    between atoms: N_1  and  C_4
REMARK    2  A    between atoms: C_4  and  C_5
REMARK                            x       y       z     vdW  Elec       q    Type
REMARK                         _______ _______ _______ _____ _____    ______ ____
ROOT
ATOM      1  N   UNL     1       2.592 -11.338 -11.162  0.00  0.00    -0.354 N 
ATOM      2  N   UNL     1       3.890 -12.699 -12.513  0.00  0.00    -0.372 N 
ATOM      3  N   UNL     1       1.608 -12.753 -12.750  0.00  0.00    -0.372 N 
ATOM      4  C   UNL     1       2.686 -12.256 -12.134  0.00  0.00    +0.166 C 
ATOM      5  H   UNL     1       3.445 -11.024 -10.713  0.00  0.00    +0.163 HD
ATOM      6  H   UNL     1       3.992 -13.388 -13.246  0.00  0.00    +0.159 HD
ATOM      7  H   UNL     1       4.743 -12.349 -12.095  0.00  0.00    +0.159 HD
ATOM      8  H   UNL     1       0.671 -12.464 -12.506  0.00  0.00    +0.159 HD
ATOM      9  H   UNL     1       1.690 -13.452 -13.478  0.00  0.00    +0.159 HD
ENDROOT
BRANCH   1  10
ATOM     10  C   UNL     1       1.332 -10.750 -10.711  0.00  0.00    +0.151 C 
BRANCH  10  11
ATOM     11  C   UNL     1       1.202  -9.367 -11.287  0.00  0.00    -0.028 A 
ATOM     12  C   UNL     1       1.521  -8.241 -10.515  0.00  0.00    +0.005 A 
ATOM     13  C   UNL     1       0.765  -9.177 -12.607  0.00  0.00    +0.005 A 
ATOM     14  C   UNL     1       1.429  -6.958 -11.060  0.00  0.00    +0.000 A 
ATOM     15  C   UNL     1       0.673  -7.894 -13.147  0.00  0.00    +0.000 A 
ATOM     16  C   UNL     1       1.008  -6.785 -12.374  0.00  0.00    +0.000 A 
ENDBRANCH  10  11
ENDBRANCH   1  10
TORSDOF 2
ENDMDL
MODEL 2
REMARK VINA RESULT:    -5.608     13.277     14.288
REMARK INTER + INTRA:          -6.421
REMARK INTER:                  -6.301
REMARK INTRA:                  -0.120
REMARK UNBOUND:                -0.157
REMARK  Name = 1550473
REMARK  2 active torsions:
REMARK  status: ('A' for Active; 'I' for Inactive)
REMARK    1  A    between atoms: N_1  and  C_4
REMARK    2  A    between atoms: C_4  and  C_5
REMARK                            x       y       z     vdW  Elec       q    Type
REMARK                         _______ _______ _______ _____ _____    ______ ____
ROOT
ATOM      1  N   UNL     1      -7.495 -11.419  -0.069  0.00  0.00    -0.354 N 
ATOM      2  N   UNL     1      -7.814 -10.502   2.034  0.00  0.00    -0.372 N 
ATOM      3  N   UNL     1      -8.769 -12.532   1.552  0.00  0.00    -0.372 N 
ATOM      4  C   UNL     1      -8.026 -11.493   1.159  0.00  0.00    +0.166 C 
ATOM      5  H   UNL     1      -6.966 -10.590  -0.315  0.00  0.00    +0.163 HD
ATOM      6  H   UNL     1      -8.199 -10.532   2.969  0.00  0.00    +0.159 HD
ATOM      7  H   UNL     1      -7.247  -9.697   1.800  0.00  0.00    +0.159 HD
ATOM      8  H   UNL     1      -8.971 -13.309   0.938  0.00  0.00    +0.159 HD
ATOM      9  H   UNL     1      -9.173 -12.575   2.480  0.00  0.00    +0.159 HD
ENDROOT
BRANCH   1  10
ATOM     10  C   UNL     1      -7.620 -12.468  -1.078  0.00  0.00    +0.151 C 
BRANCH  10  11
ATOM     11  C   UNL     1      -7.339 -11.882  -2.434  0.00  0.00    -0.028 A 
ATOM     12  C   UNL     1      -7.845 -12.490  -3.592  0.00  0.00    +0.005 A 
ATOM     13  C   UNL     1      -6.571 -10.715  -2.567  0.00  0.00    +0.005 A 
ATOM     14  C   UNL     1      -7.609 -11.929  -4.849  0.00  0.00    +0.000 A 
ATOM     15  C   UNL     1      -6.337 -10.158  -3.825  0.00  0.00    +0.000 A 
ATOM     16  C   UNL     1      -6.858 -10.764  -4.965  0.00  0.00    +0.000 A 
ENDBRANCH  10  11
ENDBRANCH   1  10
TORSDOF 2
ENDMDL
MODEL 3
REMARK VINA RESULT:    -5.598     27.474     28.642
REMARK INTER + INTRA:          -6.409
REMARK INTER:                  -6.302
REMARK INTRA:                  -0.107
REMARK UNBOUND:                -0.157
REMARK  Name = 1550473
REMARK  2 active torsions:
REMARK  status: ('A' for Active; 'I' for Inactive)
REMARK    1  A    between atoms: N_1  and  C_4
REMARK    2  A    between atoms: C_4  and  C_5
REMARK                            x       y       z     vdW  Elec       q    Type
REMARK                         _______ _______ _______ _____ _____    ______ ____
ROOT
ATOM      1  N   UNL     1      11.540  12.224   3.632  0.00  0.00    -0.354 N 
ATOM      2  N   UNL     1      13.275  13.653   3.074  0.00  0.00    -0.372 N 
ATOM      3  N   UNL     1      11.429  13.567   1.715  0.00  0.00    -0.372 N 
ATOM      4  C   UNL     1      12.068  13.139   2.809  0.00  0.00    +0.166 C 
ATOM      5  H   UNL     1      12.088  11.920   4.428  0.00  0.00    +0.163 HD
ATOM      6  H   UNL     1      13.698  14.347   2.473  0.00  0.00    +0.159 HD
ATOM      7  H   UNL     1      13.801  13.380   3.896  0.00  0.00    +0.159 HD
ATOM      8  H   UNL     1      10.517  13.214   1.455  0.00  0.00    +0.159 HD
ATOM      9  H   UNL     1      11.841  14.253   1.094  0.00  0.00    +0.159 HD
ENDROOT
BRANCH   1  10
ATOM     10  C   UNL     1      10.210  11.642   3.462  0.00  0.00    +0.151 C 
BRANCH  10  11
ATOM     11  C   UNL     1       9.778  11.017   4.760  0.00  0.00    -0.028 A 
ATOM     12  C   UNL     1       9.470   9.650   4.824  0.00  0.00    +0.005 A 
ATOM     13  C   UNL     1       9.680  11.784   5.930  0.00  0.00    +0.005 A 
ATOM     14  C   UNL     1       9.098   9.062   6.035  0.00  0.00    +0.000 A 
ATOM     15  C   UNL     1       9.307  11.194   7.138  0.00  0.00    +0.000 A 
ATOM     16  C   UNL     1       9.018   9.833   7.190  0.00  0.00    +0.000 A 
ENDBRANCH  10  11
ENDBRANCH   1  10
TORSDOF 2
ENDMDL
MODEL 4
REMARK VINA RESULT:    -5.574     11.026     11.669
REMARK INTER + INTRA:          -6.383
REMARK INTER:                  -6.225
REMARK INTRA:                  -0.158
REMARK UNBOUND:                -0.157
REMARK  Name = 1550473
REMARK  2 active torsions:
REMARK  status: ('A' for Active; 'I' for Inactive)
REMARK    1  A    between atoms: N_1  and  C_4
REMARK    2  A    between atoms: C_4  and  C_5
REMARK                            x       y       z     vdW  Elec       q    Type
REMARK                         _______ _______ _______ _____ _____    ______ ____
ROOT
ATOM      1  N   UNL     1      -4.742  -9.684  -3.294  0.00  0.00    -0.354 N 
ATOM      2  N   UNL     1      -3.193  -8.022  -2.848  0.00  0.00    -0.372 N 
ATOM      3  N   UNL     1      -5.141  -8.075  -1.638  0.00  0.00    -0.372 N 
ATOM      4  C   UNL     1      -4.371  -8.604  -2.595  0.00  0.00    +0.166 C 
ATOM      5  H   UNL     1      -4.126 -10.019  -4.026  0.00  0.00    +0.163 HD
ATOM      6  H   UNL     1      -2.884  -7.207  -2.335  0.00  0.00    +0.159 HD
ATOM      7  H   UNL     1      -2.559  -8.385  -3.550  0.00  0.00    +0.159 HD
ATOM      8  H   UNL     1      -6.045  -8.463  -1.402  0.00  0.00    +0.159 HD
ATOM      9  H   UNL     1      -4.855  -7.253  -1.121  0.00  0.00    +0.159 HD
ENDROOT
BRANCH   1  10
ATOM     10  C   UNL     1      -5.981 -10.425  -3.059  0.00  0.00    +0.151 C 
BRANCH  10  11
ATOM     11  C   UNL     1      -6.826 -10.374  -4.302  0.00  0.00    -0.028 A 
ATOM     12  C   UNL     1      -6.835 -11.450  -5.201  0.00  0.00    +0.005 A 
ATOM     13  C   UNL     1      -7.625  -9.255  -4.583  0.00  0.00    +0.005 A 
ATOM     14  C   UNL     1      -7.643 -11.417  -6.340  0.00  0.00    +0.000 A 
ATOM     15  C   UNL     1      -8.430  -9.225  -5.721  0.00  0.00    +0.000 A 
ATOM     16  C   UNL     1      -8.440 -10.307  -6.599  0.00  0.00    +0.000 A 
ENDBRANCH  10  11
ENDBRANCH   1  10
TORSDOF 2
ENDMDL
MODEL 5
REMARK VINA RESULT:    -5.481     27.748     29.048
REMARK INTER + INTRA:          -6.279
REMARK INTER:                  -6.171
REMARK INTRA:                  -0.107
REMARK UNBOUND:                -0.157
REMARK  Name = 1550473
REMARK  2 active torsions:
REMARK  status: ('A' for Active; 'I' for Inactive)
REMARK    1  A    between atoms: N_1  and  C_4
REMARK    2  A    between atoms: C_4  and  C_5
REMARK                            x       y       z     vdW  Elec       q    Type
REMARK                         _______ _______ _______ _____ _____    ______ ____
ROOT
ATOM      1  N   UNL     1       8.185   9.216   9.972  0.00  0.00    -0.354 N 
ATOM      2  N   UNL     1       6.613   9.234  11.673  0.00  0.00    -0.372 N 
ATOM      3  N   UNL     1       7.501   7.227  11.005  0.00  0.00    -0.372 N 
ATOM      4  C   UNL     1       7.444   8.556  10.872  0.00  0.00    +0.166 C 
ATOM      5  H   UNL     1       8.073  10.221   9.901  0.00  0.00    +0.163 HD
ATOM      6  H   UNL     1       6.043   8.764  12.363  0.00  0.00    +0.159 HD
ATOM      7  H   UNL     1       6.537  10.243  11.630  0.00  0.00    +0.159 HD
ATOM      8  H   UNL     1       8.104   6.656  10.427  0.00  0.00    +0.159 HD
ATOM      9  H   UNL     1       6.930   6.737  11.682  0.00  0.00    +0.159 HD
ENDROOT
BRANCH   1  10
ATOM     10  C   UNL     1       9.160   8.578   9.090  0.00  0.00    +0.151 C 
BRANCH  10  11
ATOM     11  C   UNL     1       9.316   9.410   7.847  0.00  0.00    -0.028 A 
ATOM     12  C   UNL     1       9.243   8.816   6.579  0.00  0.00    +0.005 A 
ATOM     13  C   UNL     1       9.533  10.794   7.931  0.00  0.00    +0.005 A 
ATOM     14  C   UNL     1       9.358   9.593   5.423  0.00  0.00    +0.000 A 
ATOM     15  C   UNL     1       9.648  11.566   6.775  0.00  0.00    +0.000 A 
ATOM     16  C   UNL     1       9.558  10.966   5.522  0.00  0.00    +0.000 A 
ENDBRANCH  10  11
ENDBRANCH   1  10
TORSDOF 2
ENDMDL
MODEL 6
REMARK VINA RESULT:    -5.408     27.528     28.550
REMARK INTER + INTRA:          -6.197
REMARK INTER:                  -6.089
REMARK INTRA:                  -0.108
REMARK UNBOUND:                -0.157
REMARK  Name = 1550473
REMARK  2 active torsions:
REMARK  status: ('A' for Active; 'I' for Inactive)
REMARK    1  A    between atoms: N_1  and  C_4
REMARK    2  A    between atoms: C_4  and  C_5
REMARK                            x       y       z     vdW  Elec       q    Type
REMARK                         _______ _______ _______ _____ _____    ______ ____
ROOT
ATOM      1  N   UNL     1       9.457   8.558   9.270  0.00  0.00    -0.354 N 
ATOM      2  N   UNL     1      10.230   6.786  10.543  0.00  0.00    -0.372 N 
ATOM      3  N   UNL     1       7.971   7.173  10.438  0.00  0.00    -0.372 N 
ATOM      4  C   UNL     1       9.212   7.517  10.076  0.00  0.00    +0.166 C 
ATOM      5  H   UNL     1      10.421   8.786   9.057  0.00  0.00    +0.163 HD
ATOM      6  H   UNL     1      10.076   5.992  11.151  0.00  0.00    +0.159 HD
ATOM      7  H   UNL     1      11.190   6.987  10.292  0.00  0.00    +0.159 HD
ATOM      8  H   UNL     1       7.159   7.688  10.125  0.00  0.00    +0.159 HD
ATOM      9  H   UNL     1       7.797   6.390  11.055  0.00  0.00    +0.159 HD
ENDROOT
BRANCH   1  10
ATOM     10  C   UNL     1       8.416   9.386   8.664  0.00  0.00    +0.151 C 
BRANCH  10  11
ATOM     11  C   UNL     1       8.924   9.939   7.361  0.00  0.00    -0.028 A 
ATOM     12  C   UNL     1       9.242  11.300   7.241  0.00  0.00    +0.005 A 
ATOM     13  C   UNL     1       9.095   9.107   6.244  0.00  0.00    +0.005 A 
ATOM     14  C   UNL     1       9.743  11.808   6.040  0.00  0.00    +0.000 A 
ATOM     15  C   UNL     1       9.594   9.618   5.047  0.00  0.00    +0.000 A 
ATOM     16  C   UNL     1       9.920  10.969   4.945  0.00  0.00    +0.000 A 
ENDBRANCH  10  11
ENDBRANCH   1  10
TORSDOF 2
ENDMDL
MODEL 7
REMARK VINA RESULT:    -5.275     33.058     34.551
REMARK INTER + INTRA:          -6.048
REMARK INTER:                  -5.953
REMARK INTRA:                  -0.096
REMARK UNBOUND:                -0.157
REMARK  Name = 1550473
REMARK  2 active torsions:
REMARK  status: ('A' for Active; 'I' for Inactive)
REMARK    1  A    between atoms: N_1  and  C_4
REMARK    2  A    between atoms: C_4  and  C_5
REMARK                            x       y       z     vdW  Elec       q    Type
REMARK                         _______ _______ _______ _____ _____    ______ ____
ROOT
ATOM      1  N   UNL     1      20.695  11.290   6.182  0.00  0.00    -0.354 N 
ATOM      2  N   UNL     1      21.215   9.201   5.328  0.00  0.00    -0.372 N 
ATOM      3  N   UNL     1      20.771  10.917   3.870  0.00  0.00    -0.372 N 
ATOM      4  C   UNL     1      20.889  10.484   5.130  0.00  0.00    +0.166 C 
ATOM      5  H   UNL     1      20.770  10.894   7.112  0.00  0.00    +0.163 HD
ATOM      6  H   UNL     1      21.371   8.570   4.553  0.00  0.00    +0.159 HD
ATOM      7  H   UNL     1      21.335   8.819   6.258  0.00  0.00    +0.159 HD
ATOM      8  H   UNL     1      20.522  11.872   3.653  0.00  0.00    +0.159 HD
ATOM      9  H   UNL     1      20.912  10.297   3.082  0.00  0.00    +0.159 HD
ENDROOT
BRANCH   1  10
ATOM     10  C   UNL     1      20.390  12.716   6.075  0.00  0.00    +0.151 C 
BRANCH  10  11
ATOM     11  C   UNL     1      19.832  13.199   7.386  0.00  0.00    -0.028 A 
ATOM     12  C   UNL     1      20.655  13.860   8.309  0.00  0.00    +0.005 A 
ATOM     13  C   UNL     1      18.480  13.003   7.707  0.00  0.00    +0.005 A 
ATOM     14  C   UNL     1      20.130  14.336   9.513  0.00  0.00    +0.000 A 
ATOM     15  C   UNL     1      17.960  13.478   8.911  0.00  0.00    +0.000 A 
ATOM     16  C   UNL     1      18.785  14.147   9.813  0.00  0.00    +0.000 A 
ENDBRANCH  10  11
ENDBRANCH   1  10
TORSDOF 2
ENDMDL
MODEL 8
REMARK VINA RESULT:    -5.266      7.214      8.684
REMARK INTER + INTRA:          -6.039
REMARK INTER:                  -5.909
REMARK INTRA:                  -0.130
REMARK UNBOUND:                -0.157
REMARK  Name = 1550473
REMARK  2 active torsions:
REMARK  status: ('A' for Active; 'I' for Inactive)
REMARK    1  A    between atoms: N_1  and  C_4
REMARK    2  A    between atoms: C_4  and  C_5
REMARK                            x       y       z     vdW  Elec       q    Type
REMARK                         _______ _______ _______ _____ _____    ______ ____
ROOT
ATOM      1  N   UNL     1       0.881  -8.072  -3.539  0.00  0.00    -0.354 N 
ATOM      2  N   UNL     1       0.335  -8.273  -1.298  0.00  0.00    -0.372 N 
ATOM      3  N   UNL     1      -0.885  -6.841  -2.611  0.00  0.00    -0.372 N 
ATOM      4  C   UNL     1       0.112  -7.725  -2.498  0.00  0.00    +0.166 C 
ATOM      5  H   UNL     1       1.640  -8.724  -3.381  0.00  0.00    +0.163 HD
ATOM      6  H   UNL     1      -0.230  -8.034  -0.494  0.00  0.00    +0.159 HD
ATOM      7  H   UNL     1       1.065  -8.960  -1.153  0.00  0.00    +0.159 HD
ATOM      8  H   UNL     1      -1.101  -6.388  -3.489  0.00  0.00    +0.159 HD
ATOM      9  H   UNL     1      -1.455  -6.580  -1.817  0.00  0.00    +0.159 HD
ENDROOT
BRANCH   1  10
ATOM     10  C   UNL     1       0.687  -7.574  -4.900  0.00  0.00    +0.151 C 
BRANCH  10  11
ATOM     11  C   UNL     1       1.951  -6.902  -5.362  0.00  0.00    -0.028 A 
ATOM     12  C   UNL     1       2.177  -6.673  -6.727  0.00  0.00    +0.005 A 
ATOM     13  C   UNL     1       2.923  -6.487  -4.439  0.00  0.00    +0.005 A 
ATOM     14  C   UNL     1       3.337  -6.022  -7.155  0.00  0.00    +0.000 A 
ATOM     15  C   UNL     1       4.080  -5.838  -4.870  0.00  0.00    +0.000 A 
ATOM     16  C   UNL     1       4.285  -5.603  -6.227  0.00  0.00    +0.000 A 
ENDBRANCH  10  11
ENDBRANCH   1  10
TORSDOF 2
ENDMDL
MODEL 9
REMARK VINA RESULT:    -5.143      1.521      2.056
REMARK INTER + INTRA:          -5.901
REMARK INTER:                  -5.738
REMARK INTRA:                  -0.163
REMARK UNBOUND:                -0.157
REMARK  Name = 1550473
REMARK  2 active torsions:
REMARK  status: ('A' for Active; 'I' for Inactive)
REMARK    1  A    between atoms: N_1  and  C_4
REMARK    2  A    between atoms: C_4  and  C_5
REMARK                            x       y       z     vdW  Elec       q    Type
REMARK                         _______ _______ _______ _____ _____    ______ ____
ROOT
ATOM      1  N   UNL     1       2.383 -10.755  -9.636  0.00  0.00    -0.354 N 
ATOM      2  N   UNL     1       3.564 -12.708 -10.029  0.00  0.00    -0.372 N 
ATOM      3  N   UNL     1       1.272 -12.762 -10.113  0.00  0.00    -0.372 N 
ATOM      4  C   UNL     1       2.396 -12.063  -9.923  0.00  0.00    +0.166 C 
ATOM      5  H   UNL     1       3.268 -10.289  -9.474  0.00  0.00    +0.163 HD
ATOM      6  H   UNL     1       3.606 -13.694 -10.248  0.00  0.00    +0.159 HD
ATOM      7  H   UNL     1       4.449 -12.229  -9.911  0.00  0.00    +0.159 HD
ATOM      8  H   UNL     1       0.358 -12.336 -10.042  0.00  0.00    +0.159 HD
ATOM      9  H   UNL     1       1.292 -13.753 -10.321  0.00  0.00    +0.159 HD
ENDROOT
BRANCH   1  10
ATOM     10  C   UNL     1       1.166  -9.948  -9.553  0.00  0.00    +0.151 C 
BRANCH  10  11
ATOM     11  C   UNL     1       1.142  -8.976 -10.700  0.00  0.00    -0.028 A 
ATOM     12  C   UNL     1       0.815  -9.409 -11.993  0.00  0.00    +0.005 A 
ATOM     13  C   UNL     1       1.439  -7.619 -10.498  0.00  0.00    +0.005 A 
ATOM     14  C   UNL     1       0.763  -8.500 -13.053  0.00  0.00    +0.000 A 
ATOM     15  C   UNL     1       1.387  -6.716 -11.559  0.00  0.00    +0.000 A 
ATOM     16  C   UNL     1       1.046  -7.156 -12.836  0.00  0.00    +0.000 A 
ENDBRANCH  10  11
ENDBRANCH   1  10
TORSDOF 2
ENDMDL
