MODEL 1
REMARK VINA RESULT:    -5.249      0.000      0.000
REMARK INTER + INTRA:          -6.037
REMARK INTER:                  -5.863
REMARK INTRA:                  -0.174
REMARK UNBOUND:                -0.174
REMARK  Name = 1550473
REMARK  2 active torsions:
REMARK  status: ('A' for Active; 'I' for Inactive)
REMARK    1  A    between atoms: N_1  and  C_4
REMARK    2  A    between atoms: C_4  and  C_5
REMARK                            x       y       z     vdW  Elec       q    Type
REMARK                         _______ _______ _______ _____ _____    ______ ____
ROOT
ATOM      1  N   UNL     1       3.169   4.037  -4.887  0.00  0.00    -0.354 N 
ATOM      2  N   UNL     1       1.521   5.662  -4.795  0.00  0.00    -0.372 N 
ATOM      3  N   UNL     1       1.110   3.730  -5.963  0.00  0.00    -0.372 N 
ATOM      4  C   UNL     1       1.943   4.464  -5.217  0.00  0.00    +0.166 C 
ATOM      5  H   UNL     1       3.764   4.654  -4.345  0.00  0.00    +0.163 HD
ATOM      6  H   UNL     1       0.600   6.009  -5.025  0.00  0.00    +0.159 HD
ATOM      7  H   UNL     1       2.100   6.256  -4.214  0.00  0.00    +0.159 HD
ATOM      8  H   UNL     1       1.370   2.820  -6.318  0.00  0.00    +0.159 HD
ATOM      9  H   UNL     1       0.188   4.065  -6.214  0.00  0.00    +0.159 HD
ENDROOT
BRANCH   1  10
ATOM     10  C   UNL     1       3.705   2.727  -5.252  0.00  0.00    +0.151 C 
BRANCH  10  11
ATOM     11  C   UNL     1       4.670   2.890  -6.393  0.00  0.00    -0.028 A 
ATOM     12  C   UNL     1       4.216   2.853  -7.720  0.00  0.00    +0.005 A 
ATOM     13  C   UNL     1       6.038   3.089  -6.155  0.00  0.00    +0.005 A 
ATOM     14  C   UNL     1       5.107   3.035  -8.780  0.00  0.00    +0.000 A 
ATOM     15  C   UNL     1       6.925   3.269  -7.217  0.00  0.00    +0.000 A 
ATOM     16  C   UNL     1       6.459   3.244  -8.529  0.00  0.00    +0.000 A 
ENDBRANCH  10  11
ENDBRANCH   1  10
TORSDOF 2
ENDMDL
MODEL 2
REMARK VINA RESULT:    -5.210      1.736      2.526
REMARK INTER + INTRA:          -5.992
REMARK INTER:                  -5.844
REMARK INTRA:                  -0.148
REMARK UNBOUND:                -0.174
REMARK  Name = 1550473
REMARK  2 active torsions:
REMARK  status: ('A' for Active; 'I' for Inactive)
REMARK    1  A    between atoms: N_1  and  C_4
REMARK    2  A    between atoms: C_4  and  C_5
REMARK                            x       y       z     vdW  Elec       q    Type
REMARK                         _______ _______ _______ _____ _____    ______ ____
ROOT
ATOM      1  N   UNL     1       4.669   1.856  -5.791  0.00  0.00    -0.354 N 
ATOM      2  N   UNL     1       2.913   0.460  -5.214  0.00  0.00    -0.372 N 
ATOM      3  N   UNL     1       2.519   2.711  -5.419  0.00  0.00    -0.372 N 
ATOM      4  C   UNL     1       3.377   1.687  -5.478  0.00  0.00    +0.166 C 
ATOM      5  H   UNL     1       5.274   1.043  -5.789  0.00  0.00    +0.163 HD
ATOM      6  H   UNL     1       1.942   0.302  -4.979  0.00  0.00    +0.159 HD
ATOM      7  H   UNL     1       3.510  -0.356  -5.258  0.00  0.00    +0.159 HD
ATOM      8  H   UNL     1       2.807   3.663  -5.602  0.00  0.00    +0.159 HD
ATOM      9  H   UNL     1       1.546   2.574  -5.174  0.00  0.00    +0.159 HD
ENDROOT
BRANCH   1  10
ATOM     10  C   UNL     1       5.262   3.143  -6.148  0.00  0.00    +0.151 C 
BRANCH  10  11
ATOM     11  C   UNL     1       5.835   3.052  -7.536  0.00  0.00    -0.028 A 
ATOM     12  C   UNL     1       5.007   2.763  -8.630  0.00  0.00    +0.005 A 
ATOM     13  C   UNL     1       7.204   3.258  -7.764  0.00  0.00    +0.005 A 
ATOM     14  C   UNL     1       5.533   2.708  -9.923  0.00  0.00    +0.000 A 
ATOM     15  C   UNL     1       7.726   3.201  -9.056  0.00  0.00    +0.000 A 
ATOM     16  C   UNL     1       6.889   2.928 -10.136  0.00  0.00    +0.000 A 
ENDBRANCH  10  11
ENDBRANCH   1  10
TORSDOF 2
ENDMDL
MODEL 3
REMARK VINA RESULT:    -5.164     22.175     23.381
REMARK INTER + INTRA:          -5.942
REMARK INTER:                  -5.790
REMARK INTRA:                  -0.151
REMARK UNBOUND:                -0.174
REMARK  Name = 1550473
REMARK  2 active torsions:
REMARK  status: ('A' for Active; 'I' for Inactive)
REMARK    1  A    between atoms: N_1  and  C_4
REMARK    2  A    between atoms: C_4  and  C_5
REMARK                            x       y       z     vdW  Elec       q    Type
REMARK                         _______ _______ _______ _____ _____    ______ ____
ROOT
ATOM      1  N   UNL     1       3.524 -13.394 -19.793  0.00  0.00    -0.354 N 
ATOM      2  N   UNL     1       4.071 -13.083 -17.564  0.00  0.00    -0.372 N 
ATOM      3  N   UNL     1       5.500 -12.295 -19.177  0.00  0.00    -0.372 N 
ATOM      4  C   UNL     1       4.364 -12.925 -18.860  0.00  0.00    +0.166 C 
ATOM      5  H   UNL     1       2.694 -13.889 -19.487  0.00  0.00    +0.163 HD
ATOM      6  H   UNL     1       4.684 -12.737 -16.838  0.00  0.00    +0.159 HD
ATOM      7  H   UNL     1       3.218 -13.538 -17.262  0.00  0.00    +0.159 HD
ATOM      8  H   UNL     1       5.781 -12.148 -20.137  0.00  0.00    +0.159 HD
ATOM      9  H   UNL     1       6.132 -11.951 -18.465  0.00  0.00    +0.159 HD
ENDROOT
BRANCH   1  10
ATOM     10  C   UNL     1       3.722 -13.226 -21.231  0.00  0.00    +0.151 C 
BRANCH  10  11
ATOM     11  C   UNL     1       4.044 -14.562 -21.842  0.00  0.00    -0.028 A 
ATOM     12  C   UNL     1       3.697 -15.749 -21.180  0.00  0.00    +0.005 A 
ATOM     13  C   UNL     1       4.691 -14.647 -23.084  0.00  0.00    +0.005 A 
ATOM     14  C   UNL     1       3.969 -16.990 -21.761  0.00  0.00    +0.000 A 
ATOM     15  C   UNL     1       4.961 -15.888 -23.660  0.00  0.00    +0.000 A 
ATOM     16  C   UNL     1       4.598 -17.059 -23.000  0.00  0.00    +0.000 A 
ENDBRANCH  10  11
ENDBRANCH   1  10
TORSDOF 2
ENDMDL
MODEL 4
REMARK VINA RESULT:    -5.103     19.879     20.771
REMARK INTER + INTRA:          -5.873
REMARK INTER:                  -5.712
REMARK INTRA:                  -0.160
REMARK UNBOUND:                -0.174
REMARK  Name = 1550473
REMARK  2 active torsions:
REMARK  status: ('A' for Active; 'I' for Inactive)
REMARK    1  A    between atoms: N_1  and  C_4
REMARK    2  A    between atoms: C_4  and  C_5
REMARK                            x       y       z     vdW  Elec       q    Type
REMARK                         _______ _______ _______ _____ _____    ______ ____
ROOT
ATOM      1  N   UNL     1      11.816 -13.718 -11.855  0.00  0.00    -0.354 N 
ATOM      2  N   UNL     1      11.549 -14.338 -14.070  0.00  0.00    -0.372 N 
ATOM      3  N   UNL     1      11.678 -15.976 -12.468  0.00  0.00    -0.372 N 
ATOM      4  C   UNL     1      11.683 -14.676 -12.782  0.00  0.00    +0.166 C 
ATOM      5  H   UNL     1      11.843 -12.752 -12.161  0.00  0.00    +0.163 HD
ATOM      6  H   UNL     1      11.443 -15.039 -14.791  0.00  0.00    +0.159 HD
ATOM      7  H   UNL     1      11.530 -13.371 -14.368  0.00  0.00    +0.159 HD
ATOM      8  H   UNL     1      11.781 -16.297 -11.514  0.00  0.00    +0.159 HD
ATOM      9  H   UNL     1      11.585 -16.692 -13.177  0.00  0.00    +0.159 HD
ENDROOT
BRANCH   1  10
ATOM     10  C   UNL     1      11.915 -13.978 -10.419  0.00  0.00    +0.151 C 
BRANCH  10  11
ATOM     11  C   UNL     1      13.364 -13.964 -10.016  0.00  0.00    -0.028 A 
ATOM     12  C   UNL     1      14.009 -12.754  -9.722  0.00  0.00    +0.005 A 
ATOM     13  C   UNL     1      14.095 -15.158  -9.920  0.00  0.00    +0.005 A 
ATOM     14  C   UNL     1      15.347 -12.743  -9.318  0.00  0.00    +0.000 A 
ATOM     15  C   UNL     1      15.430 -15.143  -9.518  0.00  0.00    +0.000 A 
ATOM     16  C   UNL     1      16.055 -13.936  -9.214  0.00  0.00    +0.000 A 
ENDBRANCH  10  11
ENDBRANCH   1  10
TORSDOF 2
ENDMDL
MODEL 5
REMARK VINA RESULT:    -5.074     20.495     21.543
REMARK INTER + INTRA:          -5.841
REMARK INTER:                  -5.718
REMARK INTRA:                  -0.122
REMARK UNBOUND:                -0.174
REMARK  Name = 1550473
REMARK  2 active torsions:
REMARK  status: ('A' for Active; 'I' for Inactive)
REMARK    1  A    between atoms: N_1  and  C_4
REMARK    2  A    between atoms: C_4  and  C_5
REMARK                            x       y       z     vdW  Elec       q    Type
REMARK                         _______ _______ _______ _____ _____    ______ ____
ROOT
ATOM      1  N   UNL     1      -9.962 -10.656 -14.153  0.00  0.00    -0.354 N 
ATOM      2  N   UNL     1     -10.155  -9.026 -15.786  0.00  0.00    -0.372 N 
ATOM      3  N   UNL     1     -11.516 -10.869 -15.894  0.00  0.00    -0.372 N 
ATOM      4  C   UNL     1     -10.545 -10.196 -15.268  0.00  0.00    +0.166 C 
ATOM      5  H   UNL     1      -9.211 -10.113 -13.743  0.00  0.00    +0.163 HD
ATOM      6  H   UNL     1     -10.578  -8.651 -16.625  0.00  0.00    +0.159 HD
ATOM      7  H   UNL     1      -9.435  -8.463 -15.349  0.00  0.00    +0.159 HD
ATOM      8  H   UNL     1     -11.852 -11.762 -15.557  0.00  0.00    +0.159 HD
ATOM      9  H   UNL     1     -11.945 -10.517 -16.741  0.00  0.00    +0.159 HD
ENDROOT
BRANCH   1  10
ATOM     10  C   UNL     1     -10.351 -11.893 -13.478  0.00  0.00    +0.151 C 
BRANCH  10  11
ATOM     11  C   UNL     1      -9.379 -12.171 -12.364  0.00  0.00    -0.028 A 
ATOM     12  C   UNL     1      -9.666 -13.144 -11.395  0.00  0.00    +0.005 A 
ATOM     13  C   UNL     1      -8.167 -11.470 -12.276  0.00  0.00    +0.005 A 
ATOM     14  C   UNL     1      -8.751 -13.423 -10.377  0.00  0.00    +0.000 A 
ATOM     15  C   UNL     1      -7.256 -11.751 -11.258  0.00  0.00    +0.000 A 
ATOM     16  C   UNL     1      -7.547 -12.730 -10.311  0.00  0.00    +0.000 A 
ENDBRANCH  10  11
ENDBRANCH   1  10
TORSDOF 2
ENDMDL
MODEL 6
REMARK VINA RESULT:    -5.025      3.961      6.443
REMARK INTER + INTRA:          -5.786
REMARK INTER:                  -5.625
REMARK INTRA:                  -0.161
REMARK UNBOUND:                -0.174
REMARK  Name = 1550473
REMARK  2 active torsions:
REMARK  status: ('A' for Active; 'I' for Inactive)
REMARK    1  A    between atoms: N_1  and  C_4
REMARK    2  A    between atoms: C_4  and  C_5
REMARK                            x       y       z     vdW  Elec       q    Type
REMARK                         _______ _______ _______ _____ _____    ______ ____
ROOT
ATOM      1  N   UNL     1       2.328   2.540  -4.673  0.00  0.00    -0.354 N 
ATOM      2  N   UNL     1       2.715   1.980  -6.887  0.00  0.00    -0.372 N 
ATOM      3  N   UNL     1       4.143   1.185  -5.277  0.00  0.00    -0.372 N 
ATOM      4  C   UNL     1       3.062   1.904  -5.597  0.00  0.00    +0.166 C 
ATOM      5  H   UNL     1       1.538   3.093  -4.984  0.00  0.00    +0.163 HD
ATOM      6  H   UNL     1       3.247   1.509  -7.606  0.00  0.00    +0.159 HD
ATOM      7  H   UNL     1       1.898   2.496  -7.190  0.00  0.00    +0.159 HD
ATOM      8  H   UNL     1       4.461   1.093  -4.321  0.00  0.00    +0.159 HD
ATOM      9  H   UNL     1       4.695   0.715  -5.983  0.00  0.00    +0.159 HD
ENDROOT
BRANCH   1  10
ATOM     10  C   UNL     1       2.589   2.477  -3.236  0.00  0.00    +0.151 C 
BRANCH  10  11
ATOM     11  C   UNL     1       1.431   1.799  -2.556  0.00  0.00    -0.028 A 
ATOM     12  C   UNL     1       1.340   0.400  -2.532  0.00  0.00    +0.005 A 
ATOM     13  C   UNL     1       0.426   2.551  -1.930  0.00  0.00    +0.005 A 
ATOM     14  C   UNL     1       0.281  -0.231  -1.874  0.00  0.00    +0.000 A 
ATOM     15  C   UNL     1      -0.631   1.917  -1.275  0.00  0.00    +0.000 A 
ATOM     16  C   UNL     1      -0.701   0.527  -1.245  0.00  0.00    +0.000 A 
ENDBRANCH  10  11
ENDBRANCH   1  10
TORSDOF 2
ENDMDL
MODEL 7
REMARK VINA RESULT:    -4.975      1.684      2.655
REMARK INTER + INTRA:          -5.730
REMARK INTER:                  -5.612
REMARK INTRA:                  -0.119
REMARK UNBOUND:                -0.174
REMARK  Name = 1550473
REMARK  2 active torsions:
REMARK  status: ('A' for Active; 'I' for Inactive)
REMARK    1  A    between atoms: N_1  and  C_4
REMARK    2  A    between atoms: C_4  and  C_5
REMARK                            x       y       z     vdW  Elec       q    Type
REMARK                         _______ _______ _______ _____ _____    ______ ____
ROOT
ATOM      1  N   UNL     1       4.240   1.988  -5.182  0.00  0.00    -0.354 N 
ATOM      2  N   UNL     1       2.767   0.410  -4.343  0.00  0.00    -0.372 N 
ATOM      3  N   UNL     1       2.085   2.596  -4.492  0.00  0.00    -0.372 N 
ATOM      4  C   UNL     1       3.039   1.678  -4.677  0.00  0.00    +0.166 C 
ATOM      5  H   UNL     1       4.930   1.251  -5.270  0.00  0.00    +0.163 HD
ATOM      6  H   UNL     1       1.868   0.145  -3.963  0.00  0.00    +0.159 HD
ATOM      7  H   UNL     1       3.443  -0.332  -4.475  0.00  0.00    +0.159 HD
ATOM      8  H   UNL     1       2.229   3.571  -4.718  0.00  0.00    +0.159 HD
ATOM      9  H   UNL     1       1.183   2.352  -4.102  0.00  0.00    +0.159 HD
ENDROOT
BRANCH   1  10
ATOM     10  C   UNL     1       4.618   3.328  -5.628  0.00  0.00    +0.151 C 
BRANCH  10  11
ATOM     11  C   UNL     1       5.361   3.221  -6.931  0.00  0.00    -0.028 A 
ATOM     12  C   UNL     1       6.763   3.248  -6.956  0.00  0.00    +0.005 A 
ATOM     13  C   UNL     1       4.668   3.086  -8.144  0.00  0.00    +0.005 A 
ATOM     14  C   UNL     1       7.453   3.118  -8.164  0.00  0.00    +0.000 A 
ATOM     15  C   UNL     1       5.361   2.958  -9.348  0.00  0.00    +0.000 A 
ATOM     16  C   UNL     1       6.754   2.971  -9.357  0.00  0.00    +0.000 A 
ENDBRANCH  10  11
ENDBRANCH   1  10
TORSDOF 2
ENDMDL
MODEL 8
REMARK VINA RESULT:    -4.919      2.042      2.495
REMARK INTER + INTRA:          -5.668
REMARK INTER:                  -5.528
REMARK INTRA:                  -0.140
REMARK UNBOUND:                -0.174
REMARK  Name = 1550473
REMARK  2 active torsions:
REMARK  status: ('A' for Active; 'I' for Inactive)
REMARK    1  A    between atoms: N_1  and  C_4
REMARK    2  A    between atoms: C_4  and  C_5
REMARK                            x       y       z     vdW  Elec       q    Type
REMARK                         _______ _______ _______ _____ _____    ______ ____
ROOT
ATOM      1  N   UNL     1       1.697   3.224  -4.138  0.00  0.00    -0.354 N 
ATOM      2  N   UNL     1       0.306   1.785  -2.972  0.00  0.00    -0.372 N 
ATOM      3  N   UNL     1       2.171   2.617  -1.925  0.00  0.00    -0.372 N 
ATOM      4  C   UNL     1       1.403   2.552  -3.017  0.00  0.00    +0.166 C 
ATOM      5  H   UNL     1       1.090   3.109  -4.942  0.00  0.00    +0.163 HD
ATOM      6  H   UNL     1       0.057   1.269  -2.139  0.00  0.00    +0.159 HD
ATOM      7  H   UNL     1      -0.323   1.708  -3.761  0.00  0.00    +0.159 HD
ATOM      8  H   UNL     1       3.015   3.173  -1.896  0.00  0.00    +0.159 HD
ATOM      9  H   UNL     1       1.944   2.098  -1.086  0.00  0.00    +0.159 HD
ENDROOT
BRANCH   1  10
ATOM     10  C   UNL     1       2.838   4.128  -4.274  0.00  0.00    +0.151 C 
BRANCH  10  11
ATOM     11  C   UNL     1       3.683   3.681  -5.435  0.00  0.00    -0.028 A 
ATOM     12  C   UNL     1       3.087   3.135  -6.581  0.00  0.00    +0.005 A 
ATOM     13  C   UNL     1       5.080   3.807  -5.397  0.00  0.00    +0.005 A 
ATOM     14  C   UNL     1       3.869   2.748  -7.671  0.00  0.00    +0.000 A 
ATOM     15  C   UNL     1       5.858   3.419  -6.488  0.00  0.00    +0.000 A 
ATOM     16  C   UNL     1       5.252   2.891  -7.626  0.00  0.00    +0.000 A 
ENDBRANCH  10  11
ENDBRANCH   1  10
TORSDOF 2
ENDMDL
MODEL 9
REMARK VINA RESULT:    -4.909      3.986      6.156
REMARK INTER + INTRA:          -5.656
REMARK INTER:                  -5.517
REMARK INTRA:                  -0.139
REMARK UNBOUND:                -0.174
REMARK  Name = 1550473
REMARK  2 active torsions:
REMARK  status: ('A' for Active; 'I' for Inactive)
REMARK    1  A    between atoms: N_1  and  C_4
REMARK    2  A    between atoms: C_4  and  C_5
REMARK                            x       y       z     vdW  Elec       q    Type
REMARK                         _______ _______ _______ _____ _____    ______ ____
ROOT
ATOM      1  N   UNL     1       1.609   3.440  -4.211  0.00  0.00    -0.354 N 
ATOM      2  N   UNL     1       1.288   5.653  -4.815  0.00  0.00    -0.372 N 
ATOM      3  N   UNL     1       3.153   5.094  -3.600  0.00  0.00    -0.372 N 
ATOM      4  C   UNL     1       2.021   4.715  -4.203  0.00  0.00    +0.166 C 
ATOM      5  H   UNL     1       0.727   3.222  -4.659  0.00  0.00    +0.163 HD
ATOM      6  H   UNL     1       1.576   6.622  -4.829  0.00  0.00    +0.159 HD
ATOM      7  H   UNL     1       0.430   5.425  -5.302  0.00  0.00    +0.159 HD
ATOM      8  H   UNL     1       3.748   4.435  -3.116  0.00  0.00    +0.159 HD
ATOM      9  H   UNL     1       3.452   6.061  -3.593  0.00  0.00    +0.159 HD
ENDROOT
BRANCH   1  10
ATOM     10  C   UNL     1       2.361   2.334  -3.620  0.00  0.00    +0.151 C 
BRANCH  10  11
ATOM     11  C   UNL     1       1.443   1.531  -2.740  0.00  0.00    -0.028 A 
ATOM     12  C   UNL     1       0.321   2.129  -2.148  0.00  0.00    +0.005 A 
ATOM     13  C   UNL     1       1.687   0.170  -2.499  0.00  0.00    +0.005 A 
ATOM     14  C   UNL     1      -0.548   1.376  -1.355  0.00  0.00    +0.000 A 
ATOM     15  C   UNL     1       0.817  -0.577  -1.706  0.00  0.00    +0.000 A 
ATOM     16  C   UNL     1      -0.302   0.025  -1.136  0.00  0.00    +0.000 A 
ENDBRANCH  10  11
ENDBRANCH   1  10
TORSDOF 2
ENDMDL
