MODEL 1
REMARK VINA RESULT:    -4.774      0.000      0.000
REMARK INTER + INTRA:          -5.430
REMARK INTER:                  -5.332
REMARK INTRA:                  -0.098
REMARK UNBOUND:                -0.098
REMARK  Name = 1550473
REMARK  2 active torsions:
REMARK  status: ('A' for Active; 'I' for Inactive)
REMARK    1  A    between atoms: N_1  and  C_4
REMARK    2  A    between atoms: C_4  and  C_5
REMARK                            x       y       z     vdW  Elec       q    Type
REMARK                         _______ _______ _______ _____ _____    ______ ____
ROOT
ATOM      1  N   UNL     1      13.738   4.558   0.366  0.00  0.00    -0.354 N 
ATOM      2  N   UNL     1      13.177   6.765   0.792  0.00  0.00    -0.372 N 
ATOM      3  N   UNL     1      15.306   6.050   1.264  0.00  0.00    -0.372 N 
ATOM      4  C   UNL     1      14.080   5.777   0.806  0.00  0.00    +0.166 C 
ATOM      5  H   UNL     1      12.784   4.408   0.059  0.00  0.00    +0.163 HD
ATOM      6  H   UNL     1      13.407   7.695   1.115  0.00  0.00    +0.159 HD
ATOM      7  H   UNL     1      12.237   6.623   0.443  0.00  0.00    +0.159 HD
ATOM      8  H   UNL     1      16.032   5.347   1.305  0.00  0.00    +0.159 HD
ATOM      9  H   UNL     1      15.552   6.973   1.602  0.00  0.00    +0.159 HD
ENDROOT
BRANCH   1  10
ATOM     10  C   UNL     1      14.662   3.428   0.288  0.00  0.00    +0.151 C 
BRANCH  10  11
ATOM     11  C   UNL     1      13.927   2.230  -0.247  0.00  0.00    -0.028 A 
ATOM     12  C   UNL     1      13.387   2.245  -1.541  0.00  0.00    +0.005 A 
ATOM     13  C   UNL     1      13.773   1.073   0.534  0.00  0.00    +0.005 A 
ATOM     14  C   UNL     1      12.731   1.121  -2.049  0.00  0.00    +0.000 A 
ATOM     15  C   UNL     1      13.117  -0.046   0.023  0.00  0.00    +0.000 A 
ATOM     16  C   UNL     1      12.598  -0.023  -1.270  0.00  0.00    +0.000 A 
ENDBRANCH  10  11
ENDBRANCH   1  10
TORSDOF 2
ENDMDL
MODEL 2
REMARK VINA RESULT:    -4.685      2.903      3.604
REMARK INTER + INTRA:          -5.331
REMARK INTER:                  -5.228
REMARK INTRA:                  -0.102
REMARK UNBOUND:                -0.098
REMARK  Name = 1550473
REMARK  2 active torsions:
REMARK  status: ('A' for Active; 'I' for Inactive)
REMARK    1  A    between atoms: N_1  and  C_4
REMARK    2  A    between atoms: C_4  and  C_5
REMARK                            x       y       z     vdW  Elec       q    Type
REMARK                         _______ _______ _______ _____ _____    ______ ____
ROOT
ATOM      1  N   UNL     1      15.286   0.886   0.236  0.00  0.00    -0.354 N 
ATOM      2  N   UNL     1      17.468   0.777   1.006  0.00  0.00    -0.372 N 
ATOM      3  N   UNL     1      15.975   2.139   2.093  0.00  0.00    -0.372 N 
ATOM      4  C   UNL     1      16.228   1.270   1.108  0.00  0.00    +0.166 C 
ATOM      5  H   UNL     1      15.549   0.247  -0.506  0.00  0.00    +0.163 HD
ATOM      6  H   UNL     1      18.199   1.045   1.652  0.00  0.00    +0.159 HD
ATOM      7  H   UNL     1      17.716   0.103   0.292  0.00  0.00    +0.159 HD
ATOM      8  H   UNL     1      15.062   2.553   2.221  0.00  0.00    +0.159 HD
ATOM      9  H   UNL     1      16.696   2.429   2.742  0.00  0.00    +0.159 HD
ENDROOT
BRANCH   1  10
ATOM     10  C   UNL     1      13.893   1.323   0.293  0.00  0.00    +0.151 C 
BRANCH  10  11
ATOM     11  C   UNL     1      13.026   0.286  -0.368  0.00  0.00    -0.028 A 
ATOM     12  C   UNL     1      12.547   0.485  -1.671  0.00  0.00    +0.005 A 
ATOM     13  C   UNL     1      12.685  -0.899   0.302  0.00  0.00    +0.005 A 
ATOM     14  C   UNL     1      11.767  -0.491  -2.297  0.00  0.00    +0.000 A 
ATOM     15  C   UNL     1      11.905  -1.870  -0.326  0.00  0.00    +0.000 A 
ATOM     16  C   UNL     1      11.448  -1.667  -1.626  0.00  0.00    +0.000 A 
ENDBRANCH  10  11
ENDBRANCH   1  10
TORSDOF 2
ENDMDL
MODEL 3
REMARK VINA RESULT:    -4.658      1.454      2.456
REMARK INTER + INTRA:          -5.300
REMARK INTER:                  -5.171
REMARK INTRA:                  -0.129
REMARK UNBOUND:                -0.098
REMARK  Name = 1550473
REMARK  2 active torsions:
REMARK  status: ('A' for Active; 'I' for Inactive)
REMARK    1  A    between atoms: N_1  and  C_4
REMARK    2  A    between atoms: C_4  and  C_5
REMARK                            x       y       z     vdW  Elec       q    Type
REMARK                         _______ _______ _______ _____ _____    ______ ____
ROOT
ATOM      1  N   UNL     1      14.643   2.338  -0.386  0.00  0.00    -0.354 N 
ATOM      2  N   UNL     1      15.817   3.515   1.227  0.00  0.00    -0.372 N 
ATOM      3  N   UNL     1      13.810   4.346   0.488  0.00  0.00    -0.372 N 
ATOM      4  C   UNL     1      14.747   3.394   0.432  0.00  0.00    +0.166 C 
ATOM      5  H   UNL     1      15.402   1.666  -0.403  0.00  0.00    +0.163 HD
ATOM      6  H   UNL     1      15.921   4.299   1.857  0.00  0.00    +0.159 HD
ATOM      7  H   UNL     1      16.552   2.818   1.241  0.00  0.00    +0.159 HD
ATOM      8  H   UNL     1      12.981   4.316  -0.090  0.00  0.00    +0.159 HD
ATOM      9  H   UNL     1      13.902   5.144   1.104  0.00  0.00    +0.159 HD
ENDROOT
BRANCH   1  10
ATOM     10  C   UNL     1      13.493   2.084  -1.252  0.00  0.00    +0.151 C 
BRANCH  10  11
ATOM     11  C   UNL     1      12.937   0.721  -0.943  0.00  0.00    -0.028 A 
ATOM     12  C   UNL     1      12.234   0.001  -1.920  0.00  0.00    +0.005 A 
ATOM     13  C   UNL     1      13.115   0.142   0.323  0.00  0.00    +0.005 A 
ATOM     14  C   UNL     1      11.743  -1.277  -1.643  0.00  0.00    +0.000 A 
ATOM     15  C   UNL     1      12.622  -1.134   0.596  0.00  0.00    +0.000 A 
ATOM     16  C   UNL     1      11.938  -1.844  -0.388  0.00  0.00    +0.000 A 
ENDBRANCH  10  11
ENDBRANCH   1  10
TORSDOF 2
ENDMDL
MODEL 4
REMARK VINA RESULT:    -4.600      5.487      6.730
REMARK INTER + INTRA:          -5.236
REMARK INTER:                  -5.057
REMARK INTRA:                  -0.179
REMARK UNBOUND:                -0.098
REMARK  Name = 1550473
REMARK  2 active torsions:
REMARK  status: ('A' for Active; 'I' for Inactive)
REMARK    1  A    between atoms: N_1  and  C_4
REMARK    2  A    between atoms: C_4  and  C_5
REMARK                            x       y       z     vdW  Elec       q    Type
REMARK                         _______ _______ _______ _____ _____    ______ ____
ROOT
ATOM      1  N   UNL     1      11.929  -2.770  -2.780  0.00  0.00    -0.354 N 
ATOM      2  N   UNL     1      12.094  -1.521  -4.724  0.00  0.00    -0.372 N 
ATOM      3  N   UNL     1      10.642  -0.836  -3.084  0.00  0.00    -0.372 N 
ATOM      4  C   UNL     1      11.552  -1.716  -3.515  0.00  0.00    +0.166 C 
ATOM      5  H   UNL     1      12.602  -3.417  -3.176  0.00  0.00    +0.163 HD
ATOM      6  H   UNL     1      11.831  -0.733  -5.300  0.00  0.00    +0.159 HD
ATOM      7  H   UNL     1      12.799  -2.144  -5.098  0.00  0.00    +0.159 HD
ATOM      8  H   UNL     1      10.191  -0.930  -2.184  0.00  0.00    +0.159 HD
ATOM      9  H   UNL     1      10.357  -0.047  -3.651  0.00  0.00    +0.159 HD
ENDROOT
BRANCH   1  10
ATOM     10  C   UNL     1      11.440  -3.043  -1.430  0.00  0.00    +0.151 C 
BRANCH  10  11
ATOM     11  C   UNL     1      12.442  -2.532  -0.432  0.00  0.00    -0.028 A 
ATOM     12  C   UNL     1      13.576  -3.291  -0.109  0.00  0.00    +0.005 A 
ATOM     13  C   UNL     1      12.265  -1.286   0.191  0.00  0.00    +0.005 A 
ATOM     14  C   UNL     1      14.522  -2.803   0.796  0.00  0.00    +0.000 A 
ATOM     15  C   UNL     1      13.211  -0.803   1.094  0.00  0.00    +0.000 A 
ATOM     16  C   UNL     1      14.341  -1.561   1.395  0.00  0.00    +0.000 A 
ENDBRANCH  10  11
ENDBRANCH   1  10
TORSDOF 2
ENDMDL
MODEL 5
REMARK VINA RESULT:    -4.576      1.172      2.120
REMARK INTER + INTRA:          -5.209
REMARK INTER:                  -5.098
REMARK INTRA:                  -0.111
REMARK UNBOUND:                -0.098
REMARK  Name = 1550473
REMARK  2 active torsions:
REMARK  status: ('A' for Active; 'I' for Inactive)
REMARK    1  A    between atoms: N_1  and  C_4
REMARK    2  A    between atoms: C_4  and  C_5
REMARK                            x       y       z     vdW  Elec       q    Type
REMARK                         _______ _______ _______ _____ _____    ______ ____
ROOT
ATOM      1  N   UNL     1      13.782   4.561   0.449  0.00  0.00    -0.354 N 
ATOM      2  N   UNL     1      12.755   6.481   1.239  0.00  0.00    -0.372 N 
ATOM      3  N   UNL     1      15.047   6.385   1.200  0.00  0.00    -0.372 N 
ATOM      4  C   UNL     1      13.871   5.797   0.958  0.00  0.00    +0.166 C 
ATOM      5  H   UNL     1      12.861   4.160   0.317  0.00  0.00    +0.163 HD
ATOM      6  H   UNL     1      12.790   7.416   1.621  0.00  0.00    +0.159 HD
ATOM      7  H   UNL     1      11.835   6.095   1.064  0.00  0.00    +0.159 HD
ATOM      8  H   UNL     1      15.926   5.921   1.015  0.00  0.00    +0.159 HD
ATOM      9  H   UNL     1      15.103   7.317   1.593  0.00  0.00    +0.159 HD
ENDROOT
BRANCH   1  10
ATOM     10  C   UNL     1      14.936   3.753   0.058  0.00  0.00    +0.151 C 
BRANCH  10  11
ATOM     11  C   UNL     1      14.714   2.333   0.501  0.00  0.00    -0.028 A 
ATOM     12  C   UNL     1      15.589   1.728   1.416  0.00  0.00    +0.005 A 
ATOM     13  C   UNL     1      13.628   1.590   0.015  0.00  0.00    +0.005 A 
ATOM     14  C   UNL     1      15.366   0.419   1.851  0.00  0.00    +0.000 A 
ATOM     15  C   UNL     1      13.410   0.283   0.451  0.00  0.00    +0.000 A 
ATOM     16  C   UNL     1      14.277  -0.301   1.371  0.00  0.00    +0.000 A 
ENDBRANCH  10  11
ENDBRANCH   1  10
TORSDOF 2
ENDMDL
MODEL 6
REMARK VINA RESULT:    -4.023     55.728     56.835
REMARK INTER + INTRA:          -4.592
REMARK INTER:                  -4.451
REMARK INTRA:                  -0.141
REMARK UNBOUND:                -0.098
REMARK  Name = 1550473
REMARK  2 active torsions:
REMARK  status: ('A' for Active; 'I' for Inactive)
REMARK    1  A    between atoms: N_1  and  C_4
REMARK    2  A    between atoms: C_4  and  C_5
REMARK                            x       y       z     vdW  Elec       q    Type
REMARK                         _______ _______ _______ _____ _____    ______ ____
ROOT
ATOM      1  N   UNL     1     -23.764  -3.990 -41.728  0.00  0.00    -0.354 N 
ATOM      2  N   UNL     1     -25.313  -2.298 -42.047  0.00  0.00    -0.372 N 
ATOM      3  N   UNL     1     -24.508  -3.425 -43.877  0.00  0.00    -0.372 N 
ATOM      4  C   UNL     1     -24.517  -3.249 -42.551  0.00  0.00    +0.166 C 
ATOM      5  H   UNL     1     -23.793  -3.787 -40.735  0.00  0.00    +0.163 HD
ATOM      6  H   UNL     1     -25.895  -1.725 -42.643  0.00  0.00    +0.159 HD
ATOM      7  H   UNL     1     -25.375  -2.128 -41.051  0.00  0.00    +0.159 HD
ATOM      8  H   UNL     1     -23.926  -4.122 -44.320  0.00  0.00    +0.159 HD
ATOM      9  H   UNL     1     -25.076  -2.854 -44.491  0.00  0.00    +0.159 HD
ENDROOT
BRANCH   1  10
ATOM     10  C   UNL     1     -22.904  -5.086 -42.170  0.00  0.00    +0.151 C 
BRANCH  10  11
ATOM     11  C   UNL     1     -23.385  -6.368 -41.548  0.00  0.00    -0.028 A 
ATOM     12  C   UNL     1     -23.393  -6.524 -40.154  0.00  0.00    +0.005 A 
ATOM     13  C   UNL     1     -23.838  -7.430 -42.347  0.00  0.00    +0.005 A 
ATOM     14  C   UNL     1     -23.867  -7.703 -39.574  0.00  0.00    +0.000 A 
ATOM     15  C   UNL     1     -24.309  -8.606 -41.764  0.00  0.00    +0.000 A 
ATOM     16  C   UNL     1     -24.326  -8.741 -40.378  0.00  0.00    +0.000 A 
ENDBRANCH  10  11
ENDBRANCH   1  10
TORSDOF 2
ENDMDL
MODEL 7
REMARK VINA RESULT:    -4.015     12.424     13.471
REMARK INTER + INTRA:          -4.583
REMARK INTER:                  -4.438
REMARK INTRA:                  -0.144
REMARK UNBOUND:                -0.098
REMARK  Name = 1550473
REMARK  2 active torsions:
REMARK  status: ('A' for Active; 'I' for Inactive)
REMARK    1  A    between atoms: N_1  and  C_4
REMARK    2  A    between atoms: C_4  and  C_5
REMARK                            x       y       z     vdW  Elec       q    Type
REMARK                         _______ _______ _______ _____ _____    ______ ____
ROOT
ATOM      1  N   UNL     1      19.277  -0.733  12.893  0.00  0.00    -0.354 N 
ATOM      2  N   UNL     1      18.080   0.686  14.278  0.00  0.00    -0.372 N 
ATOM      3  N   UNL     1      17.087  -0.091  12.361  0.00  0.00    -0.372 N 
ATOM      4  C   UNL     1      18.154  -0.055  13.166  0.00  0.00    +0.166 C 
ATOM      5  H   UNL     1      20.061  -0.641  13.528  0.00  0.00    +0.163 HD
ATOM      6  H   UNL     1      17.245   1.206  14.512  0.00  0.00    +0.159 HD
ATOM      7  H   UNL     1      18.850   0.740  14.935  0.00  0.00    +0.159 HD
ATOM      8  H   UNL     1      17.081  -0.627  11.504  0.00  0.00    +0.159 HD
ATOM      9  H   UNL     1      16.246   0.432  12.572  0.00  0.00    +0.159 HD
ENDROOT
BRANCH   1  10
ATOM     10  C   UNL     1      19.440  -1.612  11.737  0.00  0.00    +0.151 C 
BRANCH  10  11
ATOM     11  C   UNL     1      20.043  -0.827  10.604  0.00  0.00    -0.028 A 
ATOM     12  C   UNL     1      19.252  -0.420   9.520  0.00  0.00    +0.005 A 
ATOM     13  C   UNL     1      21.403  -0.483  10.612  0.00  0.00    +0.005 A 
ATOM     14  C   UNL     1      19.804   0.335   8.483  0.00  0.00    +0.000 A 
ATOM     15  C   UNL     1      21.951   0.271   9.574  0.00  0.00    +0.000 A 
ATOM     16  C   UNL     1      21.151   0.681   8.511  0.00  0.00    +0.000 A 
ENDBRANCH  10  11
ENDBRANCH   1  10
TORSDOF 2
ENDMDL
MODEL 8
REMARK VINA RESULT:    -3.973      7.779      9.748
REMARK INTER + INTRA:          -4.535
REMARK INTER:                  -4.393
REMARK INTRA:                  -0.143
REMARK UNBOUND:                -0.098
REMARK  Name = 1550473
REMARK  2 active torsions:
REMARK  status: ('A' for Active; 'I' for Inactive)
REMARK    1  A    between atoms: N_1  and  C_4
REMARK    2  A    between atoms: C_4  and  C_5
REMARK                            x       y       z     vdW  Elec       q    Type
REMARK                         _______ _______ _______ _____ _____    ______ ____
ROOT
ATOM      1  N   UNL     1      13.155  -6.634  -1.773  0.00  0.00    -0.354 N 
ATOM      2  N   UNL     1      13.675  -8.707  -0.882  0.00  0.00    -0.372 N 
ATOM      3  N   UNL     1      11.522  -8.302  -1.565  0.00  0.00    -0.372 N 
ATOM      4  C   UNL     1      12.778  -7.868  -1.413  0.00  0.00    +0.166 C 
ATOM      5  H   UNL     1      14.114  -6.355  -1.604  0.00  0.00    +0.163 HD
ATOM      6  H   UNL     1      13.421  -9.645  -0.604  0.00  0.00    +0.159 HD
ATOM      7  H   UNL     1      14.645  -8.441  -0.757  0.00  0.00    +0.159 HD
ATOM      8  H   UNL     1      10.796  -7.716  -1.954  0.00  0.00    +0.159 HD
ATOM      9  H   UNL     1      11.246  -9.234  -1.281  0.00  0.00    +0.159 HD
ENDROOT
BRANCH   1  10
ATOM     10  C   UNL     1      12.268  -5.661  -2.410  0.00  0.00    +0.151 C 
BRANCH  10  11
ATOM     11  C   UNL     1      12.286  -4.385  -1.614  0.00  0.00    -0.028 A 
ATOM     12  C   UNL     1      13.385  -4.069  -0.801  0.00  0.00    +0.005 A 
ATOM     13  C   UNL     1      11.211  -3.486  -1.673  0.00  0.00    +0.005 A 
ATOM     14  C   UNL     1      13.416  -2.870  -0.085  0.00  0.00    +0.000 A 
ATOM     15  C   UNL     1      11.245  -2.290  -0.956  0.00  0.00    +0.000 A 
ATOM     16  C   UNL     1      12.349  -1.981  -0.164  0.00  0.00    +0.000 A 
ENDBRANCH  10  11
ENDBRANCH   1  10
TORSDOF 2
ENDMDL
MODEL 9
REMARK VINA RESULT:    -3.888     12.257     13.433
REMARK INTER + INTRA:          -4.440
REMARK INTER:                  -4.271
REMARK INTRA:                  -0.169
REMARK UNBOUND:                -0.098
REMARK  Name = 1550473
REMARK  2 active torsions:
REMARK  status: ('A' for Active; 'I' for Inactive)
REMARK    1  A    between atoms: N_1  and  C_4
REMARK    2  A    between atoms: C_4  and  C_5
REMARK                            x       y       z     vdW  Elec       q    Type
REMARK                         _______ _______ _______ _____ _____    ______ ____
ROOT
ATOM      1  N   UNL     1      22.921   0.904   9.154  0.00  0.00    -0.354 N 
ATOM      2  N   UNL     1      23.654   3.101   9.162  0.00  0.00    -0.372 N 
ATOM      3  N   UNL     1      21.664   2.599   8.135  0.00  0.00    -0.372 N 
ATOM      4  C   UNL     1      22.739   2.187   8.815  0.00  0.00    +0.166 C 
ATOM      5  H   UNL     1      23.772   0.651   9.643  0.00  0.00    +0.163 HD
ATOM      6  H   UNL     1      23.542   4.077   8.923  0.00  0.00    +0.159 HD
ATOM      7  H   UNL     1      24.481   2.853   9.691  0.00  0.00    +0.159 HD
ATOM      8  H   UNL     1      20.940   1.958   7.839  0.00  0.00    +0.159 HD
ATOM      9  H   UNL     1      21.540   3.570   7.877  0.00  0.00    +0.159 HD
ENDROOT
BRANCH   1  10
ATOM     10  C   UNL     1      21.960  -0.161   8.871  0.00  0.00    +0.151 C 
BRANCH  10  11
ATOM     11  C   UNL     1      21.161  -0.444  10.114  0.00  0.00    -0.028 A 
ATOM     12  C   UNL     1      21.779  -0.442  11.373  0.00  0.00    +0.005 A 
ATOM     13  C   UNL     1      19.785  -0.709  10.039  0.00  0.00    +0.005 A 
ATOM     14  C   UNL     1      21.032  -0.675  12.530  0.00  0.00    +0.000 A 
ATOM     15  C   UNL     1      19.043  -0.942  11.197  0.00  0.00    +0.000 A 
ATOM     16  C   UNL     1      19.666  -0.922  12.442  0.00  0.00    +0.000 A 
ENDBRANCH  10  11
ENDBRANCH   1  10
TORSDOF 2
ENDMDL
