MODEL 1
REMARK VINA RESULT:    -5.077      0.000      0.000
REMARK INTER + INTRA:          -5.820
REMARK INTER:                  -5.670
REMARK INTRA:                  -0.150
REMARK UNBOUND:                -0.150
REMARK  Name = 1550473
REMARK  2 active torsions:
REMARK  status: ('A' for Active; 'I' for Inactive)
REMARK    1  A    between atoms: N_1  and  C_4
REMARK    2  A    between atoms: C_4  and  C_5
REMARK                            x       y       z     vdW  Elec       q    Type
REMARK                         _______ _______ _______ _____ _____    ______ ____
ROOT
ATOM      1  N   UNL     1      -6.685 -10.570   3.148  0.00  0.00    -0.354 N 
ATOM      2  N   UNL     1      -5.349 -10.723   1.262  0.00  0.00    -0.372 N 
ATOM      3  N   UNL     1      -5.767  -8.653   2.159  0.00  0.00    -0.372 N 
ATOM      4  C   UNL     1      -5.942  -9.978   2.202  0.00  0.00    +0.166 C 
ATOM      5  H   UNL     1      -6.803 -11.575   3.108  0.00  0.00    +0.163 HD
ATOM      6  H   UNL     1      -4.780 -10.305   0.538  0.00  0.00    +0.159 HD
ATOM      7  H   UNL     1      -5.431 -11.732   1.251  0.00  0.00    +0.159 HD
ATOM      8  H   UNL     1      -6.193  -8.034   2.836  0.00  0.00    +0.159 HD
ATOM      9  H   UNL     1      -5.211  -8.215   1.436  0.00  0.00    +0.159 HD
ENDROOT
BRANCH   1  10
ATOM     10  C   UNL     1      -7.329  -9.854   4.248  0.00  0.00    +0.151 C 
BRANCH  10  11
ATOM     11  C   UNL     1      -8.798 -10.177   4.250  0.00  0.00    -0.028 A 
ATOM     12  C   UNL     1      -9.590  -9.897   3.127  0.00  0.00    +0.005 A 
ATOM     13  C   UNL     1      -9.403 -10.769   5.369  0.00  0.00    +0.005 A 
ATOM     14  C   UNL     1     -10.948 -10.224   3.116  0.00  0.00    +0.000 A 
ATOM     15  C   UNL     1     -10.759 -11.093   5.356  0.00  0.00    +0.000 A 
ATOM     16  C   UNL     1     -11.531 -10.823   4.228  0.00  0.00    +0.000 A 
ENDBRANCH  10  11
ENDBRANCH   1  10
TORSDOF 2
ENDMDL
MODEL 2
REMARK VINA RESULT:    -4.814     20.536     22.039
REMARK INTER + INTRA:          -5.527
REMARK INTER:                  -5.399
REMARK INTRA:                  -0.127
REMARK UNBOUND:                -0.150
REMARK  Name = 1550473
REMARK  2 active torsions:
REMARK  status: ('A' for Active; 'I' for Inactive)
REMARK    1  A    between atoms: N_1  and  C_4
REMARK    2  A    between atoms: C_4  and  C_5
REMARK                            x       y       z     vdW  Elec       q    Type
REMARK                         _______ _______ _______ _____ _____    ______ ____
ROOT
ATOM      1  N   UNL     1      -2.318   8.753   3.021  0.00  0.00    -0.354 N 
ATOM      2  N   UNL     1      -3.395   6.814   2.354  0.00  0.00    -0.372 N 
ATOM      3  N   UNL     1      -4.224   7.982   4.147  0.00  0.00    -0.372 N 
ATOM      4  C   UNL     1      -3.307   7.863   3.181  0.00  0.00    +0.166 C 
ATOM      5  H   UNL     1      -1.637   8.589   2.289  0.00  0.00    +0.163 HD
ATOM      6  H   UNL     1      -4.132   6.128   2.448  0.00  0.00    +0.159 HD
ATOM      7  H   UNL     1      -2.740   6.678   1.594  0.00  0.00    +0.159 HD
ATOM      8  H   UNL     1      -4.209   8.748   4.807  0.00  0.00    +0.159 HD
ATOM      9  H   UNL     1      -4.962   7.300   4.264  0.00  0.00    +0.159 HD
ENDROOT
BRANCH   1  10
ATOM     10  C   UNL     1      -2.164   9.958   3.834  0.00  0.00    +0.151 C 
BRANCH  10  11
ATOM     11  C   UNL     1      -1.312  10.948   3.088  0.00  0.00    -0.028 A 
ATOM     12  C   UNL     1      -0.902  10.685   1.772  0.00  0.00    +0.005 A 
ATOM     13  C   UNL     1      -0.915  12.152   3.689  0.00  0.00    +0.005 A 
ATOM     14  C   UNL     1      -0.135  11.617   1.069  0.00  0.00    +0.000 A 
ATOM     15  C   UNL     1      -0.149  13.080   2.984  0.00  0.00    +0.000 A 
ATOM     16  C   UNL     1       0.238  12.813   1.673  0.00  0.00    +0.000 A 
ENDBRANCH  10  11
ENDBRANCH   1  10
TORSDOF 2
ENDMDL
MODEL 3
REMARK VINA RESULT:    -4.793     14.203     14.992
REMARK INTER + INTRA:          -5.504
REMARK INTER:                  -5.383
REMARK INTRA:                  -0.121
REMARK UNBOUND:                -0.150
REMARK  Name = 1550473
REMARK  2 active torsions:
REMARK  status: ('A' for Active; 'I' for Inactive)
REMARK    1  A    between atoms: N_1  and  C_4
REMARK    2  A    between atoms: C_4  and  C_5
REMARK                            x       y       z     vdW  Elec       q    Type
REMARK                         _______ _______ _______ _____ _____    ______ ____
ROOT
ATOM      1  N   UNL     1      -5.176 -18.004  -8.688  0.00  0.00    -0.354 N 
ATOM      2  N   UNL     1      -4.256 -15.975  -9.321  0.00  0.00    -0.372 N 
ATOM      3  N   UNL     1      -5.009 -17.407 -10.948  0.00  0.00    -0.372 N 
ATOM      4  C   UNL     1      -4.820 -17.143  -9.651  0.00  0.00    +0.166 C 
ATOM      5  H   UNL     1      -4.978 -17.757  -7.725  0.00  0.00    +0.163 HD
ATOM      6  H   UNL     1      -3.980 -15.304 -10.025  0.00  0.00    +0.159 HD
ATOM      7  H   UNL     1      -4.101 -15.711  -8.355  0.00  0.00    +0.159 HD
ATOM      8  H   UNL     1      -5.424 -18.274 -11.263  0.00  0.00    +0.159 HD
ATOM      9  H   UNL     1      -4.728 -16.753 -11.668  0.00  0.00    +0.159 HD
ENDROOT
BRANCH   1  10
ATOM     10  C   UNL     1      -5.846 -19.279  -8.937  0.00  0.00    +0.151 C 
BRANCH  10  11
ATOM     11  C   UNL     1      -7.317 -19.121  -8.671  0.00  0.00    -0.028 A 
ATOM     12  C   UNL     1      -7.882 -19.604  -7.482  0.00  0.00    +0.005 A 
ATOM     13  C   UNL     1      -8.152 -18.483  -9.602  0.00  0.00    +0.005 A 
ATOM     14  C   UNL     1      -9.243 -19.431  -7.221  0.00  0.00    +0.000 A 
ATOM     15  C   UNL     1      -9.511 -18.313  -9.338  0.00  0.00    +0.000 A 
ATOM     16  C   UNL     1     -10.055 -18.785  -8.146  0.00  0.00    +0.000 A 
ENDBRANCH  10  11
ENDBRANCH   1  10
TORSDOF 2
ENDMDL
MODEL 4
REMARK VINA RESULT:    -4.755     25.179     26.327
REMARK INTER + INTRA:          -5.461
REMARK INTER:                  -5.316
REMARK INTRA:                  -0.145
REMARK UNBOUND:                -0.150
REMARK  Name = 1550473
REMARK  2 active torsions:
REMARK  status: ('A' for Active; 'I' for Inactive)
REMARK    1  A    between atoms: N_1  and  C_4
REMARK    2  A    between atoms: C_4  and  C_5
REMARK                            x       y       z     vdW  Elec       q    Type
REMARK                         _______ _______ _______ _____ _____    ______ ____
ROOT
ATOM      1  N   UNL     1     -11.085 -17.591 -20.095  0.00  0.00    -0.354 N 
ATOM      2  N   UNL     1     -12.705 -15.977 -19.724  0.00  0.00    -0.372 N 
ATOM      3  N   UNL     1     -12.481 -17.691 -18.215  0.00  0.00    -0.372 N 
ATOM      4  C   UNL     1     -12.080 -17.099 -19.345  0.00  0.00    +0.166 C 
ATOM      5  H   UNL     1     -10.849 -17.111 -20.956  0.00  0.00    +0.163 HD
ATOM      6  H   UNL     1     -13.457 -15.580 -19.176  0.00  0.00    +0.159 HD
ATOM      7  H   UNL     1     -12.436 -15.475 -20.561  0.00  0.00    +0.159 HD
ATOM      8  H   UNL     1     -12.054 -18.544 -17.877  0.00  0.00    +0.159 HD
ATOM      9  H   UNL     1     -13.239 -17.316 -17.659  0.00  0.00    +0.159 HD
ENDROOT
BRANCH   1  10
ATOM     10  C   UNL     1     -10.305 -18.776 -19.743  0.00  0.00    +0.151 C 
BRANCH  10  11
ATOM     11  C   UNL     1     -10.507 -19.828 -20.798  0.00  0.00    -0.028 A 
ATOM     12  C   UNL     1     -11.181 -21.020 -20.495  0.00  0.00    +0.005 A 
ATOM     13  C   UNL     1     -10.033 -19.637 -22.105  0.00  0.00    +0.005 A 
ATOM     14  C   UNL     1     -11.396 -21.985 -21.482  0.00  0.00    +0.000 A 
ATOM     15  C   UNL     1     -10.248 -20.603 -23.087  0.00  0.00    +0.000 A 
ATOM     16  C   UNL     1     -10.932 -21.776 -22.776  0.00  0.00    +0.000 A 
ENDBRANCH  10  11
ENDBRANCH   1  10
TORSDOF 2
ENDMDL
MODEL 5
REMARK VINA RESULT:    -4.668     22.504     23.810
REMARK INTER + INTRA:          -5.363
REMARK INTER:                  -5.213
REMARK INTRA:                  -0.151
REMARK UNBOUND:                -0.150
REMARK  Name = 1550473
REMARK  2 active torsions:
REMARK  status: ('A' for Active; 'I' for Inactive)
REMARK    1  A    between atoms: N_1  and  C_4
REMARK    2  A    between atoms: C_4  and  C_5
REMARK                            x       y       z     vdW  Elec       q    Type
REMARK                         _______ _______ _______ _____ _____    ______ ____
ROOT
ATOM      1  N   UNL     1      -0.554  11.199  -1.006  0.00  0.00    -0.354 N 
ATOM      2  N   UNL     1      -1.079  12.533  -2.825  0.00  0.00    -0.372 N 
ATOM      3  N   UNL     1       0.907  12.883  -1.730  0.00  0.00    -0.372 N 
ATOM      4  C   UNL     1      -0.236  12.197  -1.841  0.00  0.00    +0.166 C 
ATOM      5  H   UNL     1      -1.449  10.739  -1.125  0.00  0.00    +0.163 HD
ATOM      6  H   UNL     1      -0.865  13.280  -3.472  0.00  0.00    +0.159 HD
ATOM      7  H   UNL     1      -1.953  12.041  -2.969  0.00  0.00    +0.159 HD
ATOM      8  H   UNL     1       1.583  12.682  -1.005  0.00  0.00    +0.159 HD
ATOM      9  H   UNL     1       1.134  13.641  -2.361  0.00  0.00    +0.159 HD
ENDROOT
BRANCH   1  10
ATOM     10  C   UNL     1       0.319  10.719   0.064  0.00  0.00    +0.151 C 
BRANCH  10  11
ATOM     11  C   UNL     1      -0.157  11.282   1.375  0.00  0.00    -0.028 A 
ATOM     12  C   UNL     1       0.250  12.558   1.792  0.00  0.00    +0.005 A 
ATOM     13  C   UNL     1      -1.020  10.547   2.202  0.00  0.00    +0.005 A 
ATOM     14  C   UNL     1      -0.215  13.093   2.995  0.00  0.00    +0.000 A 
ATOM     15  C   UNL     1      -1.482  11.085   3.403  0.00  0.00    +0.000 A 
ATOM     16  C   UNL     1      -1.081  12.359   3.798  0.00  0.00    +0.000 A 
ENDBRANCH  10  11
ENDBRANCH   1  10
TORSDOF 2
ENDMDL
MODEL 6
REMARK VINA RESULT:    -4.601     25.210     25.978
REMARK INTER + INTRA:          -5.289
REMARK INTER:                  -5.169
REMARK INTRA:                  -0.120
REMARK UNBOUND:                -0.150
REMARK  Name = 1550473
REMARK  2 active torsions:
REMARK  status: ('A' for Active; 'I' for Inactive)
REMARK    1  A    between atoms: N_1  and  C_4
REMARK    2  A    between atoms: C_4  and  C_5
REMARK                            x       y       z     vdW  Elec       q    Type
REMARK                         _______ _______ _______ _____ _____    ______ ____
ROOT
ATOM      1  N   UNL     1      14.768  -5.367  -7.236  0.00  0.00    -0.354 N 
ATOM      2  N   UNL     1      13.715  -5.244  -9.295  0.00  0.00    -0.372 N 
ATOM      3  N   UNL     1      13.508  -7.165  -8.058  0.00  0.00    -0.372 N 
ATOM      4  C   UNL     1      14.003  -5.929  -8.182  0.00  0.00    +0.166 C 
ATOM      5  H   UNL     1      15.137  -4.439  -7.404  0.00  0.00    +0.163 HD
ATOM      6  H   UNL     1      13.138  -5.640 -10.025  0.00  0.00    +0.159 HD
ATOM      7  H   UNL     1      14.048  -4.298  -9.440  0.00  0.00    +0.159 HD
ATOM      8  H   UNL     1      13.694  -7.737  -7.244  0.00  0.00    +0.159 HD
ATOM      9  H   UNL     1      12.938  -7.583  -8.782  0.00  0.00    +0.159 HD
ENDROOT
BRANCH   1  10
ATOM     10  C   UNL     1      15.096  -6.008  -5.964  0.00  0.00    +0.151 C 
BRANCH  10  11
ATOM     11  C   UNL     1      15.421  -4.946  -4.949  0.00  0.00    -0.028 A 
ATOM     12  C   UNL     1      15.925  -3.703  -5.356  0.00  0.00    +0.005 A 
ATOM     13  C   UNL     1      15.220  -5.176  -3.579  0.00  0.00    +0.005 A 
ATOM     14  C   UNL     1      16.198  -2.706  -4.416  0.00  0.00    +0.000 A 
ATOM     15  C   UNL     1      15.495  -4.179  -2.644  0.00  0.00    +0.000 A 
ATOM     16  C   UNL     1      15.981  -2.943  -3.063  0.00  0.00    +0.000 A 
ENDBRANCH  10  11
ENDBRANCH   1  10
TORSDOF 2
ENDMDL
MODEL 7
REMARK VINA RESULT:    -4.592     20.983     22.239
REMARK INTER + INTRA:          -5.279
REMARK INTER:                  -5.155
REMARK INTRA:                  -0.124
REMARK UNBOUND:                -0.150
REMARK  Name = 1550473
REMARK  2 active torsions:
REMARK  status: ('A' for Active; 'I' for Inactive)
REMARK    1  A    between atoms: N_1  and  C_4
REMARK    2  A    between atoms: C_4  and  C_5
REMARK                            x       y       z     vdW  Elec       q    Type
REMARK                         _______ _______ _______ _____ _____    ______ ____
ROOT
ATOM      1  N   UNL     1      -0.336  11.639   1.392  0.00  0.00    -0.354 N 
ATOM      2  N   UNL     1       0.993  12.337  -0.372  0.00  0.00    -0.372 N 
ATOM      3  N   UNL     1       0.868  13.646   1.509  0.00  0.00    -0.372 N 
ATOM      4  C   UNL     1       0.500  12.539   0.856  0.00  0.00    +0.166 C 
ATOM      5  H   UNL     1      -0.600  10.835   0.834  0.00  0.00    +0.163 HD
ATOM      6  H   UNL     1       1.628  12.997  -0.800  0.00  0.00    +0.159 HD
ATOM      7  H   UNL     1       0.763  11.510  -0.909  0.00  0.00    +0.159 HD
ATOM      8  H   UNL     1       0.526  13.860   2.437  0.00  0.00    +0.159 HD
ATOM      9  H   UNL     1       1.493  14.324   1.092  0.00  0.00    +0.159 HD
ENDROOT
BRANCH   1  10
ATOM     10  C   UNL     1      -0.887  11.737   2.743  0.00  0.00    +0.151 C 
BRANCH  10  11
ATOM     11  C   UNL     1      -1.600  10.456   3.077  0.00  0.00    -0.028 A 
ATOM     12  C   UNL     1      -1.693   9.425   2.130  0.00  0.00    +0.005 A 
ATOM     13  C   UNL     1      -2.181  10.265   4.340  0.00  0.00    +0.005 A 
ATOM     14  C   UNL     1      -2.329   8.224   2.450  0.00  0.00    +0.000 A 
ATOM     15  C   UNL     1      -2.817   9.064   4.655  0.00  0.00    +0.000 A 
ATOM     16  C   UNL     1      -2.888   8.043   3.711  0.00  0.00    +0.000 A 
ENDBRANCH  10  11
ENDBRANCH   1  10
TORSDOF 2
ENDMDL
MODEL 8
REMARK VINA RESULT:    -4.517     16.086     17.039
REMARK INTER + INTRA:          -5.195
REMARK INTER:                  -5.093
REMARK INTRA:                  -0.102
REMARK UNBOUND:                -0.150
REMARK  Name = 1550473
REMARK  2 active torsions:
REMARK  status: ('A' for Active; 'I' for Inactive)
REMARK    1  A    between atoms: N_1  and  C_4
REMARK    2  A    between atoms: C_4  and  C_5
REMARK                            x       y       z     vdW  Elec       q    Type
REMARK                         _______ _______ _______ _____ _____    ______ ____
ROOT
ATOM      1  N   UNL     1      -5.498 -17.539 -10.618  0.00  0.00    -0.354 N 
ATOM      2  N   UNL     1      -7.587 -17.918  -9.693  0.00  0.00    -0.372 N 
ATOM      3  N   UNL     1      -6.623 -19.566 -10.965  0.00  0.00    -0.372 N 
ATOM      4  C   UNL     1      -6.555 -18.341 -10.433  0.00  0.00    +0.166 C 
ATOM      5  H   UNL     1      -5.521 -16.610 -10.213  0.00  0.00    +0.163 HD
ATOM      6  H   UNL     1      -8.397 -18.501  -9.532  0.00  0.00    +0.159 HD
ATOM      7  H   UNL     1      -7.587 -17.006  -9.251  0.00  0.00    +0.159 HD
ATOM      8  H   UNL     1      -5.880 -19.942 -11.539  0.00  0.00    +0.159 HD
ATOM      9  H   UNL     1      -7.430 -20.160 -10.826  0.00  0.00    +0.159 HD
ENDROOT
BRANCH   1  10
ATOM     10  C   UNL     1      -4.300 -17.925 -11.363  0.00  0.00    +0.151 C 
BRANCH  10  11
ATOM     11  C   UNL     1      -3.139 -17.094 -10.890  0.00  0.00    -0.028 A 
ATOM     12  C   UNL     1      -1.971 -17.708 -10.416  0.00  0.00    +0.005 A 
ATOM     13  C   UNL     1      -3.199 -15.692 -10.919  0.00  0.00    +0.005 A 
ATOM     14  C   UNL     1      -0.881 -16.937 -10.004  0.00  0.00    +0.000 A 
ATOM     15  C   UNL     1      -2.109 -14.926 -10.507  0.00  0.00    +0.000 A 
ATOM     16  C   UNL     1      -0.950 -15.548 -10.052  0.00  0.00    +0.000 A 
ENDBRANCH  10  11
ENDBRANCH   1  10
TORSDOF 2
ENDMDL
MODEL 9
REMARK VINA RESULT:    -4.484     16.242     17.312
REMARK INTER + INTRA:          -5.159
REMARK INTER:                  -4.995
REMARK INTRA:                  -0.164
REMARK UNBOUND:                -0.150
REMARK  Name = 1550473
REMARK  2 active torsions:
REMARK  status: ('A' for Active; 'I' for Inactive)
REMARK    1  A    between atoms: N_1  and  C_4
REMARK    2  A    between atoms: C_4  and  C_5
REMARK                            x       y       z     vdW  Elec       q    Type
REMARK                         _______ _______ _______ _____ _____    ______ ____
ROOT
ATOM      1  N   UNL     1      -4.852 -17.064 -10.554  0.00  0.00    -0.354 N 
ATOM      2  N   UNL     1      -6.830 -17.877  -9.666  0.00  0.00    -0.372 N 
ATOM      3  N   UNL     1      -6.011 -18.815 -11.593  0.00  0.00    -0.372 N 
ATOM      4  C   UNL     1      -5.885 -17.915 -10.613  0.00  0.00    +0.166 C 
ATOM      5  H   UNL     1      -4.829 -16.385  -9.801  0.00  0.00    +0.163 HD
ATOM      6  H   UNL     1      -7.620 -18.508  -9.682  0.00  0.00    +0.159 HD
ATOM      7  H   UNL     1      -6.782 -17.228  -8.890  0.00  0.00    +0.159 HD
ATOM      8  H   UNL     1      -5.335 -18.891 -12.341  0.00  0.00    +0.159 HD
ATOM      9  H   UNL     1      -6.800 -19.448 -11.633  0.00  0.00    +0.159 HD
ENDROOT
BRANCH   1  10
ATOM     10  C   UNL     1      -3.741 -17.059 -11.504  0.00  0.00    +0.151 C 
BRANCH  10  11
ATOM     11  C   UNL     1      -2.481 -17.465 -10.790  0.00  0.00    -0.028 A 
ATOM     12  C   UNL     1      -1.523 -16.504 -10.437  0.00  0.00    +0.005 A 
ATOM     13  C   UNL     1      -2.243 -18.808 -10.460  0.00  0.00    +0.005 A 
ATOM     14  C   UNL     1      -0.366 -16.877  -9.747  0.00  0.00    +0.000 A 
ATOM     15  C   UNL     1      -1.087 -19.176  -9.772  0.00  0.00    +0.000 A 
ATOM     16  C   UNL     1      -0.150 -18.209  -9.413  0.00  0.00    +0.000 A 
ENDBRANCH  10  11
ENDBRANCH   1  10
TORSDOF 2
ENDMDL
