MODEL 1
REMARK VINA RESULT:    -4.984      0.000      0.000
REMARK INTER + INTRA:          -5.658
REMARK INTER:                  -5.567
REMARK INTRA:                  -0.092
REMARK UNBOUND:                -0.092
REMARK  Name = 1550473
REMARK  2 active torsions:
REMARK  status: ('A' for Active; 'I' for Inactive)
REMARK    1  A    between atoms: N_1  and  C_4
REMARK    2  A    between atoms: C_4  and  C_5
REMARK                            x       y       z     vdW  Elec       q    Type
REMARK                         _______ _______ _______ _____ _____    ______ ____
ROOT
ATOM      1  N   UNL     1       6.174   4.190   9.083  0.00  0.00    -0.354 N 
ATOM      2  N   UNL     1       4.412   2.867   8.370  0.00  0.00    -0.372 N 
ATOM      3  N   UNL     1       4.791   3.090  10.622  0.00  0.00    -0.372 N 
ATOM      4  C   UNL     1       5.137   3.390   9.366  0.00  0.00    +0.166 C 
ATOM      5  H   UNL     1       6.404   4.354   8.110  0.00  0.00    +0.163 HD
ATOM      6  H   UNL     1       3.622   2.263   8.553  0.00  0.00    +0.159 HD
ATOM      7  H   UNL     1       4.615   3.070   7.399  0.00  0.00    +0.159 HD
ATOM      8  H   UNL     1       5.301   3.448  11.418  0.00  0.00    +0.159 HD
ATOM      9  H   UNL     1       4.010   2.478  10.825  0.00  0.00    +0.159 HD
ENDROOT
BRANCH   1  10
ATOM     10  C   UNL     1       6.995   4.853  10.095  0.00  0.00    +0.151 C 
BRANCH  10  11
ATOM     11  C   UNL     1       7.840   5.905   9.429  0.00  0.00    -0.028 A 
ATOM     12  C   UNL     1       7.481   7.258   9.503  0.00  0.00    +0.005 A 
ATOM     13  C   UNL     1       9.004   5.554   8.729  0.00  0.00    +0.005 A 
ATOM     14  C   UNL     1       8.281   8.238   8.911  0.00  0.00    +0.000 A 
ATOM     15  C   UNL     1       9.801   6.535   8.138  0.00  0.00    +0.000 A 
ATOM     16  C   UNL     1       9.440   7.877   8.232  0.00  0.00    +0.000 A 
ENDBRANCH  10  11
ENDBRANCH   1  10
TORSDOF 2
ENDMDL
MODEL 2
REMARK VINA RESULT:    -4.556      4.211      5.895
REMARK INTER + INTRA:          -5.181
REMARK INTER:                  -5.058
REMARK INTRA:                  -0.123
REMARK UNBOUND:                -0.092
REMARK  Name = 1550473
REMARK  2 active torsions:
REMARK  status: ('A' for Active; 'I' for Inactive)
REMARK    1  A    between atoms: N_1  and  C_4
REMARK    2  A    between atoms: C_4  and  C_5
REMARK                            x       y       z     vdW  Elec       q    Type
REMARK                         _______ _______ _______ _____ _____    ______ ____
ROOT
ATOM      1  N   UNL     1      10.736   8.544   8.398  0.00  0.00    -0.354 N 
ATOM      2  N   UNL     1      12.421   8.843   6.838  0.00  0.00    -0.372 N 
ATOM      3  N   UNL     1      10.370   9.797   6.453  0.00  0.00    -0.372 N 
ATOM      4  C   UNL     1      11.163   9.061   7.238  0.00  0.00    +0.166 C 
ATOM      5  H   UNL     1      11.377   7.969   8.934  0.00  0.00    +0.163 HD
ATOM      6  H   UNL     1      12.772   9.223   5.969  0.00  0.00    +0.159 HD
ATOM      7  H   UNL     1      13.073   8.306   7.397  0.00  0.00    +0.159 HD
ATOM      8  H   UNL     1       9.408   9.993   6.695  0.00  0.00    +0.159 HD
ATOM      9  H   UNL     1      10.700  10.176   5.574  0.00  0.00    +0.159 HD
ENDROOT
BRANCH   1  10
ATOM     10  C   UNL     1       9.402   8.766   8.951  0.00  0.00    +0.151 C 
BRANCH  10  11
ATOM     11  C   UNL     1       8.681   7.450   9.040  0.00  0.00    -0.028 A 
ATOM     12  C   UNL     1       9.235   6.295   8.469  0.00  0.00    +0.005 A 
ATOM     13  C   UNL     1       7.445   7.349   9.698  0.00  0.00    +0.005 A 
ATOM     14  C   UNL     1       8.580   5.065   8.577  0.00  0.00    +0.000 A 
ATOM     15  C   UNL     1       6.794   6.120   9.803  0.00  0.00    +0.000 A 
ATOM     16  C   UNL     1       7.363   4.978   9.244  0.00  0.00    +0.000 A 
ENDBRANCH  10  11
ENDBRANCH   1  10
TORSDOF 2
ENDMDL
MODEL 3
REMARK VINA RESULT:    -4.210     11.308     12.233
REMARK INTER + INTRA:          -4.794
REMARK INTER:                  -4.663
REMARK INTRA:                  -0.131
REMARK UNBOUND:                -0.092
REMARK  Name = 1550473
REMARK  2 active torsions:
REMARK  status: ('A' for Active; 'I' for Inactive)
REMARK    1  A    between atoms: N_1  and  C_4
REMARK    2  A    between atoms: C_4  and  C_5
REMARK                            x       y       z     vdW  Elec       q    Type
REMARK                         _______ _______ _______ _____ _____    ______ ____
ROOT
ATOM      1  N   UNL     1       1.511  14.711  13.797  0.00  0.00    -0.354 N 
ATOM      2  N   UNL     1       0.387  13.763  12.007  0.00  0.00    -0.372 N 
ATOM      3  N   UNL     1      -0.828  14.566  13.780  0.00  0.00    -0.372 N 
ATOM      4  C   UNL     1       0.362  14.353  13.208  0.00  0.00    +0.166 C 
ATOM      5  H   UNL     1       2.381  14.494  13.325  0.00  0.00    +0.163 HD
ATOM      6  H   UNL     1      -0.464  13.486  11.537  0.00  0.00    +0.159 HD
ATOM      7  H   UNL     1       1.256  13.589  11.517  0.00  0.00    +0.159 HD
ATOM      8  H   UNL     1      -0.916  15.002  14.688  0.00  0.00    +0.159 HD
ATOM      9  H   UNL     1      -1.691  14.285  13.330  0.00  0.00    +0.159 HD
ENDROOT
BRANCH   1  10
ATOM     10  C   UNL     1       1.590  15.408  15.080  0.00  0.00    +0.151 C 
BRANCH  10  11
ATOM     11  C   UNL     1       2.873  15.029  15.766  0.00  0.00    -0.028 A 
ATOM     12  C   UNL     1       3.281  15.695  16.931  0.00  0.00    +0.005 A 
ATOM     13  C   UNL     1       3.683  14.001  15.259  0.00  0.00    +0.005 A 
ATOM     14  C   UNL     1       4.458  15.323  17.586  0.00  0.00    +0.000 A 
ATOM     15  C   UNL     1       4.858  13.634  15.915  0.00  0.00    +0.000 A 
ATOM     16  C   UNL     1       5.243  14.293  17.080  0.00  0.00    +0.000 A 
ENDBRANCH  10  11
ENDBRANCH   1  10
TORSDOF 2
ENDMDL
MODEL 4
REMARK VINA RESULT:    -4.198      1.760      2.703
REMARK INTER + INTRA:          -4.781
REMARK INTER:                  -4.604
REMARK INTRA:                  -0.177
REMARK UNBOUND:                -0.092
REMARK  Name = 1550473
REMARK  2 active torsions:
REMARK  status: ('A' for Active; 'I' for Inactive)
REMARK    1  A    between atoms: N_1  and  C_4
REMARK    2  A    between atoms: C_4  and  C_5
REMARK                            x       y       z     vdW  Elec       q    Type
REMARK                         _______ _______ _______ _____ _____    ______ ____
ROOT
ATOM      1  N   UNL     1       7.370   6.533   9.155  0.00  0.00    -0.354 N 
ATOM      2  N   UNL     1       6.305   4.566   8.555  0.00  0.00    -0.372 N 
ATOM      3  N   UNL     1       8.103   4.464   9.976  0.00  0.00    -0.372 N 
ATOM      4  C   UNL     1       7.269   5.199   9.234  0.00  0.00    +0.166 C 
ATOM      5  H   UNL     1       6.725   7.030   8.551  0.00  0.00    +0.163 HD
ATOM      6  H   UNL     1       6.202   3.561   8.598  0.00  0.00    +0.159 HD
ATOM      7  H   UNL     1       5.633   5.069   7.989  0.00  0.00    +0.159 HD
ATOM      8  H   UNL     1       8.856   4.882  10.508  0.00  0.00    +0.159 HD
ATOM      9  H   UNL     1       8.024   3.456  10.023  0.00  0.00    +0.159 HD
ENDROOT
BRANCH   1  10
ATOM     10  C   UNL     1       8.349   7.324   9.897  0.00  0.00    +0.151 C 
BRANCH  10  11
ATOM     11  C   UNL     1       9.514   7.634   8.998  0.00  0.00    -0.028 A 
ATOM     12  C   UNL     1       9.407   8.622   8.009  0.00  0.00    +0.005 A 
ATOM     13  C   UNL     1      10.730   6.945   9.133  0.00  0.00    +0.005 A 
ATOM     14  C   UNL     1      10.498   8.931   7.193  0.00  0.00    +0.000 A 
ATOM     15  C   UNL     1      11.816   7.256   8.316  0.00  0.00    +0.000 A 
ATOM     16  C   UNL     1      11.701   8.250   7.347  0.00  0.00    +0.000 A 
ENDBRANCH  10  11
ENDBRANCH   1  10
TORSDOF 2
ENDMDL
MODEL 5
REMARK VINA RESULT:    -4.189      3.735      5.268
REMARK INTER + INTRA:          -4.771
REMARK INTER:                  -4.680
REMARK INTRA:                  -0.091
REMARK UNBOUND:                -0.092
REMARK  Name = 1550473
REMARK  2 active torsions:
REMARK  status: ('A' for Active; 'I' for Inactive)
REMARK    1  A    between atoms: N_1  and  C_4
REMARK    2  A    between atoms: C_4  and  C_5
REMARK                            x       y       z     vdW  Elec       q    Type
REMARK                         _______ _______ _______ _____ _____    ______ ____
ROOT
ATOM      1  N   UNL     1       9.535   8.611   9.313  0.00  0.00    -0.354 N 
ATOM      2  N   UNL     1       8.537   9.088  11.347  0.00  0.00    -0.372 N 
ATOM      3  N   UNL     1       7.705   7.365  10.081  0.00  0.00    -0.372 N 
ATOM      4  C   UNL     1       8.597   8.349  10.233  0.00  0.00    +0.166 C 
ATOM      5  H   UNL     1      10.163   9.390   9.473  0.00  0.00    +0.163 HD
ATOM      6  H   UNL     1       7.842   8.912  12.061  0.00  0.00    +0.159 HD
ATOM      7  H   UNL     1       9.194   9.837  11.526  0.00  0.00    +0.159 HD
ATOM      8  H   UNL     1       7.693   6.775   9.259  0.00  0.00    +0.159 HD
ATOM      9  H   UNL     1       6.995   7.181  10.778  0.00  0.00    +0.159 HD
ENDROOT
BRANCH   1  10
ATOM     10  C   UNL     1       9.721   7.832   8.090  0.00  0.00    +0.151 C 
BRANCH  10  11
ATOM     11  C   UNL     1      10.916   8.362   7.346  0.00  0.00    -0.028 A 
ATOM     12  C   UNL     1      10.785   9.449   6.470  0.00  0.00    +0.005 A 
ATOM     13  C   UNL     1      12.183   7.784   7.518  0.00  0.00    +0.005 A 
ATOM     14  C   UNL     1      11.900   9.960   5.802  0.00  0.00    +0.000 A 
ATOM     15  C   UNL     1      13.294   8.297   6.849  0.00  0.00    +0.000 A 
ATOM     16  C   UNL     1      13.153   9.387   5.993  0.00  0.00    +0.000 A 
ENDBRANCH  10  11
ENDBRANCH   1  10
TORSDOF 2
ENDMDL
MODEL 6
REMARK VINA RESULT:    -4.151     27.501     29.037
REMARK INTER + INTRA:          -4.728
REMARK INTER:                  -4.620
REMARK INTRA:                  -0.108
REMARK UNBOUND:                -0.092
REMARK  Name = 1550473
REMARK  2 active torsions:
REMARK  status: ('A' for Active; 'I' for Inactive)
REMARK    1  A    between atoms: N_1  and  C_4
REMARK    2  A    between atoms: C_4  and  C_5
REMARK                            x       y       z     vdW  Elec       q    Type
REMARK                         _______ _______ _______ _____ _____    ______ ____
ROOT
ATOM      1  N   UNL     1       0.576  -3.008 -16.356  0.00  0.00    -0.354 N 
ATOM      2  N   UNL     1       2.030  -1.626 -15.197  0.00  0.00    -0.372 N 
ATOM      3  N   UNL     1       2.893  -3.155 -16.674  0.00  0.00    -0.372 N 
ATOM      4  C   UNL     1       1.826  -2.607 -16.085  0.00  0.00    +0.166 C 
ATOM      5  H   UNL     1      -0.189  -2.573 -15.853  0.00  0.00    +0.163 HD
ATOM      6  H   UNL     1       2.961  -1.300 -14.975  0.00  0.00    +0.159 HD
ATOM      7  H   UNL     1       1.261  -1.162 -14.730  0.00  0.00    +0.159 HD
ATOM      8  H   UNL     1       2.807  -3.904 -17.349  0.00  0.00    +0.159 HD
ATOM      9  H   UNL     1       3.834  -2.851 -16.456  0.00  0.00    +0.159 HD
ENDROOT
BRANCH   1  10
ATOM     10  C   UNL     1       0.242  -4.031 -17.345  0.00  0.00    +0.151 C 
BRANCH  10  11
ATOM     11  C   UNL     1      -1.185  -4.459 -17.146  0.00  0.00    -0.028 A 
ATOM     12  C   UNL     1      -1.535  -5.817 -17.194  0.00  0.00    +0.005 A 
ATOM     13  C   UNL     1      -2.193  -3.513 -16.904  0.00  0.00    +0.005 A 
ATOM     14  C   UNL     1      -2.856  -6.217 -16.980  0.00  0.00    +0.000 A 
ATOM     15  C   UNL     1      -3.511  -3.917 -16.691  0.00  0.00    +0.000 A 
ATOM     16  C   UNL     1      -3.841  -5.269 -16.727  0.00  0.00    +0.000 A 
ENDBRANCH  10  11
ENDBRANCH   1  10
TORSDOF 2
ENDMDL
MODEL 7
REMARK VINA RESULT:    -4.116     33.554     34.275
REMARK INTER + INTRA:          -4.689
REMARK INTER:                  -4.510
REMARK INTRA:                  -0.179
REMARK UNBOUND:                -0.092
REMARK  Name = 1550473
REMARK  2 active torsions:
REMARK  status: ('A' for Active; 'I' for Inactive)
REMARK    1  A    between atoms: N_1  and  C_4
REMARK    2  A    between atoms: C_4  and  C_5
REMARK                            x       y       z     vdW  Elec       q    Type
REMARK                         _______ _______ _______ _____ _____    ______ ____
ROOT
ATOM      1  N   UNL     1      22.874   1.866  40.557  0.00  0.00    -0.354 N 
ATOM      2  N   UNL     1      24.206   1.409  42.396  0.00  0.00    -0.372 N 
ATOM      3  N   UNL     1      23.024  -0.304  41.430  0.00  0.00    -0.372 N 
ATOM      4  C   UNL     1      23.358   0.991  41.449  0.00  0.00    +0.166 C 
ATOM      5  H   UNL     1      23.142   2.839  40.644  0.00  0.00    +0.163 HD
ATOM      6  H   UNL     1      24.590   0.772  43.081  0.00  0.00    +0.159 HD
ATOM      7  H   UNL     1      24.508   2.374  42.452  0.00  0.00    +0.159 HD
ATOM      8  H   UNL     1      22.385  -0.682  40.744  0.00  0.00    +0.159 HD
ATOM      9  H   UNL     1      23.389  -0.955  42.114  0.00  0.00    +0.159 HD
ENDROOT
BRANCH   1  10
ATOM     10  C   UNL     1      21.987   1.502  39.453  0.00  0.00    +0.151 C 
BRANCH  10  11
ATOM     11  C   UNL     1      22.810   1.288  38.212  0.00  0.00    -0.028 A 
ATOM     12  C   UNL     1      23.335   2.383  37.510  0.00  0.00    +0.005 A 
ATOM     13  C   UNL     1      23.072  -0.006  37.738  0.00  0.00    +0.005 A 
ATOM     14  C   UNL     1      24.124   2.184  36.374  0.00  0.00    +0.000 A 
ATOM     15  C   UNL     1      23.860  -0.200  36.603  0.00  0.00    +0.000 A 
ATOM     16  C   UNL     1      24.388   0.895  35.923  0.00  0.00    +0.000 A 
ENDBRANCH  10  11
ENDBRANCH   1  10
TORSDOF 2
ENDMDL
MODEL 8
REMARK VINA RESULT:    -4.019     20.159     21.449
REMARK INTER + INTRA:          -4.581
REMARK INTER:                  -4.437
REMARK INTRA:                  -0.144
REMARK UNBOUND:                -0.092
REMARK  Name = 1550473
REMARK  2 active torsions:
REMARK  status: ('A' for Active; 'I' for Inactive)
REMARK    1  A    between atoms: N_1  and  C_4
REMARK    2  A    between atoms: C_4  and  C_5
REMARK                            x       y       z     vdW  Elec       q    Type
REMARK                         _______ _______ _______ _____ _____    ______ ____
ROOT
ATOM      1  N   UNL     1       4.201 -14.552  -1.313  0.00  0.00    -0.354 N 
ATOM      2  N   UNL     1       4.358 -14.510  -3.623  0.00  0.00    -0.372 N 
ATOM      3  N   UNL     1       2.990 -12.995  -2.576  0.00  0.00    -0.372 N 
ATOM      4  C   UNL     1       3.847 -14.017  -2.489  0.00  0.00    +0.166 C 
ATOM      5  H   UNL     1       4.832 -15.346  -1.316  0.00  0.00    +0.163 HD
ATOM      6  H   UNL     1       4.111 -14.125  -4.525  0.00  0.00    +0.159 HD
ATOM      7  H   UNL     1       5.023 -15.274  -3.620  0.00  0.00    +0.159 HD
ATOM      8  H   UNL     1       2.564 -12.581  -1.758  0.00  0.00    +0.159 HD
ATOM      9  H   UNL     1       2.722 -12.603  -3.471  0.00  0.00    +0.159 HD
ENDROOT
BRANCH   1  10
ATOM     10  C   UNL     1       3.744 -14.055  -0.017  0.00  0.00    +0.151 C 
BRANCH  10  11
ATOM     11  C   UNL     1       4.937 -13.632   0.796  0.00  0.00    -0.028 A 
ATOM     12  C   UNL     1       4.765 -12.982   2.027  0.00  0.00    +0.005 A 
ATOM     13  C   UNL     1       6.241 -13.885   0.344  0.00  0.00    +0.005 A 
ATOM     14  C   UNL     1       5.872 -12.616   2.796  0.00  0.00    +0.000 A 
ATOM     15  C   UNL     1       7.344 -13.518   1.115  0.00  0.00    +0.000 A 
ATOM     16  C   UNL     1       7.159 -12.886   2.342  0.00  0.00    +0.000 A 
ENDBRANCH  10  11
ENDBRANCH   1  10
TORSDOF 2
ENDMDL
MODEL 9
REMARK VINA RESULT:    -3.993     14.023     15.028
REMARK INTER + INTRA:          -4.552
REMARK INTER:                  -4.411
REMARK INTRA:                  -0.141
REMARK UNBOUND:                -0.092
REMARK  Name = 1550473
REMARK  2 active torsions:
REMARK  status: ('A' for Active; 'I' for Inactive)
REMARK    1  A    between atoms: N_1  and  C_4
REMARK    2  A    between atoms: C_4  and  C_5
REMARK                            x       y       z     vdW  Elec       q    Type
REMARK                         _______ _______ _______ _____ _____    ______ ____
ROOT
ATOM      1  N   UNL     1       8.116  -9.518   3.468  0.00  0.00    -0.354 N 
ATOM      2  N   UNL     1       6.625 -10.379   5.016  0.00  0.00    -0.372 N 
ATOM      3  N   UNL     1       5.860  -9.839   2.921  0.00  0.00    -0.372 N 
ATOM      4  C   UNL     1       6.875  -9.906   3.790  0.00  0.00    +0.166 C 
ATOM      5  H   UNL     1       8.835  -9.565   4.181  0.00  0.00    +0.163 HD
ATOM      6  H   UNL     1       5.699 -10.682   5.287  0.00  0.00    +0.159 HD
ATOM      7  H   UNL     1       7.355 -10.468   5.712  0.00  0.00    +0.159 HD
ATOM      8  H   UNL     1       5.982  -9.486   1.982  0.00  0.00    +0.159 HD
ATOM      9  H   UNL     1       4.924 -10.127   3.177  0.00  0.00    +0.159 HD
ENDROOT
BRANCH   1  10
ATOM     10  C   UNL     1       8.506  -9.039   2.143  0.00  0.00    +0.151 C 
BRANCH  10  11
ATOM     11  C   UNL     1       9.361  -7.811   2.296  0.00  0.00    -0.028 A 
ATOM     12  C   UNL     1       9.677  -7.318   3.571  0.00  0.00    +0.005 A 
ATOM     13  C   UNL     1       9.864  -7.140   1.171  0.00  0.00    +0.005 A 
ATOM     14  C   UNL     1      10.497  -6.196   3.714  0.00  0.00    +0.000 A 
ATOM     15  C   UNL     1      10.681  -6.019   1.318  0.00  0.00    +0.000 A 
ATOM     16  C   UNL     1      10.999  -5.549   2.590  0.00  0.00    +0.000 A 
ENDBRANCH  10  11
ENDBRANCH   1  10
TORSDOF 2
ENDMDL
