MODEL 1
REMARK VINA RESULT:    -5.329      0.000      0.000
REMARK INTER + INTRA:          -6.065
REMARK INTER:                  -5.952
REMARK INTRA:                  -0.113
REMARK UNBOUND:                -0.113
REMARK  Name = 1550473
REMARK  2 active torsions:
REMARK  status: ('A' for Active; 'I' for Inactive)
REMARK    1  A    between atoms: N_1  and  C_4
REMARK    2  A    between atoms: C_4  and  C_5
REMARK                            x       y       z     vdW  Elec       q    Type
REMARK                         _______ _______ _______ _____ _____    ______ ____
ROOT
ATOM      1  N   UNL     1      -2.767   4.149   6.690  0.00  0.00    -0.354 N 
ATOM      2  N   UNL     1      -4.337   5.677   5.939  0.00  0.00    -0.372 N 
ATOM      3  N   UNL     1      -2.263   5.645   4.958  0.00  0.00    -0.372 N 
ATOM      4  C   UNL     1      -3.110   5.148   5.866  0.00  0.00    +0.166 C 
ATOM      5  H   UNL     1      -3.445   3.838   7.376  0.00  0.00    +0.163 HD
ATOM      6  H   UNL     1      -4.625   6.430   5.328  0.00  0.00    +0.159 HD
ATOM      7  H   UNL     1      -5.027   5.333   6.595  0.00  0.00    +0.159 HD
ATOM      8  H   UNL     1      -1.320   5.294   4.856  0.00  0.00    +0.159 HD
ATOM      9  H   UNL     1      -2.529   6.406   4.346  0.00  0.00    +0.159 HD
ENDROOT
BRANCH   1  10
ATOM     10  C   UNL     1      -1.474   3.468   6.656  0.00  0.00    +0.151 C 
BRANCH  10  11
ATOM     11  C   UNL     1      -1.603   2.135   7.340  0.00  0.00    -0.028 A 
ATOM     12  C   UNL     1      -0.889   1.022   6.872  0.00  0.00    +0.005 A 
ATOM     13  C   UNL     1      -2.434   1.979   8.460  0.00  0.00    +0.005 A 
ATOM     14  C   UNL     1      -0.985  -0.209   7.526  0.00  0.00    +0.000 A 
ATOM     15  C   UNL     1      -2.528   0.748   9.109  0.00  0.00    +0.000 A 
ATOM     16  C   UNL     1      -1.802  -0.345   8.643  0.00  0.00    +0.000 A 
ENDBRANCH  10  11
ENDBRANCH   1  10
TORSDOF 2
ENDMDL
MODEL 2
REMARK VINA RESULT:    -4.686     90.948     91.657
REMARK INTER + INTRA:          -5.346
REMARK INTER:                  -5.178
REMARK INTRA:                  -0.169
REMARK UNBOUND:                -0.113
REMARK  Name = 1550473
REMARK  2 active torsions:
REMARK  status: ('A' for Active; 'I' for Inactive)
REMARK    1  A    between atoms: N_1  and  C_4
REMARK    2  A    between atoms: C_4  and  C_5
REMARK                            x       y       z     vdW  Elec       q    Type
REMARK                         _______ _______ _______ _____ _____    ______ ____
ROOT
ATOM      1  N   UNL     1     -14.717 -27.196 -80.232  0.00  0.00    -0.354 N 
ATOM      2  N   UNL     1     -16.873 -26.432 -80.596  0.00  0.00    -0.372 N 
ATOM      3  N   UNL     1     -16.464 -27.778 -78.783  0.00  0.00    -0.372 N 
ATOM      4  C   UNL     1     -16.004 -27.142 -79.866  0.00  0.00    +0.166 C 
ATOM      5  H   UNL     1     -14.437 -26.717 -81.080  0.00  0.00    +0.163 HD
ATOM      6  H   UNL     1     -17.850 -26.370 -80.343  0.00  0.00    +0.159 HD
ATOM      7  H   UNL     1     -16.581 -25.916 -81.418  0.00  0.00    +0.159 HD
ATOM      8  H   UNL     1     -15.862 -28.335 -78.193  0.00  0.00    +0.159 HD
ATOM      9  H   UNL     1     -17.441 -27.737 -78.519  0.00  0.00    +0.159 HD
ENDROOT
BRANCH   1  10
ATOM     10  C   UNL     1     -13.680 -27.897 -79.476  0.00  0.00    +0.151 C 
BRANCH  10  11
ATOM     11  C   UNL     1     -12.757 -26.886 -78.855  0.00  0.00    -0.028 A 
ATOM     12  C   UNL     1     -11.703 -26.333 -79.597  0.00  0.00    +0.005 A 
ATOM     13  C   UNL     1     -12.933 -26.472 -77.525  0.00  0.00    +0.005 A 
ATOM     14  C   UNL     1     -10.863 -25.371 -79.031  0.00  0.00    +0.000 A 
ATOM     15  C   UNL     1     -12.092 -25.512 -76.963  0.00  0.00    +0.000 A 
ATOM     16  C   UNL     1     -11.059 -24.960 -77.716  0.00  0.00    +0.000 A 
ENDBRANCH  10  11
ENDBRANCH   1  10
TORSDOF 2
ENDMDL
MODEL 3
REMARK VINA RESULT:    -4.364      1.927      2.689
REMARK INTER + INTRA:          -4.987
REMARK INTER:                  -4.849
REMARK INTRA:                  -0.138
REMARK UNBOUND:                -0.113
REMARK  Name = 1550473
REMARK  2 active torsions:
REMARK  status: ('A' for Active; 'I' for Inactive)
REMARK    1  A    between atoms: N_1  and  C_4
REMARK    2  A    between atoms: C_4  and  C_5
REMARK                            x       y       z     vdW  Elec       q    Type
REMARK                         _______ _______ _______ _____ _____    ______ ____
ROOT
ATOM      1  N   UNL     1      -5.419   3.749   5.943  0.00  0.00    -0.354 N 
ATOM      2  N   UNL     1      -7.474   4.807   6.085  0.00  0.00    -0.372 N 
ATOM      3  N   UNL     1      -5.577   6.087   5.926  0.00  0.00    -0.372 N 
ATOM      4  C   UNL     1      -6.142   4.876   5.984  0.00  0.00    +0.166 C 
ATOM      5  H   UNL     1      -5.904   2.863   6.021  0.00  0.00    +0.163 HD
ATOM      6  H   UNL     1      -8.046   5.640   6.115  0.00  0.00    +0.159 HD
ATOM      7  H   UNL     1      -7.961   3.919   6.117  0.00  0.00    +0.159 HD
ATOM      8  H   UNL     1      -4.576   6.208   5.855  0.00  0.00    +0.159 HD
ATOM      9  H   UNL     1      -6.132   6.933   5.966  0.00  0.00    +0.159 HD
ENDROOT
BRANCH   1  10
ATOM     10  C   UNL     1      -3.967   3.715   5.779  0.00  0.00    +0.151 C 
BRANCH  10  11
ATOM     11  C   UNL     1      -3.379   2.783   6.803  0.00  0.00    -0.028 A 
ATOM     12  C   UNL     1      -4.173   1.796   7.407  0.00  0.00    +0.005 A 
ATOM     13  C   UNL     1      -2.028   2.877   7.169  0.00  0.00    +0.005 A 
ATOM     14  C   UNL     1      -3.621   0.911   8.335  0.00  0.00    +0.000 A 
ATOM     15  C   UNL     1      -1.480   1.991   8.098  0.00  0.00    +0.000 A 
ATOM     16  C   UNL     1      -2.276   1.007   8.678  0.00  0.00    +0.000 A 
ENDBRANCH  10  11
ENDBRANCH   1  10
TORSDOF 2
ENDMDL
MODEL 4
REMARK VINA RESULT:    -4.134      3.426      5.304
REMARK INTER + INTRA:          -4.730
REMARK INTER:                  -4.565
REMARK INTRA:                  -0.164
REMARK UNBOUND:                -0.113
REMARK  Name = 1550473
REMARK  2 active torsions:
REMARK  status: ('A' for Active; 'I' for Inactive)
REMARK    1  A    between atoms: N_1  and  C_4
REMARK    2  A    between atoms: C_4  and  C_5
REMARK                            x       y       z     vdW  Elec       q    Type
REMARK                         _______ _______ _______ _____ _____    ______ ____
ROOT
ATOM      1  N   UNL     1      -1.820  -0.479   7.819  0.00  0.00    -0.354 N 
ATOM      2  N   UNL     1      -2.865  -2.535   7.613  0.00  0.00    -0.372 N 
ATOM      3  N   UNL     1      -2.911  -1.467   9.643  0.00  0.00    -0.372 N 
ATOM      4  C   UNL     1      -2.526  -1.480   8.362  0.00  0.00    +0.166 C 
ATOM      5  H   UNL     1      -1.532  -0.563   6.851  0.00  0.00    +0.163 HD
ATOM      6  H   UNL     1      -3.400  -3.304   7.994  0.00  0.00    +0.159 HD
ATOM      7  H   UNL     1      -2.616  -2.595   6.633  0.00  0.00    +0.159 HD
ATOM      8  H   UNL     1      -2.682  -0.702  10.263  0.00  0.00    +0.159 HD
ATOM      9  H   UNL     1      -3.437  -2.232  10.046  0.00  0.00    +0.159 HD
ENDROOT
BRANCH   1  10
ATOM     10  C   UNL     1      -1.446   0.740   8.535  0.00  0.00    +0.151 C 
BRANCH  10  11
ATOM     11  C   UNL     1      -2.181   1.907   7.935  0.00  0.00    -0.028 A 
ATOM     12  C   UNL     1      -3.538   2.115   8.221  0.00  0.00    +0.005 A 
ATOM     13  C   UNL     1      -1.525   2.810   7.086  0.00  0.00    +0.005 A 
ATOM     14  C   UNL     1      -4.214   3.216   7.689  0.00  0.00    +0.000 A 
ATOM     15  C   UNL     1      -2.203   3.907   6.555  0.00  0.00    +0.000 A 
ATOM     16  C   UNL     1      -3.547   4.111   6.859  0.00  0.00    +0.000 A 
ENDBRANCH  10  11
ENDBRANCH   1  10
TORSDOF 2
ENDMDL
MODEL 5
REMARK VINA RESULT:    -4.119      3.007      5.180
REMARK INTER + INTRA:          -4.713
REMARK INTER:                  -4.554
REMARK INTRA:                  -0.159
REMARK UNBOUND:                -0.113
REMARK  Name = 1550473
REMARK  2 active torsions:
REMARK  status: ('A' for Active; 'I' for Inactive)
REMARK    1  A    between atoms: N_1  and  C_4
REMARK    2  A    between atoms: C_4  and  C_5
REMARK                            x       y       z     vdW  Elec       q    Type
REMARK                         _______ _______ _______ _____ _____    ______ ____
ROOT
ATOM      1  N   UNL     1      -3.954   0.953   6.369  0.00  0.00    -0.354 N 
ATOM      2  N   UNL     1      -4.333  -0.327   8.262  0.00  0.00    -0.372 N 
ATOM      3  N   UNL     1      -2.374   0.857   8.098  0.00  0.00    -0.372 N 
ATOM      4  C   UNL     1      -3.548   0.504   7.565  0.00  0.00    +0.166 C 
ATOM      5  H   UNL     1      -4.841   0.624   6.007  0.00  0.00    +0.163 HD
ATOM      6  H   UNL     1      -4.055  -0.680   9.168  0.00  0.00    +0.159 HD
ATOM      7  H   UNL     1      -5.239  -0.618   7.918  0.00  0.00    +0.159 HD
ATOM      8  H   UNL     1      -1.734   1.477   7.620  0.00  0.00    +0.159 HD
ATOM      9  H   UNL     1      -2.074   0.505   8.998  0.00  0.00    +0.159 HD
ENDROOT
BRANCH   1  10
ATOM     10  C   UNL     1      -3.199   1.904   5.554  0.00  0.00    +0.151 C 
BRANCH  10  11
ATOM     11  C   UNL     1      -3.807   3.271   5.704  0.00  0.00    -0.028 A 
ATOM     12  C   UNL     1      -3.009   4.420   5.603  0.00  0.00    +0.005 A 
ATOM     13  C   UNL     1      -5.182   3.424   5.942  0.00  0.00    +0.005 A 
ATOM     14  C   UNL     1      -3.578   5.691   5.712  0.00  0.00    +0.000 A 
ATOM     15  C   UNL     1      -5.746   4.695   6.052  0.00  0.00    +0.000 A 
ATOM     16  C   UNL     1      -4.945   5.828   5.934  0.00  0.00    +0.000 A 
ENDBRANCH  10  11
ENDBRANCH   1  10
TORSDOF 2
ENDMDL
MODEL 6
REMARK VINA RESULT:    -3.997     19.201     19.977
REMARK INTER + INTRA:          -4.577
REMARK INTER:                  -4.441
REMARK INTRA:                  -0.136
REMARK UNBOUND:                -0.113
REMARK  Name = 1550473
REMARK  2 active torsions:
REMARK  status: ('A' for Active; 'I' for Inactive)
REMARK    1  A    between atoms: N_1  and  C_4
REMARK    2  A    between atoms: C_4  and  C_5
REMARK                            x       y       z     vdW  Elec       q    Type
REMARK                         _______ _______ _______ _____ _____    ______ ____
ROOT
ATOM      1  N   UNL     1       7.084  20.372   2.259  0.00  0.00    -0.354 N 
ATOM      2  N   UNL     1       5.310  21.093   3.563  0.00  0.00    -0.372 N 
ATOM      3  N   UNL     1       7.315  20.626   4.578  0.00  0.00    -0.372 N 
ATOM      4  C   UNL     1       6.583  20.692   3.460  0.00  0.00    +0.166 C 
ATOM      5  H   UNL     1       6.469  20.414   1.455  0.00  0.00    +0.163 HD
ATOM      6  H   UNL     1       4.906  21.343   4.455  0.00  0.00    +0.159 HD
ATOM      7  H   UNL     1       4.711  21.178   2.751  0.00  0.00    +0.159 HD
ATOM      8  H   UNL     1       8.280  20.325   4.569  0.00  0.00    +0.159 HD
ATOM      9  H   UNL     1       6.924  20.861   5.482  0.00  0.00    +0.159 HD
ENDROOT
BRANCH   1  10
ATOM     10  C   UNL     1       8.472  19.976   2.032  0.00  0.00    +0.151 C 
BRANCH  10  11
ATOM     11  C   UNL     1       8.494  18.666   1.293  0.00  0.00    -0.028 A 
ATOM     12  C   UNL     1       7.531  18.386   0.312  0.00  0.00    +0.005 A 
ATOM     13  C   UNL     1       9.479  17.704   1.564  0.00  0.00    +0.005 A 
ATOM     14  C   UNL     1       7.569  17.182  -0.395  0.00  0.00    +0.000 A 
ATOM     15  C   UNL     1       9.513  16.503   0.856  0.00  0.00    +0.000 A 
ATOM     16  C   UNL     1       8.560  16.243  -0.125  0.00  0.00    +0.000 A 
ENDBRANCH  10  11
ENDBRANCH   1  10
TORSDOF 2
ENDMDL
MODEL 7
REMARK VINA RESULT:    -3.969     85.893     86.644
REMARK INTER + INTRA:          -4.546
REMARK INTER:                  -4.373
REMARK INTRA:                  -0.172
REMARK UNBOUND:                -0.113
REMARK  Name = 1550473
REMARK  2 active torsions:
REMARK  status: ('A' for Active; 'I' for Inactive)
REMARK    1  A    between atoms: N_1  and  C_4
REMARK    2  A    between atoms: C_4  and  C_5
REMARK                            x       y       z     vdW  Elec       q    Type
REMARK                         _______ _______ _______ _____ _____    ______ ____
ROOT
ATOM      1  N   UNL     1      -9.706 -22.220 -76.019  0.00  0.00    -0.354 N 
ATOM      2  N   UNL     1     -10.919 -22.571 -77.961  0.00  0.00    -0.372 N 
ATOM      3  N   UNL     1     -11.350 -23.886 -76.131  0.00  0.00    -0.372 N 
ATOM      4  C   UNL     1     -10.651 -22.892 -76.689  0.00  0.00    +0.166 C 
ATOM      5  H   UNL     1      -9.191 -21.497 -76.508  0.00  0.00    +0.163 HD
ATOM      6  H   UNL     1     -11.629 -23.058 -78.491  0.00  0.00    +0.159 HD
ATOM      7  H   UNL     1     -10.434 -21.817 -78.433  0.00  0.00    +0.159 HD
ATOM      8  H   UNL     1     -11.193 -24.181 -75.177  0.00  0.00    +0.159 HD
ATOM      9  H   UNL     1     -12.057 -24.393 -76.649  0.00  0.00    +0.159 HD
ENDROOT
BRANCH   1  10
ATOM     10  C   UNL     1      -9.376 -22.455 -74.615  0.00  0.00    +0.151 C 
BRANCH  10  11
ATOM     11  C   UNL     1      -8.012 -23.083 -74.530  0.00  0.00    -0.028 A 
ATOM     12  C   UNL     1      -7.850 -24.463 -74.718  0.00  0.00    +0.005 A 
ATOM     13  C   UNL     1      -6.876 -22.301 -74.266  0.00  0.00    +0.005 A 
ATOM     14  C   UNL     1      -6.580 -25.042 -74.669  0.00  0.00    +0.000 A 
ATOM     15  C   UNL     1      -5.610 -22.883 -74.217  0.00  0.00    +0.000 A 
ATOM     16  C   UNL     1      -5.461 -24.253 -74.421  0.00  0.00    +0.000 A 
ENDBRANCH  10  11
ENDBRANCH   1  10
TORSDOF 2
ENDMDL
MODEL 8
REMARK VINA RESULT:    -3.896      4.273      5.931
REMARK INTER + INTRA:          -4.464
REMARK INTER:                  -4.342
REMARK INTRA:                  -0.121
REMARK UNBOUND:                -0.113
REMARK  Name = 1550473
REMARK  2 active torsions:
REMARK  status: ('A' for Active; 'I' for Inactive)
REMARK    1  A    between atoms: N_1  and  C_4
REMARK    2  A    between atoms: C_4  and  C_5
REMARK                            x       y       z     vdW  Elec       q    Type
REMARK                         _______ _______ _______ _____ _____    ______ ____
ROOT
ATOM      1  N   UNL     1      -3.166  -2.046   8.579  0.00  0.00    -0.354 N 
ATOM      2  N   UNL     1      -4.732  -3.408   9.604  0.00  0.00    -0.372 N 
ATOM      3  N   UNL     1      -2.503  -3.867   9.896  0.00  0.00    -0.372 N 
ATOM      4  C   UNL     1      -3.454  -3.100   9.354  0.00  0.00    +0.166 C 
ATOM      5  H   UNL     1      -3.933  -1.522   8.173  0.00  0.00    +0.163 HD
ATOM      6  H   UNL     1      -4.981  -4.196  10.188  0.00  0.00    +0.159 HD
ATOM      7  H   UNL     1      -5.497  -2.856   9.235  0.00  0.00    +0.159 HD
ATOM      8  H   UNL     1      -1.520  -3.691   9.740  0.00  0.00    +0.159 HD
ATOM      9  H   UNL     1      -2.732  -4.667  10.473  0.00  0.00    +0.159 HD
ENDROOT
BRANCH   1  10
ATOM     10  C   UNL     1      -1.807  -1.592   8.288  0.00  0.00    +0.151 C 
BRANCH  10  11
ATOM     11  C   UNL     1      -1.834  -0.120   7.985  0.00  0.00    -0.028 A 
ATOM     12  C   UNL     1      -1.091   0.401   6.916  0.00  0.00    +0.005 A 
ATOM     13  C   UNL     1      -2.606   0.760   8.760  0.00  0.00    +0.005 A 
ATOM     14  C   UNL     1      -1.140   1.764   6.615  0.00  0.00    +0.000 A 
ATOM     15  C   UNL     1      -2.652   2.120   8.457  0.00  0.00    +0.000 A 
ATOM     16  C   UNL     1      -1.920   2.622   7.383  0.00  0.00    +0.000 A 
ENDBRANCH  10  11
ENDBRANCH   1  10
TORSDOF 2
ENDMDL
MODEL 9
REMARK VINA RESULT:    -3.851     12.620     13.759
REMARK INTER + INTRA:          -4.414
REMARK INTER:                  -4.311
REMARK INTRA:                  -0.102
REMARK UNBOUND:                -0.113
REMARK  Name = 1550473
REMARK  2 active torsions:
REMARK  status: ('A' for Active; 'I' for Inactive)
REMARK    1  A    between atoms: N_1  and  C_4
REMARK    2  A    between atoms: C_4  and  C_5
REMARK                            x       y       z     vdW  Elec       q    Type
REMARK                         _______ _______ _______ _____ _____    ______ ____
ROOT
ATOM      1  N   UNL     1      -4.408  15.377   3.101  0.00  0.00    -0.354 N 
ATOM      2  N   UNL     1      -2.707  14.817   1.632  0.00  0.00    -0.372 N 
ATOM      3  N   UNL     1      -4.127  16.534   1.083  0.00  0.00    -0.372 N 
ATOM      4  C   UNL     1      -3.760  15.582   1.947  0.00  0.00    +0.166 C 
ATOM      5  H   UNL     1      -4.098  14.619   3.699  0.00  0.00    +0.163 HD
ATOM      6  H   UNL     1      -2.197  14.950   0.769  0.00  0.00    +0.159 HD
ATOM      7  H   UNL     1      -2.372  14.090   2.252  0.00  0.00    +0.159 HD
ATOM      8  H   UNL     1      -4.917  17.141   1.259  0.00  0.00    +0.159 HD
ATOM      9  H   UNL     1      -3.636  16.675   0.209  0.00  0.00    +0.159 HD
ENDROOT
BRANCH   1  10
ATOM     10  C   UNL     1      -5.532  16.189   3.563  0.00  0.00    +0.151 C 
BRANCH  10  11
ATOM     11  C   UNL     1      -5.998  15.670   4.895  0.00  0.00    -0.028 A 
ATOM     12  C   UNL     1      -6.380  14.328   5.043  0.00  0.00    +0.005 A 
ATOM     13  C   UNL     1      -6.055  16.513   6.016  0.00  0.00    +0.005 A 
ATOM     14  C   UNL     1      -6.785  13.838   6.287  0.00  0.00    +0.000 A 
ATOM     15  C   UNL     1      -6.460  16.020   7.256  0.00  0.00    +0.000 A 
ATOM     16  C   UNL     1      -6.822  14.682   7.392  0.00  0.00    +0.000 A 
ENDBRANCH  10  11
ENDBRANCH   1  10
TORSDOF 2
ENDMDL
