MODEL 1
REMARK VINA RESULT:    -5.386      0.000      0.000
REMARK INTER + INTRA:          -6.129
REMARK INTER:                  -6.016
REMARK INTRA:                  -0.114
REMARK UNBOUND:                -0.114
REMARK  Name = 1550473
REMARK  2 active torsions:
REMARK  status: ('A' for Active; 'I' for Inactive)
REMARK    1  A    between atoms: N_1  and  C_4
REMARK    2  A    between atoms: C_4  and  C_5
REMARK                            x       y       z     vdW  Elec       q    Type
REMARK                         _______ _______ _______ _____ _____    ______ ____
ROOT
ATOM      1  N   UNL     1       7.858  -7.445  -4.406  0.00  0.00    -0.354 N 
ATOM      2  N   UNL     1       5.663  -7.067  -5.043  0.00  0.00    -0.372 N 
ATOM      3  N   UNL     1       6.612  -9.109  -5.487  0.00  0.00    -0.372 N 
ATOM      4  C   UNL     1       6.726  -7.879  -4.976  0.00  0.00    +0.166 C 
ATOM      5  H   UNL     1       7.890  -6.491  -4.064  0.00  0.00    +0.163 HD
ATOM      6  H   UNL     1       4.795  -7.368  -5.464  0.00  0.00    +0.159 HD
ATOM      7  H   UNL     1       5.683  -6.130  -4.659  0.00  0.00    +0.159 HD
ATOM      8  H   UNL     1       7.378  -9.768  -5.473  0.00  0.00    +0.159 HD
ATOM      9  H   UNL     1       5.754  -9.424  -5.923  0.00  0.00    +0.159 HD
ENDROOT
BRANCH   1  10
ATOM     10  C   UNL     1       9.054  -8.267  -4.234  0.00  0.00    +0.151 C 
BRANCH  10  11
ATOM     11  C   UNL     1      10.168  -7.409  -3.702  0.00  0.00    -0.028 A 
ATOM     12  C   UNL     1      10.348  -6.101  -4.178  0.00  0.00    +0.005 A 
ATOM     13  C   UNL     1      11.044  -7.894  -2.719  0.00  0.00    +0.005 A 
ATOM     14  C   UNL     1      11.365  -5.293  -3.663  0.00  0.00    +0.000 A 
ATOM     15  C   UNL     1      12.058  -7.084  -2.209  0.00  0.00    +0.000 A 
ATOM     16  C   UNL     1      12.216  -5.783  -2.679  0.00  0.00    +0.000 A 
ENDBRANCH  10  11
ENDBRANCH   1  10
TORSDOF 2
ENDMDL
MODEL 2
REMARK VINA RESULT:    -4.606     24.767     25.733
REMARK INTER + INTRA:          -5.258
REMARK INTER:                  -5.103
REMARK INTRA:                  -0.156
REMARK UNBOUND:                -0.114
REMARK  Name = 1550473
REMARK  2 active torsions:
REMARK  status: ('A' for Active; 'I' for Inactive)
REMARK    1  A    between atoms: N_1  and  C_4
REMARK    2  A    between atoms: C_4  and  C_5
REMARK                            x       y       z     vdW  Elec       q    Type
REMARK                         _______ _______ _______ _____ _____    ______ ____
ROOT
ATOM      1  N   UNL     1      -8.671   7.735   5.290  0.00  0.00    -0.354 N 
ATOM      2  N   UNL     1      -6.459   8.265   4.853  0.00  0.00    -0.372 N 
ATOM      3  N   UNL     1      -7.414   9.012   6.801  0.00  0.00    -0.372 N 
ATOM      4  C   UNL     1      -7.529   8.335   5.653  0.00  0.00    +0.166 C 
ATOM      5  H   UNL     1      -8.703   7.264   4.394  0.00  0.00    +0.163 HD
ATOM      6  H   UNL     1      -5.583   8.705   5.102  0.00  0.00    +0.159 HD
ATOM      7  H   UNL     1      -6.480   7.754   3.979  0.00  0.00    +0.159 HD
ATOM      8  H   UNL     1      -8.186   9.107   7.447  0.00  0.00    +0.159 HD
ATOM      9  H   UNL     1      -6.549   9.469   7.062  0.00  0.00    +0.159 HD
ENDROOT
BRANCH   1  10
ATOM     10  C   UNL     1      -9.878   7.707   6.115  0.00  0.00    +0.151 C 
BRANCH  10  11
ATOM     11  C   UNL     1      -9.998   6.355   6.762  0.00  0.00    -0.028 A 
ATOM     12  C   UNL     1     -10.849   5.379   6.221  0.00  0.00    +0.005 A 
ATOM     13  C   UNL     1      -9.261   6.041   7.914  0.00  0.00    +0.005 A 
ATOM     14  C   UNL     1     -10.938   4.113   6.804  0.00  0.00    +0.000 A 
ATOM     15  C   UNL     1      -9.354   4.776   8.494  0.00  0.00    +0.000 A 
ATOM     16  C   UNL     1     -10.191   3.812   7.938  0.00  0.00    +0.000 A 
ENDBRANCH  10  11
ENDBRANCH   1  10
TORSDOF 2
ENDMDL
MODEL 3
REMARK VINA RESULT:    -4.577     24.313     25.327
REMARK INTER + INTRA:          -5.226
REMARK INTER:                  -5.150
REMARK INTRA:                  -0.076
REMARK UNBOUND:                -0.114
REMARK  Name = 1550473
REMARK  2 active torsions:
REMARK  status: ('A' for Active; 'I' for Inactive)
REMARK    1  A    between atoms: N_1  and  C_4
REMARK    2  A    between atoms: C_4  and  C_5
REMARK                            x       y       z     vdW  Elec       q    Type
REMARK                         _______ _______ _______ _____ _____    ______ ____
ROOT
ATOM      1  N   UNL     1       6.423   8.534  15.609  0.00  0.00    -0.354 N 
ATOM      2  N   UNL     1       4.265   7.878  15.080  0.00  0.00    -0.372 N 
ATOM      3  N   UNL     1       5.945   7.489  13.567  0.00  0.00    -0.372 N 
ATOM      4  C   UNL     1       5.560   7.971  14.753  0.00  0.00    +0.166 C 
ATOM      5  H   UNL     1       6.063   8.907  16.480  0.00  0.00    +0.163 HD
ATOM      6  H   UNL     1       3.592   7.455  14.456  0.00  0.00    +0.159 HD
ATOM      7  H   UNL     1       3.916   8.211  15.971  0.00  0.00    +0.159 HD
ATOM      8  H   UNL     1       6.907   7.533  13.258  0.00  0.00    +0.159 HD
ATOM      9  H   UNL     1       5.284   7.072  12.924  0.00  0.00    +0.159 HD
ENDROOT
BRANCH   1  10
ATOM     10  C   UNL     1       7.862   8.635  15.372  0.00  0.00    +0.151 C 
BRANCH  10  11
ATOM     11  C   UNL     1       8.174   9.999  14.820  0.00  0.00    -0.028 A 
ATOM     12  C   UNL     1       7.225  11.029  14.889  0.00  0.00    +0.005 A 
ATOM     13  C   UNL     1       9.419  10.268  14.231  0.00  0.00    +0.005 A 
ATOM     14  C   UNL     1       7.525  12.304  14.403  0.00  0.00    +0.000 A 
ATOM     15  C   UNL     1       9.714  11.542  13.746  0.00  0.00    +0.000 A 
ATOM     16  C   UNL     1       8.768  12.560  13.835  0.00  0.00    +0.000 A 
ENDBRANCH  10  11
ENDBRANCH   1  10
TORSDOF 2
ENDMDL
MODEL 4
REMARK VINA RESULT:    -4.441     26.134     27.169
REMARK INTER + INTRA:          -5.074
REMARK INTER:                  -4.927
REMARK INTRA:                  -0.146
REMARK UNBOUND:                -0.114
REMARK  Name = 1550473
REMARK  2 active torsions:
REMARK  status: ('A' for Active; 'I' for Inactive)
REMARK    1  A    between atoms: N_1  and  C_4
REMARK    2  A    between atoms: C_4  and  C_5
REMARK                            x       y       z     vdW  Elec       q    Type
REMARK                         _______ _______ _______ _____ _____    ______ ____
ROOT
ATOM      1  N   UNL     1      -1.523  15.136  -0.099  0.00  0.00    -0.354 N 
ATOM      2  N   UNL     1      -1.330  13.236  -1.409  0.00  0.00    -0.372 N 
ATOM      3  N   UNL     1      -0.664  15.254  -2.276  0.00  0.00    -0.372 N 
ATOM      4  C   UNL     1      -1.173  14.557  -1.255  0.00  0.00    +0.166 C 
ATOM      5  H   UNL     1      -1.931  14.557   0.626  0.00  0.00    +0.163 HD
ATOM      6  H   UNL     1      -1.072  12.770  -2.269  0.00  0.00    +0.159 HD
ATOM      7  H   UNL     1      -1.695  12.653  -0.666  0.00  0.00    +0.159 HD
ATOM      8  H   UNL     1      -0.526  16.254  -2.226  0.00  0.00    +0.159 HD
ATOM      9  H   UNL     1      -0.411  14.807  -3.149  0.00  0.00    +0.159 HD
ENDROOT
BRANCH   1  10
ATOM     10  C   UNL     1      -1.342  16.558   0.191  0.00  0.00    +0.151 C 
BRANCH  10  11
ATOM     11  C   UNL     1      -2.657  17.140   0.631  0.00  0.00    -0.028 A 
ATOM     12  C   UNL     1      -2.827  17.601   1.944  0.00  0.00    +0.005 A 
ATOM     13  C   UNL     1      -3.734  17.240  -0.263  0.00  0.00    +0.005 A 
ATOM     14  C   UNL     1      -4.038  18.170   2.345  0.00  0.00    +0.000 A 
ATOM     15  C   UNL     1      -4.942  17.808   0.142  0.00  0.00    +0.000 A 
ATOM     16  C   UNL     1      -5.093  18.275   1.445  0.00  0.00    +0.000 A 
ENDBRANCH  10  11
ENDBRANCH   1  10
TORSDOF 2
ENDMDL
MODEL 5
REMARK VINA RESULT:    -4.412     13.996     15.006
REMARK INTER + INTRA:          -5.041
REMARK INTER:                  -4.910
REMARK INTRA:                  -0.131
REMARK UNBOUND:                -0.114
REMARK  Name = 1550473
REMARK  2 active torsions:
REMARK  status: ('A' for Active; 'I' for Inactive)
REMARK    1  A    between atoms: N_1  and  C_4
REMARK    2  A    between atoms: C_4  and  C_5
REMARK                            x       y       z     vdW  Elec       q    Type
REMARK                         _______ _______ _______ _____ _____    ______ ____
ROOT
ATOM      1  N   UNL     1      -2.723  -9.337   4.990  0.00  0.00    -0.354 N 
ATOM      2  N   UNL     1      -2.605  -8.554   2.814  0.00  0.00    -0.372 N 
ATOM      3  N   UNL     1      -1.938 -10.704   3.256  0.00  0.00    -0.372 N 
ATOM      4  C   UNL     1      -2.422  -9.540   3.701  0.00  0.00    +0.166 C 
ATOM      5  H   UNL     1      -3.057  -8.422   5.268  0.00  0.00    +0.163 HD
ATOM      6  H   UNL     1      -2.390  -8.679   1.833  0.00  0.00    +0.159 HD
ATOM      7  H   UNL     1      -2.983  -7.655   3.087  0.00  0.00    +0.159 HD
ATOM      8  H   UNL     1      -1.771 -11.486   3.876  0.00  0.00    +0.159 HD
ATOM      9  H   UNL     1      -1.706 -10.845   2.281  0.00  0.00    +0.159 HD
ENDROOT
BRANCH   1  10
ATOM     10  C   UNL     1      -2.610 -10.361   6.027  0.00  0.00    +0.151 C 
BRANCH  10  11
ATOM     11  C   UNL     1      -1.432 -10.044   6.905  0.00  0.00    -0.028 A 
ATOM     12  C   UNL     1      -0.126 -10.112   6.397  0.00  0.00    +0.005 A 
ATOM     13  C   UNL     1      -1.614  -9.669   8.245  0.00  0.00    +0.005 A 
ATOM     14  C   UNL     1       0.967  -9.788   7.204  0.00  0.00    +0.000 A 
ATOM     15  C   UNL     1      -0.520  -9.347   9.048  0.00  0.00    +0.000 A 
ATOM     16  C   UNL     1       0.770  -9.404   8.527  0.00  0.00    +0.000 A 
ENDBRANCH  10  11
ENDBRANCH   1  10
TORSDOF 2
ENDMDL
MODEL 6
REMARK VINA RESULT:    -4.371      1.658      2.463
REMARK INTER + INTRA:          -4.996
REMARK INTER:                  -4.857
REMARK INTRA:                  -0.138
REMARK UNBOUND:                -0.114
REMARK  Name = 1550473
REMARK  2 active torsions:
REMARK  status: ('A' for Active; 'I' for Inactive)
REMARK    1  A    between atoms: N_1  and  C_4
REMARK    2  A    between atoms: C_4  and  C_5
REMARK                            x       y       z     vdW  Elec       q    Type
REMARK                         _______ _______ _______ _____ _____    ______ ____
ROOT
ATOM      1  N   UNL     1       7.634  -9.616  -5.318  0.00  0.00    -0.354 N 
ATOM      2  N   UNL     1       7.598 -11.747  -6.225  0.00  0.00    -0.372 N 
ATOM      3  N   UNL     1       7.222  -9.949  -7.601  0.00  0.00    -0.372 N 
ATOM      4  C   UNL     1       7.484 -10.422  -6.378  0.00  0.00    +0.166 C 
ATOM      5  H   UNL     1       7.801 -10.039  -4.412  0.00  0.00    +0.163 HD
ATOM      6  H   UNL     1       7.493 -12.379  -7.007  0.00  0.00    +0.159 HD
ATOM      7  H   UNL     1       7.811 -12.163  -5.327  0.00  0.00    +0.159 HD
ATOM      8  H   UNL     1       7.118  -8.959  -7.781  0.00  0.00    +0.159 HD
ATOM      9  H   UNL     1       7.102 -10.567  -8.394  0.00  0.00    +0.159 HD
ENDROOT
BRANCH   1  10
ATOM     10  C   UNL     1       7.583  -8.157  -5.386  0.00  0.00    +0.151 C 
BRANCH  10  11
ATOM     11  C   UNL     1       8.775  -7.589  -4.667  0.00  0.00    -0.028 A 
ATOM     12  C   UNL     1       9.193  -6.273  -4.911  0.00  0.00    +0.005 A 
ATOM     13  C   UNL     1       9.487  -8.361  -3.736  0.00  0.00    +0.005 A 
ATOM     14  C   UNL     1      10.282  -5.735  -4.221  0.00  0.00    +0.000 A 
ATOM     15  C   UNL     1      10.575  -7.820  -3.050  0.00  0.00    +0.000 A 
ATOM     16  C   UNL     1      10.970  -6.507  -3.290  0.00  0.00    +0.000 A 
ENDBRANCH  10  11
ENDBRANCH   1  10
TORSDOF 2
ENDMDL
MODEL 7
REMARK VINA RESULT:    -4.192     20.141     21.493
REMARK INTER + INTRA:          -4.796
REMARK INTER:                  -4.630
REMARK INTRA:                  -0.166
REMARK UNBOUND:                -0.114
REMARK  Name = 1550473
REMARK  2 active torsions:
REMARK  status: ('A' for Active; 'I' for Inactive)
REMARK    1  A    between atoms: N_1  and  C_4
REMARK    2  A    between atoms: C_4  and  C_5
REMARK                            x       y       z     vdW  Elec       q    Type
REMARK                         _______ _______ _______ _____ _____    ______ ____
ROOT
ATOM      1  N   UNL     1     -10.753 -13.123 -11.837  0.00  0.00    -0.354 N 
ATOM      2  N   UNL     1      -9.305 -13.374 -13.627  0.00  0.00    -0.372 N 
ATOM      3  N   UNL     1      -8.897 -11.715 -12.095  0.00  0.00    -0.372 N 
ATOM      4  C   UNL     1      -9.660 -12.733 -12.506  0.00  0.00    +0.166 C 
ATOM      5  H   UNL     1     -11.306 -13.882 -12.217  0.00  0.00    +0.163 HD
ATOM      6  H   UNL     1      -8.483 -13.106 -14.151  0.00  0.00    +0.159 HD
ATOM      7  H   UNL     1      -9.834 -14.163 -13.980  0.00  0.00    +0.159 HD
ATOM      8  H   UNL     1      -9.114 -11.187 -11.260  0.00  0.00    +0.159 HD
ATOM      9  H   UNL     1      -8.077 -11.424 -12.613  0.00  0.00    +0.159 HD
ENDROOT
BRANCH   1  10
ATOM     10  C   UNL     1     -11.196 -12.526 -10.578  0.00  0.00    +0.151 C 
BRANCH  10  11
ATOM     11  C   UNL     1     -10.572 -13.276  -9.433  0.00  0.00    -0.028 A 
ATOM     12  C   UNL     1     -10.810 -14.648  -9.267  0.00  0.00    +0.005 A 
ATOM     13  C   UNL     1      -9.738 -12.621  -8.514  0.00  0.00    +0.005 A 
ATOM     14  C   UNL     1     -10.207 -15.351  -8.221  0.00  0.00    +0.000 A 
ATOM     15  C   UNL     1      -9.139 -13.326  -7.471  0.00  0.00    +0.000 A 
ATOM     16  C   UNL     1      -9.372 -14.692  -7.326  0.00  0.00    +0.000 A 
ENDBRANCH  10  11
ENDBRANCH   1  10
TORSDOF 2
ENDMDL
MODEL 8
REMARK VINA RESULT:    -4.179     26.640     27.705
REMARK INTER + INTRA:          -4.781
REMARK INTER:                  -4.636
REMARK INTRA:                  -0.145
REMARK UNBOUND:                -0.114
REMARK  Name = 1550473
REMARK  2 active torsions:
REMARK  status: ('A' for Active; 'I' for Inactive)
REMARK    1  A    between atoms: N_1  and  C_4
REMARK    2  A    between atoms: C_4  and  C_5
REMARK                            x       y       z     vdW  Elec       q    Type
REMARK                         _______ _______ _______ _____ _____    ______ ____
ROOT
ATOM      1  N   UNL     1       7.387 -17.668 -30.429  0.00  0.00    -0.354 N 
ATOM      2  N   UNL     1       7.017 -18.384 -32.600  0.00  0.00    -0.372 N 
ATOM      3  N   UNL     1       8.031 -16.354 -32.259  0.00  0.00    -0.372 N 
ATOM      4  C   UNL     1       7.482 -17.461 -31.749  0.00  0.00    +0.166 C 
ATOM      5  H   UNL     1       6.933 -18.514 -30.105  0.00  0.00    +0.163 HD
ATOM      6  H   UNL     1       7.078 -18.258 -33.601  0.00  0.00    +0.159 HD
ATOM      7  H   UNL     1       6.606 -19.250 -32.274  0.00  0.00    +0.159 HD
ATOM      8  H   UNL     1       8.394 -15.616 -31.671  0.00  0.00    +0.159 HD
ATOM      9  H   UNL     1       8.090 -16.204 -33.259  0.00  0.00    +0.159 HD
ENDROOT
BRANCH   1  10
ATOM     10  C   UNL     1       7.910 -16.750 -29.418  0.00  0.00    +0.151 C 
BRANCH  10  11
ATOM     11  C   UNL     1       8.959 -17.459 -28.607  0.00  0.00    -0.028 A 
ATOM     12  C   UNL     1       8.590 -18.377 -27.612  0.00  0.00    +0.005 A 
ATOM     13  C   UNL     1      10.323 -17.221 -28.831  0.00  0.00    +0.005 A 
ATOM     14  C   UNL     1       9.564 -19.058 -26.879  0.00  0.00    +0.000 A 
ATOM     15  C   UNL     1      11.293 -17.903 -28.096  0.00  0.00    +0.000 A 
ATOM     16  C   UNL     1      10.914 -18.823 -27.122  0.00  0.00    +0.000 A 
ENDBRANCH  10  11
ENDBRANCH   1  10
TORSDOF 2
ENDMDL
MODEL 9
REMARK VINA RESULT:    -4.117     15.457     17.160
REMARK INTER + INTRA:          -4.712
REMARK INTER:                  -4.579
REMARK INTRA:                  -0.133
REMARK UNBOUND:                -0.114
REMARK  Name = 1550473
REMARK  2 active torsions:
REMARK  status: ('A' for Active; 'I' for Inactive)
REMARK    1  A    between atoms: N_1  and  C_4
REMARK    2  A    between atoms: C_4  and  C_5
REMARK                            x       y       z     vdW  Elec       q    Type
REMARK                         _______ _______ _______ _____ _____    ______ ____
ROOT
ATOM      1  N   UNL     1      -3.252 -10.080   4.622  0.00  0.00    -0.354 N 
ATOM      2  N   UNL     1      -1.315  -9.786   3.386  0.00  0.00    -0.372 N 
ATOM      3  N   UNL     1      -3.227  -8.700   2.729  0.00  0.00    -0.372 N 
ATOM      4  C   UNL     1      -2.612  -9.523   3.585  0.00  0.00    +0.166 C 
ATOM      5  H   UNL     1      -2.737 -10.719   5.218  0.00  0.00    +0.163 HD
ATOM      6  H   UNL     1      -0.806  -9.377   2.614  0.00  0.00    +0.159 HD
ATOM      7  H   UNL     1      -0.792 -10.389   4.009  0.00  0.00    +0.159 HD
ATOM      8  H   UNL     1      -4.206  -8.466   2.820  0.00  0.00    +0.159 HD
ATOM      9  H   UNL     1      -2.737  -8.290   1.943  0.00  0.00    +0.159 HD
ENDROOT
BRANCH   1  10
ATOM     10  C   UNL     1      -4.649  -9.816   4.959  0.00  0.00    +0.151 C 
BRANCH  10  11
ATOM     11  C   UNL     1      -4.729  -9.328   6.379  0.00  0.00    -0.028 A 
ATOM     12  C   UNL     1      -5.959  -9.291   7.052  0.00  0.00    +0.005 A 
ATOM     13  C   UNL     1      -3.576  -8.907   7.060  0.00  0.00    +0.005 A 
ATOM     14  C   UNL     1      -6.028  -8.866   8.381  0.00  0.00    +0.000 A 
ATOM     15  C   UNL     1      -3.650  -8.482   8.386  0.00  0.00    +0.000 A 
ATOM     16  C   UNL     1      -4.876  -8.464   9.047  0.00  0.00    +0.000 A 
ENDBRANCH  10  11
ENDBRANCH   1  10
TORSDOF 2
ENDMDL
