MODEL 1
REMARK VINA RESULT:    -4.401      0.000      0.000
REMARK INTER + INTRA:          -5.008
REMARK INTER:                  -4.916
REMARK INTRA:                  -0.092
REMARK UNBOUND:                -0.092
REMARK  Name = 1550473
REMARK  2 active torsions:
REMARK  status: ('A' for Active; 'I' for Inactive)
REMARK    1  A    between atoms: N_1  and  C_4
REMARK    2  A    between atoms: C_4  and  C_5
REMARK                            x       y       z     vdW  Elec       q    Type
REMARK                         _______ _______ _______ _____ _____    ______ ____
ROOT
ATOM      1  N   UNL     1     -14.656 -11.628 -17.122  0.00  0.00    -0.354 N 
ATOM      2  N   UNL     1     -14.438 -13.933 -17.128  0.00  0.00    -0.372 N 
ATOM      3  N   UNL     1     -14.097 -12.792 -15.167  0.00  0.00    -0.372 N 
ATOM      4  C   UNL     1     -14.397 -12.769 -16.470  0.00  0.00    +0.166 C 
ATOM      5  H   UNL     1     -14.847 -11.674 -18.117  0.00  0.00    +0.163 HD
ATOM      6  H   UNL     1     -14.251 -14.811 -16.662  0.00  0.00    +0.159 HD
ATOM      7  H   UNL     1     -14.674 -13.981 -18.112  0.00  0.00    +0.159 HD
ATOM      8  H   UNL     1     -14.045 -11.947 -14.614  0.00  0.00    +0.159 HD
ATOM      9  H   UNL     1     -13.896 -13.659 -14.685  0.00  0.00    +0.159 HD
ENDROOT
BRANCH   1  10
ATOM     10  C   UNL     1     -14.691 -10.312 -16.486  0.00  0.00    +0.151 C 
BRANCH  10  11
ATOM     11  C   UNL     1     -14.930  -9.264 -17.538  0.00  0.00    -0.028 A 
ATOM     12  C   UNL     1     -13.866  -8.495 -18.032  0.00  0.00    +0.005 A 
ATOM     13  C   UNL     1     -16.217  -9.039 -18.050  0.00  0.00    +0.005 A 
ATOM     14  C   UNL     1     -14.082  -7.542 -19.030  0.00  0.00    +0.000 A 
ATOM     15  C   UNL     1     -16.429  -8.087 -19.046  0.00  0.00    +0.000 A 
ATOM     16  C   UNL     1     -15.361  -7.340 -19.538  0.00  0.00    +0.000 A 
ENDBRANCH  10  11
ENDBRANCH   1  10
TORSDOF 2
ENDMDL
MODEL 2
REMARK VINA RESULT:    -4.390     50.069     51.200
REMARK INTER + INTRA:          -4.995
REMARK INTER:                  -4.879
REMARK INTRA:                  -0.116
REMARK UNBOUND:                -0.092
REMARK  Name = 1550473
REMARK  2 active torsions:
REMARK  status: ('A' for Active; 'I' for Inactive)
REMARK    1  A    between atoms: N_1  and  C_4
REMARK    2  A    between atoms: C_4  and  C_5
REMARK                            x       y       z     vdW  Elec       q    Type
REMARK                         _______ _______ _______ _____ _____    ______ ____
ROOT
ATOM      1  N   UNL     1      13.617   1.955  21.094  0.00  0.00    -0.354 N 
ATOM      2  N   UNL     1      11.817   2.049  19.640  0.00  0.00    -0.372 N 
ATOM      3  N   UNL     1      12.229   0.095  20.769  0.00  0.00    -0.372 N 
ATOM      4  C   UNL     1      12.566   1.363  20.511  0.00  0.00    +0.166 C 
ATOM      5  H   UNL     1      13.838   2.909  20.834  0.00  0.00    +0.163 HD
ATOM      6  H   UNL     1      11.016   1.630  19.187  0.00  0.00    +0.159 HD
ATOM      7  H   UNL     1      12.013   3.017  19.416  0.00  0.00    +0.159 HD
ATOM      8  H   UNL     1      12.757  -0.479  21.413  0.00  0.00    +0.159 HD
ATOM      9  H   UNL     1      11.438  -0.346  20.317  0.00  0.00    +0.159 HD
ENDROOT
BRANCH   1  10
ATOM     10  C   UNL     1      14.465   1.313  22.098  0.00  0.00    +0.151 C 
BRANCH  10  11
ATOM     11  C   UNL     1      15.488   2.303  22.582  0.00  0.00    -0.028 A 
ATOM     12  C   UNL     1      15.962   3.312  21.730  0.00  0.00    +0.005 A 
ATOM     13  C   UNL     1      15.985   2.240  23.893  0.00  0.00    +0.005 A 
ATOM     14  C   UNL     1      16.890   4.249  22.189  0.00  0.00    +0.000 A 
ATOM     15  C   UNL     1      16.912   3.178  24.347  0.00  0.00    +0.000 A 
ATOM     16  C   UNL     1      17.363   4.183  23.495  0.00  0.00    +0.000 A 
ENDBRANCH  10  11
ENDBRANCH   1  10
TORSDOF 2
ENDMDL
MODEL 3
REMARK VINA RESULT:    -4.357     39.357     40.613
REMARK INTER + INTRA:          -4.958
REMARK INTER:                  -4.778
REMARK INTRA:                  -0.180
REMARK UNBOUND:                -0.092
REMARK  Name = 1550473
REMARK  2 active torsions:
REMARK  status: ('A' for Active; 'I' for Inactive)
REMARK    1  A    between atoms: N_1  and  C_4
REMARK    2  A    between atoms: C_4  and  C_5
REMARK                            x       y       z     vdW  Elec       q    Type
REMARK                         _______ _______ _______ _____ _____    ______ ____
ROOT
ATOM      1  N   UNL     1      -9.823  -9.249 -55.895  0.00  0.00    -0.354 N 
ATOM      2  N   UNL     1     -11.773  -9.720 -54.738  0.00  0.00    -0.372 N 
ATOM      3  N   UNL     1     -11.460  -7.604 -55.569  0.00  0.00    -0.372 N 
ATOM      4  C   UNL     1     -11.006  -8.852 -55.409  0.00  0.00    +0.166 C 
ATOM      5  H   UNL     1      -9.522 -10.200 -55.714  0.00  0.00    +0.163 HD
ATOM      6  H   UNL     1     -12.672  -9.450 -54.362  0.00  0.00    +0.159 HD
ATOM      7  H   UNL     1     -11.490 -10.683 -54.598  0.00  0.00    +0.159 HD
ATOM      8  H   UNL     1     -10.926  -6.900 -56.061  0.00  0.00    +0.159 HD
ATOM      9  H   UNL     1     -12.352  -7.312 -55.190  0.00  0.00    +0.159 HD
ENDROOT
BRANCH   1  10
ATOM     10  C   UNL     1      -8.936  -8.397 -56.686  0.00  0.00    +0.151 C 
BRANCH  10  11
ATOM     11  C   UNL     1      -9.060  -8.772 -58.137  0.00  0.00    -0.028 A 
ATOM     12  C   UNL     1      -9.943  -8.080 -58.978  0.00  0.00    +0.005 A 
ATOM     13  C   UNL     1      -8.293  -9.815 -58.678  0.00  0.00    +0.005 A 
ATOM     14  C   UNL     1     -10.037  -8.408 -60.333  0.00  0.00    +0.000 A 
ATOM     15  C   UNL     1      -8.390 -10.141 -60.031  0.00  0.00    +0.000 A 
ATOM     16  C   UNL     1      -9.260  -9.435 -60.859  0.00  0.00    +0.000 A 
ENDBRANCH  10  11
ENDBRANCH   1  10
TORSDOF 2
ENDMDL
MODEL 4
REMARK VINA RESULT:    -4.248     50.339     51.467
REMARK INTER + INTRA:          -4.837
REMARK INTER:                  -4.703
REMARK INTRA:                  -0.134
REMARK UNBOUND:                -0.092
REMARK  Name = 1550473
REMARK  2 active torsions:
REMARK  status: ('A' for Active; 'I' for Inactive)
REMARK    1  A    between atoms: N_1  and  C_4
REMARK    2  A    between atoms: C_4  and  C_5
REMARK                            x       y       z     vdW  Elec       q    Type
REMARK                         _______ _______ _______ _____ _____    ______ ____
ROOT
ATOM      1  N   UNL     1      16.322   2.246  23.292  0.00  0.00    -0.354 N 
ATOM      2  N   UNL     1      17.103   2.106  25.468  0.00  0.00    -0.372 N 
ATOM      3  N   UNL     1      17.319   4.091  24.337  0.00  0.00    -0.372 N 
ATOM      4  C   UNL     1      16.910   2.818  24.351  0.00  0.00    +0.166 C 
ATOM      5  H   UNL     1      16.062   1.268  23.356  0.00  0.00    +0.163 HD
ATOM      6  H   UNL     1      17.541   2.511  26.284  0.00  0.00    +0.159 HD
ATOM      7  H   UNL     1      16.801   1.142  25.544  0.00  0.00    +0.159 HD
ATOM      8  H   UNL     1      17.209   4.680  23.523  0.00  0.00    +0.159 HD
ATOM      9  H   UNL     1      17.771   4.511  25.140  0.00  0.00    +0.159 HD
ENDROOT
BRANCH   1  10
ATOM     10  C   UNL     1      16.017   2.949  22.047  0.00  0.00    +0.151 C 
BRANCH  10  11
ATOM     11  C   UNL     1      14.684   2.480  21.532  0.00  0.00    -0.028 A 
ATOM     12  C   UNL     1      14.077   3.122  20.443  0.00  0.00    +0.005 A 
ATOM     13  C   UNL     1      14.026   1.392  22.125  0.00  0.00    +0.005 A 
ATOM     14  C   UNL     1      12.853   2.668  19.945  0.00  0.00    +0.000 A 
ATOM     15  C   UNL     1      12.804   0.943  21.626  0.00  0.00    +0.000 A 
ATOM     16  C   UNL     1      12.219   1.580  20.534  0.00  0.00    +0.000 A 
ENDBRANCH  10  11
ENDBRANCH   1  10
TORSDOF 2
ENDMDL
MODEL 5
REMARK VINA RESULT:    -4.240     49.138     50.216
REMARK INTER + INTRA:          -4.828
REMARK INTER:                  -4.701
REMARK INTRA:                  -0.127
REMARK UNBOUND:                -0.092
REMARK  Name = 1550473
REMARK  2 active torsions:
REMARK  status: ('A' for Active; 'I' for Inactive)
REMARK    1  A    between atoms: N_1  and  C_4
REMARK    2  A    between atoms: C_4  and  C_5
REMARK                            x       y       z     vdW  Elec       q    Type
REMARK                         _______ _______ _______ _____ _____    ______ ____
ROOT
ATOM      1  N   UNL     1      12.963   2.901  20.586  0.00  0.00    -0.354 N 
ATOM      2  N   UNL     1      11.847   0.872  20.630  0.00  0.00    -0.372 N 
ATOM      3  N   UNL     1      11.830   2.105  18.695  0.00  0.00    -0.372 N 
ATOM      4  C   UNL     1      12.220   1.973  19.967  0.00  0.00    +0.166 C 
ATOM      5  H   UNL     1      13.201   2.756  21.561  0.00  0.00    +0.163 HD
ATOM      6  H   UNL     1      11.289   0.153  20.188  0.00  0.00    +0.159 HD
ATOM      7  H   UNL     1      12.124   0.708  21.590  0.00  0.00    +0.159 HD
ATOM      8  H   UNL     1      12.074   2.916  18.141  0.00  0.00    +0.159 HD
ATOM      9  H   UNL     1      11.262   1.402  18.239  0.00  0.00    +0.159 HD
ENDROOT
BRANCH   1  10
ATOM     10  C   UNL     1      13.467   4.110  19.938  0.00  0.00    +0.151 C 
BRANCH  10  11
ATOM     11  C   UNL     1      14.717   4.561  20.643  0.00  0.00    -0.028 A 
ATOM     12  C   UNL     1      15.519   3.638  21.330  0.00  0.00    +0.005 A 
ATOM     13  C   UNL     1      15.108   5.909  20.622  0.00  0.00    +0.005 A 
ATOM     14  C   UNL     1      16.696   4.051  21.959  0.00  0.00    +0.000 A 
ATOM     15  C   UNL     1      16.283   6.317  21.253  0.00  0.00    +0.000 A 
ATOM     16  C   UNL     1      17.078   5.387  21.919  0.00  0.00    +0.000 A 
ENDBRANCH  10  11
ENDBRANCH   1  10
TORSDOF 2
ENDMDL
MODEL 6
REMARK VINA RESULT:    -4.134     50.542     51.692
REMARK INTER + INTRA:          -4.709
REMARK INTER:                  -4.527
REMARK INTRA:                  -0.182
REMARK UNBOUND:                -0.092
REMARK  Name = 1550473
REMARK  2 active torsions:
REMARK  status: ('A' for Active; 'I' for Inactive)
REMARK    1  A    between atoms: N_1  and  C_4
REMARK    2  A    between atoms: C_4  and  C_5
REMARK                            x       y       z     vdW  Elec       q    Type
REMARK                         _______ _______ _______ _____ _____    ______ ____
ROOT
ATOM      1  N   UNL     1      14.692   4.434  20.125  0.00  0.00    -0.354 N 
ATOM      2  N   UNL     1      12.685   5.586  20.017  0.00  0.00    -0.372 N 
ATOM      3  N   UNL     1      12.649   3.331  20.440  0.00  0.00    -0.372 N 
ATOM      4  C   UNL     1      13.354   4.440  20.195  0.00  0.00    +0.166 C 
ATOM      5  H   UNL     1      15.166   5.303  19.906  0.00  0.00    +0.163 HD
ATOM      6  H   UNL     1      11.676   5.621  20.067  0.00  0.00    +0.159 HD
ATOM      7  H   UNL     1      13.164   6.461  19.844  0.00  0.00    +0.159 HD
ATOM      8  H   UNL     1      13.094   2.433  20.577  0.00  0.00    +0.159 HD
ATOM      9  H   UNL     1      11.638   3.344  20.482  0.00  0.00    +0.159 HD
ENDROOT
BRANCH   1  10
ATOM     10  C   UNL     1      15.518   3.251  20.357  0.00  0.00    +0.151 C 
BRANCH  10  11
ATOM     11  C   UNL     1      16.070   3.303  21.755  0.00  0.00    -0.028 A 
ATOM     12  C   UNL     1      15.722   2.322  22.695  0.00  0.00    +0.005 A 
ATOM     13  C   UNL     1      16.945   4.328  22.144  0.00  0.00    +0.005 A 
ATOM     14  C   UNL     1      16.258   2.353  23.984  0.00  0.00    +0.000 A 
ATOM     15  C   UNL     1      17.477   4.356  23.434  0.00  0.00    +0.000 A 
ATOM     16  C   UNL     1      17.135   3.367  24.352  0.00  0.00    +0.000 A 
ENDBRANCH  10  11
ENDBRANCH   1  10
TORSDOF 2
ENDMDL
MODEL 7
REMARK VINA RESULT:    -4.051     45.950     47.314
REMARK INTER + INTRA:          -4.617
REMARK INTER:                  -4.578
REMARK INTRA:                  -0.038
REMARK UNBOUND:                -0.092
REMARK  Name = 1550473
REMARK  2 active torsions:
REMARK  status: ('A' for Active; 'I' for Inactive)
REMARK    1  A    between atoms: N_1  and  C_4
REMARK    2  A    between atoms: C_4  and  C_5
REMARK                            x       y       z     vdW  Elec       q    Type
REMARK                         _______ _______ _______ _____ _____    ______ ____
ROOT
ATOM      1  N   UNL     1       4.330   0.449  23.091  0.00  0.00    -0.354 N 
ATOM      2  N   UNL     1       2.629   0.613  21.529  0.00  0.00    -0.372 N 
ATOM      3  N   UNL     1       2.113   0.817  23.755  0.00  0.00    -0.372 N 
ATOM      4  C   UNL     1       3.034   0.625  22.804  0.00  0.00    +0.166 C 
ATOM      5  H   UNL     1       4.973   0.278  22.326  0.00  0.00    +0.163 HD
ATOM      6  H   UNL     1       1.657   0.747  21.281  0.00  0.00    +0.159 HD
ATOM      7  H   UNL     1       3.280   0.488  20.764  0.00  0.00    +0.159 HD
ATOM      8  H   UNL     1       2.353   0.831  24.738  0.00  0.00    +0.159 HD
ATOM      9  H   UNL     1       1.135   0.941  23.528  0.00  0.00    +0.159 HD
ENDROOT
BRANCH   1  10
ATOM     10  C   UNL     1       4.883   0.498  24.443  0.00  0.00    +0.151 C 
BRANCH  10  11
ATOM     11  C   UNL     1       4.604  -0.808  25.136  0.00  0.00    -0.028 A 
ATOM     12  C   UNL     1       4.970  -2.023  24.538  0.00  0.00    +0.005 A 
ATOM     13  C   UNL     1       3.979  -0.836  26.392  0.00  0.00    +0.005 A 
ATOM     14  C   UNL     1       4.738  -3.234  25.195  0.00  0.00    +0.000 A 
ATOM     15  C   UNL     1       3.749  -2.047  27.044  0.00  0.00    +0.000 A 
ATOM     16  C   UNL     1       4.131  -3.246  26.446  0.00  0.00    +0.000 A 
ENDBRANCH  10  11
ENDBRANCH   1  10
TORSDOF 2
ENDMDL
MODEL 8
REMARK VINA RESULT:    -4.002     38.475     39.769
REMARK INTER + INTRA:          -4.562
REMARK INTER:                  -4.399
REMARK INTRA:                  -0.163
REMARK UNBOUND:                -0.092
REMARK  Name = 1550473
REMARK  2 active torsions:
REMARK  status: ('A' for Active; 'I' for Inactive)
REMARK    1  A    between atoms: N_1  and  C_4
REMARK    2  A    between atoms: C_4  and  C_5
REMARK                            x       y       z     vdW  Elec       q    Type
REMARK                         _______ _______ _______ _____ _____    ______ ____
ROOT
ATOM      1  N   UNL     1      -9.612  -7.707 -58.243  0.00  0.00    -0.354 N 
ATOM      2  N   UNL     1     -10.310  -8.301 -60.370  0.00  0.00    -0.372 N 
ATOM      3  N   UNL     1      -8.611  -9.491 -59.388  0.00  0.00    -0.372 N 
ATOM      4  C   UNL     1      -9.504  -8.498 -59.320  0.00  0.00    +0.166 C 
ATOM      5  H   UNL     1     -10.288  -6.953 -58.266  0.00  0.00    +0.163 HD
ATOM      6  H   UNL     1     -10.255  -8.884 -61.195  0.00  0.00    +0.159 HD
ATOM      7  H   UNL     1     -11.017  -7.576 -60.372  0.00  0.00    +0.159 HD
ATOM      8  H   UNL     1      -7.970  -9.688 -58.631  0.00  0.00    +0.159 HD
ATOM      9  H   UNL     1      -8.533 -10.077 -60.210  0.00  0.00    +0.159 HD
ENDROOT
BRANCH   1  10
ATOM     10  C   UNL     1      -8.819  -7.871 -57.026  0.00  0.00    +0.151 C 
BRANCH  10  11
ATOM     11  C   UNL     1      -9.632  -8.622 -56.008  0.00  0.00    -0.028 A 
ATOM     12  C   UNL     1     -11.016  -8.417 -55.910  0.00  0.00    +0.005 A 
ATOM     13  C   UNL     1      -9.024  -9.544 -55.141  0.00  0.00    +0.005 A 
ATOM     14  C   UNL     1     -11.776  -9.137 -54.985  0.00  0.00    +0.000 A 
ATOM     15  C   UNL     1      -9.787 -10.259 -54.218  0.00  0.00    +0.000 A 
ATOM     16  C   UNL     1     -11.163 -10.057 -54.142  0.00  0.00    +0.000 A 
ENDBRANCH  10  11
ENDBRANCH   1  10
TORSDOF 2
ENDMDL
MODEL 9
REMARK VINA RESULT:    -3.972     50.423     51.490
REMARK INTER + INTRA:          -4.528
REMARK INTER:                  -4.352
REMARK INTRA:                  -0.176
REMARK UNBOUND:                -0.092
REMARK  Name = 1550473
REMARK  2 active torsions:
REMARK  status: ('A' for Active; 'I' for Inactive)
REMARK    1  A    between atoms: N_1  and  C_4
REMARK    2  A    between atoms: C_4  and  C_5
REMARK                            x       y       z     vdW  Elec       q    Type
REMARK                         _______ _______ _______ _____ _____    ______ ____
ROOT
ATOM      1  N   UNL     1      16.659   2.843  22.802  0.00  0.00    -0.354 N 
ATOM      2  N   UNL     1      16.667   2.630  25.108  0.00  0.00    -0.372 N 
ATOM      3  N   UNL     1      15.090   1.487  23.894  0.00  0.00    -0.372 N 
ATOM      4  C   UNL     1      16.136   2.320  23.919  0.00  0.00    +0.166 C 
ATOM      5  H   UNL     1      17.433   3.492  22.890  0.00  0.00    +0.163 HD
ATOM      6  H   UNL     1      16.296   2.249  25.968  0.00  0.00    +0.159 HD
ATOM      7  H   UNL     1      17.469   3.243  25.190  0.00  0.00    +0.159 HD
ATOM      8  H   UNL     1      14.641   1.218  23.029  0.00  0.00    +0.159 HD
ATOM      9  H   UNL     1      14.698   1.104  24.745  0.00  0.00    +0.159 HD
ENDROOT
BRANCH   1  10
ATOM     10  C   UNL     1      16.190   2.527  21.454  0.00  0.00    +0.151 C 
BRANCH  10  11
ATOM     11  C   UNL     1      15.223   3.590  21.009  0.00  0.00    -0.028 A 
ATOM     12  C   UNL     1      13.873   3.277  20.789  0.00  0.00    +0.005 A 
ATOM     13  C   UNL     1      15.649   4.912  20.811  0.00  0.00    +0.005 A 
ATOM     14  C   UNL     1      12.968   4.270  20.405  0.00  0.00    +0.000 A 
ATOM     15  C   UNL     1      14.742   5.900  20.426  0.00  0.00    +0.000 A 
ATOM     16  C   UNL     1      13.402   5.579  20.226  0.00  0.00    +0.000 A 
ENDBRANCH  10  11
ENDBRANCH   1  10
TORSDOF 2
ENDMDL
