MODEL 1
REMARK VINA RESULT:    -5.186      0.000      0.000
REMARK INTER + INTRA:          -5.906
REMARK INTER:                  -5.792
REMARK INTRA:                  -0.113
REMARK UNBOUND:                -0.113
REMARK  Name = 1550473
REMARK  2 active torsions:
REMARK  status: ('A' for Active; 'I' for Inactive)
REMARK    1  A    between atoms: N_1  and  C_4
REMARK    2  A    between atoms: C_4  and  C_5
REMARK                            x       y       z     vdW  Elec       q    Type
REMARK                         _______ _______ _______ _____ _____    ______ ____
ROOT
ATOM      1  N   UNL     1     -14.921   7.973 -20.623  0.00  0.00    -0.354 N 
ATOM      2  N   UNL     1     -14.872   5.868 -21.586  0.00  0.00    -0.372 N 
ATOM      3  N   UNL     1     -13.422   6.336 -19.871  0.00  0.00    -0.372 N 
ATOM      4  C   UNL     1     -14.403   6.739 -20.685  0.00  0.00    +0.166 C 
ATOM      5  H   UNL     1     -15.642   8.227 -21.288  0.00  0.00    +0.163 HD
ATOM      6  H   UNL     1     -14.503   4.929 -21.655  0.00  0.00    +0.159 HD
ATOM      7  H   UNL     1     -15.625   6.109 -22.219  0.00  0.00    +0.159 HD
ATOM      8  H   UNL     1     -13.020   6.948 -19.173  0.00  0.00    +0.159 HD
ATOM      9  H   UNL     1     -13.031   5.404 -19.932  0.00  0.00    +0.159 HD
ENDROOT
BRANCH   1  10
ATOM     10  C   UNL     1     -14.518   8.980 -19.642  0.00  0.00    +0.151 C 
BRANCH  10  11
ATOM     11  C   UNL     1     -15.085  10.313 -20.046  0.00  0.00    -0.028 A 
ATOM     12  C   UNL     1     -15.635  11.174 -19.085  0.00  0.00    +0.005 A 
ATOM     13  C   UNL     1     -15.070  10.724 -21.388  0.00  0.00    +0.005 A 
ATOM     14  C   UNL     1     -16.135  12.424 -19.455  0.00  0.00    +0.000 A 
ATOM     15  C   UNL     1     -15.571  11.974 -21.753  0.00  0.00    +0.000 A 
ATOM     16  C   UNL     1     -16.101  12.824 -20.786  0.00  0.00    +0.000 A 
ENDBRANCH  10  11
ENDBRANCH   1  10
TORSDOF 2
ENDMDL
MODEL 2
REMARK VINA RESULT:    -4.642      7.765      9.088
REMARK INTER + INTRA:          -5.298
REMARK INTER:                  -5.189
REMARK INTRA:                  -0.109
REMARK UNBOUND:                -0.113
REMARK  Name = 1550473
REMARK  2 active torsions:
REMARK  status: ('A' for Active; 'I' for Inactive)
REMARK    1  A    between atoms: N_1  and  C_4
REMARK    2  A    between atoms: C_4  and  C_5
REMARK                            x       y       z     vdW  Elec       q    Type
REMARK                         _______ _______ _______ _____ _____    ______ ____
ROOT
ATOM      1  N   UNL     1     -18.756  10.213 -14.400  0.00  0.00    -0.354 N 
ATOM      2  N   UNL     1     -16.852  11.510 -14.157  0.00  0.00    -0.372 N 
ATOM      3  N   UNL     1     -18.414  12.116 -15.724  0.00  0.00    -0.372 N 
ATOM      4  C   UNL     1     -18.021  11.272 -14.764  0.00  0.00    +0.166 C 
ATOM      5  H   UNL     1     -18.388   9.594 -13.686  0.00  0.00    +0.163 HD
ATOM      6  H   UNL     1     -16.277  12.303 -14.408  0.00  0.00    +0.159 HD
ATOM      7  H   UNL     1     -16.508  10.916 -13.412  0.00  0.00    +0.159 HD
ATOM      8  H   UNL     1     -19.283  11.990 -16.225  0.00  0.00    +0.159 HD
ATOM      9  H   UNL     1     -17.848  12.909 -15.998  0.00  0.00    +0.159 HD
ENDROOT
BRANCH   1  10
ATOM     10  C   UNL     1     -20.068   9.896 -14.961  0.00  0.00    +0.151 C 
BRANCH  10  11
ATOM     11  C   UNL     1     -20.527   8.571 -14.418  0.00  0.00    -0.028 A 
ATOM     12  C   UNL     1     -21.845   8.404 -13.969  0.00  0.00    +0.005 A 
ATOM     13  C   UNL     1     -19.650   7.477 -14.355  0.00  0.00    +0.005 A 
ATOM     14  C   UNL     1     -22.281   7.165 -13.493  0.00  0.00    +0.000 A 
ATOM     15  C   UNL     1     -20.089   6.242 -13.878  0.00  0.00    +0.000 A 
ATOM     16  C   UNL     1     -21.405   6.086 -13.449  0.00  0.00    +0.000 A 
ENDBRANCH  10  11
ENDBRANCH   1  10
TORSDOF 2
ENDMDL
MODEL 3
REMARK VINA RESULT:    -4.637     37.191     38.548
REMARK INTER + INTRA:          -5.292
REMARK INTER:                  -5.188
REMARK INTRA:                  -0.104
REMARK UNBOUND:                -0.113
REMARK  Name = 1550473
REMARK  2 active torsions:
REMARK  status: ('A' for Active; 'I' for Inactive)
REMARK    1  A    between atoms: N_1  and  C_4
REMARK    2  A    between atoms: C_4  and  C_5
REMARK                            x       y       z     vdW  Elec       q    Type
REMARK                         _______ _______ _______ _____ _____    ______ ____
ROOT
ATOM      1  N   UNL     1      15.379   3.746   4.278  0.00  0.00    -0.354 N 
ATOM      2  N   UNL     1      16.731   3.634   6.155  0.00  0.00    -0.372 N 
ATOM      3  N   UNL     1      14.819   4.899   6.240  0.00  0.00    -0.372 N 
ATOM      4  C   UNL     1      15.632   4.096   5.546  0.00  0.00    +0.166 C 
ATOM      5  H   UNL     1      16.050   3.158   3.798  0.00  0.00    +0.163 HD
ATOM      6  H   UNL     1      16.947   3.877   7.113  0.00  0.00    +0.159 HD
ATOM      7  H   UNL     1      17.377   3.009   5.688  0.00  0.00    +0.159 HD
ATOM      8  H   UNL     1      13.977   5.286   5.836  0.00  0.00    +0.159 HD
ATOM      9  H   UNL     1      15.024   5.164   7.195  0.00  0.00    +0.159 HD
ENDROOT
BRANCH   1  10
ATOM     10  C   UNL     1      14.183   4.151   3.542  0.00  0.00    +0.151 C 
BRANCH  10  11
ATOM     11  C   UNL     1      14.473   4.099   2.067  0.00  0.00    -0.028 A 
ATOM     12  C   UNL     1      14.991   2.933   1.484  0.00  0.00    +0.005 A 
ATOM     13  C   UNL     1      14.226   5.210   1.246  0.00  0.00    +0.005 A 
ATOM     14  C   UNL     1      15.232   2.875   0.109  0.00  0.00    +0.000 A 
ATOM     15  C   UNL     1      14.470   5.148  -0.126  0.00  0.00    +0.000 A 
ATOM     16  C   UNL     1      14.970   3.979  -0.694  0.00  0.00    +0.000 A 
ENDBRANCH  10  11
ENDBRANCH   1  10
TORSDOF 2
ENDMDL
MODEL 4
REMARK VINA RESULT:    -4.573      9.395     10.183
REMARK INTER + INTRA:          -5.221
REMARK INTER:                  -5.066
REMARK INTRA:                  -0.154
REMARK UNBOUND:                -0.113
REMARK  Name = 1550473
REMARK  2 active torsions:
REMARK  status: ('A' for Active; 'I' for Inactive)
REMARK    1  A    between atoms: N_1  and  C_4
REMARK    2  A    between atoms: C_4  and  C_5
REMARK                            x       y       z     vdW  Elec       q    Type
REMARK                         _______ _______ _______ _____ _____    ______ ____
ROOT
ATOM      1  N   UNL     1      -6.741  11.299 -19.306  0.00  0.00    -0.354 N 
ATOM      2  N   UNL     1      -6.840  13.372 -18.278  0.00  0.00    -0.372 N 
ATOM      3  N   UNL     1      -4.786  12.426 -18.671  0.00  0.00    -0.372 N 
ATOM      4  C   UNL     1      -6.119  12.352 -18.758  0.00  0.00    +0.166 C 
ATOM      5  H   UNL     1      -7.754  11.290 -19.315  0.00  0.00    +0.163 HD
ATOM      6  H   UNL     1      -6.398  14.182 -17.862  0.00  0.00    +0.159 HD
ATOM      7  H   UNL     1      -7.851  13.381 -18.330  0.00  0.00    +0.159 HD
ATOM      8  H   UNL     1      -4.186  11.686 -19.009  0.00  0.00    +0.159 HD
ATOM      9  H   UNL     1      -4.327  13.222 -18.247  0.00  0.00    +0.159 HD
ENDROOT
BRANCH   1  10
ATOM     10  C   UNL     1      -6.047  10.161 -19.907  0.00  0.00    +0.151 C 
BRANCH  10  11
ATOM     11  C   UNL     1      -5.883  10.408 -21.381  0.00  0.00    -0.028 A 
ATOM     12  C   UNL     1      -6.913  11.006 -22.122  0.00  0.00    +0.005 A 
ATOM     13  C   UNL     1      -4.698  10.051 -22.042  0.00  0.00    +0.005 A 
ATOM     14  C   UNL     1      -6.750  11.262 -23.485  0.00  0.00    +0.000 A 
ATOM     15  C   UNL     1      -4.540  10.308 -23.404  0.00  0.00    +0.000 A 
ATOM     16  C   UNL     1      -5.565  10.915 -24.125  0.00  0.00    +0.000 A 
ENDBRANCH  10  11
ENDBRANCH   1  10
TORSDOF 2
ENDMDL
MODEL 5
REMARK VINA RESULT:    -4.477     35.061     36.408
REMARK INTER + INTRA:          -5.114
REMARK INTER:                  -4.986
REMARK INTRA:                  -0.128
REMARK UNBOUND:                -0.113
REMARK  Name = 1550473
REMARK  2 active torsions:
REMARK  status: ('A' for Active; 'I' for Inactive)
REMARK    1  A    between atoms: N_1  and  C_4
REMARK    2  A    between atoms: C_4  and  C_5
REMARK                            x       y       z     vdW  Elec       q    Type
REMARK                         _______ _______ _______ _____ _____    ______ ____
ROOT
ATOM      1  N   UNL     1      15.234   1.878  -1.930  0.00  0.00    -0.354 N 
ATOM      2  N   UNL     1      14.084   0.014  -2.683  0.00  0.00    -0.372 N 
ATOM      3  N   UNL     1      13.115   2.081  -2.908  0.00  0.00    -0.372 N 
ATOM      4  C   UNL     1      14.150   1.338  -2.503  0.00  0.00    +0.166 C 
ATOM      5  H   UNL     1      15.972   1.257  -1.617  0.00  0.00    +0.163 HD
ATOM      6  H   UNL     1      13.280  -0.421  -3.116  0.00  0.00    +0.159 HD
ATOM      7  H   UNL     1      14.843  -0.599  -2.411  0.00  0.00    +0.159 HD
ATOM      8  H   UNL     1      13.100   3.086  -2.795  0.00  0.00    +0.159 HD
ATOM      9  H   UNL     1      12.296   1.663  -3.332  0.00  0.00    +0.159 HD
ENDROOT
BRANCH   1  10
ATOM     10  C   UNL     1      15.428   3.314  -1.736  0.00  0.00    +0.151 C 
BRANCH  10  11
ATOM     11  C   UNL     1      15.038   3.677  -0.330  0.00  0.00    -0.028 A 
ATOM     12  C   UNL     1      15.090   2.719   0.693  0.00  0.00    +0.005 A 
ATOM     13  C   UNL     1      14.621   4.979  -0.014  0.00  0.00    +0.005 A 
ATOM     14  C   UNL     1      14.756   3.064   2.005  0.00  0.00    +0.000 A 
ATOM     15  C   UNL     1      14.287   5.319   1.297  0.00  0.00    +0.000 A 
ATOM     16  C   UNL     1      14.358   4.362   2.307  0.00  0.00    +0.000 A 
ENDBRANCH  10  11
ENDBRANCH   1  10
TORSDOF 2
ENDMDL
MODEL 6
REMARK VINA RESULT:    -4.434      4.182      5.645
REMARK INTER + INTRA:          -5.065
REMARK INTER:                  -4.912
REMARK INTRA:                  -0.154
REMARK UNBOUND:                -0.113
REMARK  Name = 1550473
REMARK  2 active torsions:
REMARK  status: ('A' for Active; 'I' for Inactive)
REMARK    1  A    between atoms: N_1  and  C_4
REMARK    2  A    between atoms: C_4  and  C_5
REMARK                            x       y       z     vdW  Elec       q    Type
REMARK                         _______ _______ _______ _____ _____    ______ ____
ROOT
ATOM      1  N   UNL     1     -18.037  12.648 -23.210  0.00  0.00    -0.354 N 
ATOM      2  N   UNL     1     -20.178  12.283 -24.014  0.00  0.00    -0.372 N 
ATOM      3  N   UNL     1     -19.800  14.085 -22.644  0.00  0.00    -0.372 N 
ATOM      4  C   UNL     1     -19.325  13.010 -23.282  0.00  0.00    +0.166 C 
ATOM      5  H   UNL     1     -17.746  11.806 -23.692  0.00  0.00    +0.163 HD
ATOM      6  H   UNL     1     -21.155  12.533 -24.090  0.00  0.00    +0.159 HD
ATOM      7  H   UNL     1     -19.875  11.467 -24.532  0.00  0.00    +0.159 HD
ATOM      8  H   UNL     1     -19.209  14.672 -22.071  0.00  0.00    +0.159 HD
ATOM      9  H   UNL     1     -20.777  14.345 -22.699  0.00  0.00    +0.159 HD
ENDROOT
BRANCH   1  10
ATOM     10  C   UNL     1     -17.016  13.402 -22.485  0.00  0.00    +0.151 C 
BRANCH  10  11
ATOM     11  C   UNL     1     -16.476  12.549 -21.369  0.00  0.00    -0.028 A 
ATOM     12  C   UNL     1     -16.914  12.741 -20.051  0.00  0.00    +0.005 A 
ATOM     13  C   UNL     1     -15.530  11.545 -21.625  0.00  0.00    +0.005 A 
ATOM     14  C   UNL     1     -16.436  11.930 -19.019  0.00  0.00    +0.000 A 
ATOM     15  C   UNL     1     -15.054  10.738 -20.592  0.00  0.00    +0.000 A 
ATOM     16  C   UNL     1     -15.509  10.929 -19.290  0.00  0.00    +0.000 A 
ENDBRANCH  10  11
ENDBRANCH   1  10
TORSDOF 2
ENDMDL
MODEL 7
REMARK VINA RESULT:    -4.402      7.000      8.053
REMARK INTER + INTRA:          -5.030
REMARK INTER:                  -4.917
REMARK INTRA:                  -0.113
REMARK UNBOUND:                -0.113
REMARK  Name = 1550473
REMARK  2 active torsions:
REMARK  status: ('A' for Active; 'I' for Inactive)
REMARK    1  A    between atoms: N_1  and  C_4
REMARK    2  A    between atoms: C_4  and  C_5
REMARK                            x       y       z     vdW  Elec       q    Type
REMARK                         _______ _______ _______ _____ _____    ______ ____
ROOT
ATOM      1  N   UNL     1     -20.338   9.266 -13.878  0.00  0.00    -0.354 N 
ATOM      2  N   UNL     1     -19.198   7.940 -12.360  0.00  0.00    -0.372 N 
ATOM      3  N   UNL     1     -19.991   9.981 -11.673  0.00  0.00    -0.372 N 
ATOM      4  C   UNL     1     -19.850   9.073 -12.645  0.00  0.00    +0.166 C 
ATOM      5  H   UNL     1     -20.171   8.553 -14.579  0.00  0.00    +0.163 HD
ATOM      6  H   UNL     1     -18.822   7.764 -11.437  0.00  0.00    +0.159 HD
ATOM      7  H   UNL     1     -19.074   7.208 -13.049  0.00  0.00    +0.159 HD
ATOM      8  H   UNL     1     -20.468  10.859 -11.826  0.00  0.00    +0.159 HD
ATOM      9  H   UNL     1     -19.612   9.829 -10.747  0.00  0.00    +0.159 HD
ENDROOT
BRANCH   1  10
ATOM     10  C   UNL     1     -21.109  10.442 -14.277  0.00  0.00    +0.151 C 
BRANCH  10  11
ATOM     11  C   UNL     1     -20.252  11.320 -15.146  0.00  0.00    -0.028 A 
ATOM     12  C   UNL     1     -18.994  10.880 -15.582  0.00  0.00    +0.005 A 
ATOM     13  C   UNL     1     -20.694  12.592 -15.541  0.00  0.00    +0.005 A 
ATOM     14  C   UNL     1     -18.210  11.683 -16.414  0.00  0.00    +0.000 A 
ATOM     15  C   UNL     1     -19.908  13.391 -16.371  0.00  0.00    +0.000 A 
ATOM     16  C   UNL     1     -18.667  12.936 -16.809  0.00  0.00    +0.000 A 
ENDBRANCH  10  11
ENDBRANCH   1  10
TORSDOF 2
ENDMDL
MODEL 8
REMARK VINA RESULT:    -4.334     30.899     32.109
REMARK INTER + INTRA:          -4.954
REMARK INTER:                  -4.812
REMARK INTRA:                  -0.142
REMARK UNBOUND:                -0.113
REMARK  Name = 1550473
REMARK  2 active torsions:
REMARK  status: ('A' for Active; 'I' for Inactive)
REMARK    1  A    between atoms: N_1  and  C_4
REMARK    2  A    between atoms: C_4  and  C_5
REMARK                            x       y       z     vdW  Elec       q    Type
REMARK                         _______ _______ _______ _____ _____    ______ ____
ROOT
ATOM      1  N   UNL     1      14.604  -2.767 -21.640  0.00  0.00    -0.354 N 
ATOM      2  N   UNL     1      16.659  -2.551 -20.593  0.00  0.00    -0.372 N 
ATOM      3  N   UNL     1      16.336  -1.533 -22.624  0.00  0.00    -0.372 N 
ATOM      4  C   UNL     1      15.853  -2.284 -21.628  0.00  0.00    +0.166 C 
ATOM      5  H   UNL     1      14.308  -3.354 -20.868  0.00  0.00    +0.163 HD
ATOM      6  H   UNL     1      17.605  -2.197 -20.555  0.00  0.00    +0.159 HD
ATOM      7  H   UNL     1      16.345  -3.100 -19.802  0.00  0.00    +0.159 HD
ATOM      8  H   UNL     1      15.781  -1.301 -23.437  0.00  0.00    +0.159 HD
ATOM      9  H   UNL     1      17.285  -1.180 -22.610  0.00  0.00    +0.159 HD
ENDROOT
BRANCH   1  10
ATOM     10  C   UNL     1      13.629  -2.489 -22.693  0.00  0.00    +0.151 C 
BRANCH  10  11
ATOM     11  C   UNL     1      12.957  -3.774 -23.091  0.00  0.00    -0.028 A 
ATOM     12  C   UNL     1      13.428  -5.004 -22.607  0.00  0.00    +0.005 A 
ATOM     13  C   UNL     1      11.844  -3.769 -23.946  0.00  0.00    +0.005 A 
ATOM     14  C   UNL     1      12.785  -6.195 -22.952  0.00  0.00    +0.000 A 
ATOM     15  C   UNL     1      11.206  -4.961 -24.289  0.00  0.00    +0.000 A 
ATOM     16  C   UNL     1      11.675  -6.173 -23.789  0.00  0.00    +0.000 A 
ENDBRANCH  10  11
ENDBRANCH   1  10
TORSDOF 2
ENDMDL
MODEL 9
REMARK VINA RESULT:    -4.243     33.549     35.032
REMARK INTER + INTRA:          -4.852
REMARK INTER:                  -4.683
REMARK INTRA:                  -0.169
REMARK UNBOUND:                -0.113
REMARK  Name = 1550473
REMARK  2 active torsions:
REMARK  status: ('A' for Active; 'I' for Inactive)
REMARK    1  A    between atoms: N_1  and  C_4
REMARK    2  A    between atoms: C_4  and  C_5
REMARK                            x       y       z     vdW  Elec       q    Type
REMARK                         _______ _______ _______ _____ _____    ______ ____
ROOT
ATOM      1  N   UNL     1      17.549  -0.926  -9.387  0.00  0.00    -0.354 N 
ATOM      2  N   UNL     1      18.307   1.257  -9.236  0.00  0.00    -0.372 N 
ATOM      3  N   UNL     1      19.236  -0.133 -10.808  0.00  0.00    -0.372 N 
ATOM      4  C   UNL     1      18.361   0.051  -9.813  0.00  0.00    +0.166 C 
ATOM      5  H   UNL     1      16.929  -0.731  -8.609  0.00  0.00    +0.163 HD
ATOM      6  H   UNL     1      18.905   2.015  -9.539  0.00  0.00    +0.159 HD
ATOM      7  H   UNL     1      17.655   1.462  -8.489  0.00  0.00    +0.159 HD
ATOM      8  H   UNL     1      19.329  -1.022 -11.281  0.00  0.00    +0.159 HD
ATOM      9  H   UNL     1      19.851   0.609 -11.117  0.00  0.00    +0.159 HD
ENDROOT
BRANCH   1  10
ATOM     10  C   UNL     1      17.490  -2.259  -9.984  0.00  0.00    +0.151 C 
BRANCH  10  11
ATOM     11  C   UNL     1      16.176  -2.421 -10.696  0.00  0.00    -0.028 A 
ATOM     12  C   UNL     1      15.042  -2.869 -10.003  0.00  0.00    +0.005 A 
ATOM     13  C   UNL     1      16.056  -2.123 -12.062  0.00  0.00    +0.005 A 
ATOM     14  C   UNL     1      13.813  -2.992 -10.656  0.00  0.00    +0.000 A 
ATOM     15  C   UNL     1      14.828  -2.248 -12.711  0.00  0.00    +0.000 A 
ATOM     16  C   UNL     1      13.706  -2.679 -12.008  0.00  0.00    +0.000 A 
ENDBRANCH  10  11
ENDBRANCH   1  10
TORSDOF 2
ENDMDL
