MODEL 1
REMARK VINA RESULT:    -6.293      0.000      0.000
REMARK INTER + INTRA:          -7.149
REMARK INTER:                  -7.029
REMARK INTRA:                  -0.120
REMARK UNBOUND:                -0.120
REMARK  Name = 1550473
REMARK  2 active torsions:
REMARK  status: ('A' for Active; 'I' for Inactive)
REMARK    1  A    between atoms: N_1  and  C_4
REMARK    2  A    between atoms: C_4  and  C_5
REMARK                            x       y       z     vdW  Elec       q    Type
REMARK                         _______ _______ _______ _____ _____    ______ ____
ROOT
ATOM      1  N   UNL     1       0.251   0.110  -2.141  0.00  0.00    -0.354 N 
ATOM      2  N   UNL     1      -0.225  -2.149  -1.954  0.00  0.00    -0.372 N 
ATOM      3  N   UNL     1      -0.662  -0.771  -0.171  0.00  0.00    -0.372 N 
ATOM      4  C   UNL     1      -0.210  -0.921  -1.420  0.00  0.00    +0.166 C 
ATOM      5  H   UNL     1       0.609  -0.074  -3.071  0.00  0.00    +0.163 HD
ATOM      6  H   UNL     1      -0.570  -2.946  -1.435  0.00  0.00    +0.159 HD
ATOM      7  H   UNL     1       0.090  -2.323  -2.900  0.00  0.00    +0.159 HD
ATOM      8  H   UNL     1      -0.672   0.128   0.291  0.00  0.00    +0.159 HD
ATOM      9  H   UNL     1      -1.001  -1.559   0.368  0.00  0.00    +0.159 HD
ENDROOT
BRANCH   1  10
ATOM     10  C   UNL     1       0.261   1.495  -1.673  0.00  0.00    +0.151 C 
BRANCH  10  11
ATOM     11  C   UNL     1      -0.071   2.405  -2.824  0.00  0.00    -0.028 A 
ATOM     12  C   UNL     1      -0.846   3.556  -2.620  0.00  0.00    +0.005 A 
ATOM     13  C   UNL     1       0.392   2.124  -4.119  0.00  0.00    +0.005 A 
ATOM     14  C   UNL     1      -1.129   4.417  -3.683  0.00  0.00    +0.000 A 
ATOM     15  C   UNL     1       0.106   2.986  -5.177  0.00  0.00    +0.000 A 
ATOM     16  C   UNL     1      -0.652   4.133  -4.959  0.00  0.00    +0.000 A 
ENDBRANCH  10  11
ENDBRANCH   1  10
TORSDOF 2
ENDMDL
MODEL 2
REMARK VINA RESULT:    -5.530      2.511      4.413
REMARK INTER + INTRA:          -6.296
REMARK INTER:                  -6.236
REMARK INTRA:                  -0.059
REMARK UNBOUND:                -0.120
REMARK  Name = 1550473
REMARK  2 active torsions:
REMARK  status: ('A' for Active; 'I' for Inactive)
REMARK    1  A    between atoms: N_1  and  C_4
REMARK    2  A    between atoms: C_4  and  C_5
REMARK                            x       y       z     vdW  Elec       q    Type
REMARK                         _______ _______ _______ _____ _____    ______ ____
ROOT
ATOM      1  N   UNL     1       1.127   2.221  -2.789  0.00  0.00    -0.354 N 
ATOM      2  N   UNL     1       2.332   1.604  -4.669  0.00  0.00    -0.372 N 
ATOM      3  N   UNL     1       0.150   2.271  -4.919  0.00  0.00    -0.372 N 
ATOM      4  C   UNL     1       1.193   2.036  -4.115  0.00  0.00    +0.166 C 
ATOM      5  H   UNL     1       1.943   1.996  -2.231  0.00  0.00    +0.163 HD
ATOM      6  H   UNL     1       2.412   1.459  -5.666  0.00  0.00    +0.159 HD
ATOM      7  H   UNL     1       3.160   1.425  -4.114  0.00  0.00    +0.159 HD
ATOM      8  H   UNL     1      -0.739   2.592  -4.563  0.00  0.00    +0.159 HD
ATOM      9  H   UNL     1       0.208   2.120  -5.919  0.00  0.00    +0.159 HD
ENDROOT
BRANCH   1  10
ATOM     10  C   UNL     1      -0.049   2.739  -2.093  0.00  0.00    +0.151 C 
BRANCH  10  11
ATOM     11  C   UNL     1      -0.785   1.595  -1.452  0.00  0.00    -0.028 A 
ATOM     12  C   UNL     1      -1.957   1.825  -0.716  0.00  0.00    +0.005 A 
ATOM     13  C   UNL     1      -0.319   0.278  -1.582  0.00  0.00    +0.005 A 
ATOM     14  C   UNL     1      -2.657   0.759  -0.146  0.00  0.00    +0.000 A 
ATOM     15  C   UNL     1      -1.020  -0.783  -1.010  0.00  0.00    +0.000 A 
ATOM     16  C   UNL     1      -2.190  -0.543  -0.294  0.00  0.00    +0.000 A 
ENDBRANCH  10  11
ENDBRANCH   1  10
TORSDOF 2
ENDMDL
MODEL 3
REMARK VINA RESULT:    -5.505      0.716      1.832
REMARK INTER + INTRA:          -6.268
REMARK INTER:                  -6.118
REMARK INTRA:                  -0.150
REMARK UNBOUND:                -0.120
REMARK  Name = 1550473
REMARK  2 active torsions:
REMARK  status: ('A' for Active; 'I' for Inactive)
REMARK    1  A    between atoms: N_1  and  C_4
REMARK    2  A    between atoms: C_4  and  C_5
REMARK                            x       y       z     vdW  Elec       q    Type
REMARK                         _______ _______ _______ _____ _____    ______ ____
ROOT
ATOM      1  N   UNL     1      -0.363   0.772  -0.946  0.00  0.00    -0.354 N 
ATOM      2  N   UNL     1      -1.746  -0.929  -0.199  0.00  0.00    -0.372 N 
ATOM      3  N   UNL     1      -0.055  -1.437  -1.664  0.00  0.00    -0.372 N 
ATOM      4  C   UNL     1      -0.710  -0.521  -0.943  0.00  0.00    +0.166 C 
ATOM      5  H   UNL     1      -0.919   1.421  -0.401  0.00  0.00    +0.163 HD
ATOM      6  H   UNL     1      -2.029  -1.899  -0.174  0.00  0.00    +0.159 HD
ATOM      7  H   UNL     1      -2.271  -0.285   0.381  0.00  0.00    +0.159 HD
ATOM      8  H   UNL     1       0.731  -1.193  -2.252  0.00  0.00    +0.159 HD
ATOM      9  H   UNL     1      -0.331  -2.411  -1.661  0.00  0.00    +0.159 HD
ENDROOT
BRANCH   1  10
ATOM     10  C   UNL     1       0.781   1.310  -1.680  0.00  0.00    +0.151 C 
BRANCH  10  11
ATOM     11  C   UNL     1       0.284   2.235  -2.756  0.00  0.00    -0.028 A 
ATOM     12  C   UNL     1       0.607   2.002  -4.101  0.00  0.00    +0.005 A 
ATOM     13  C   UNL     1      -0.515   3.344  -2.438  0.00  0.00    +0.005 A 
ATOM     14  C   UNL     1       0.120   2.844  -5.104  0.00  0.00    +0.000 A 
ATOM     15  C   UNL     1      -0.999   4.183  -3.442  0.00  0.00    +0.000 A 
ATOM     16  C   UNL     1      -0.683   3.931  -4.775  0.00  0.00    +0.000 A 
ENDBRANCH  10  11
ENDBRANCH   1  10
TORSDOF 2
ENDMDL
MODEL 4
REMARK VINA RESULT:    -5.282      2.959      5.068
REMARK INTER + INTRA:          -6.019
REMARK INTER:                  -5.855
REMARK INTRA:                  -0.164
REMARK UNBOUND:                -0.120
REMARK  Name = 1550473
REMARK  2 active torsions:
REMARK  status: ('A' for Active; 'I' for Inactive)
REMARK    1  A    between atoms: N_1  and  C_4
REMARK    2  A    between atoms: C_4  and  C_5
REMARK                            x       y       z     vdW  Elec       q    Type
REMARK                         _______ _______ _______ _____ _____    ______ ____
ROOT
ATOM      1  N   UNL     1      -0.453   1.621  -1.715  0.00  0.00    -0.354 N 
ATOM      2  N   UNL     1       0.934   1.102  -3.496  0.00  0.00    -0.372 N 
ATOM      3  N   UNL     1       0.237  -0.585  -2.106  0.00  0.00    -0.372 N 
ATOM      4  C   UNL     1       0.230   0.714  -2.426  0.00  0.00    +0.166 C 
ATOM      5  H   UNL     1      -0.393   2.594  -1.992  0.00  0.00    +0.163 HD
ATOM      6  H   UNL     1       1.457   0.440  -4.053  0.00  0.00    +0.159 HD
ATOM      7  H   UNL     1       0.956   2.069  -3.797  0.00  0.00    +0.159 HD
ATOM      8  H   UNL     1      -0.270  -0.942  -1.307  0.00  0.00    +0.159 HD
ATOM      9  H   UNL     1       0.763  -1.261  -2.645  0.00  0.00    +0.159 HD
ENDROOT
BRANCH   1  10
ATOM     10  C   UNL     1      -1.295   1.293  -0.565  0.00  0.00    +0.151 C 
BRANCH  10  11
ATOM     11  C   UNL     1      -0.486   1.443   0.693  0.00  0.00    -0.028 A 
ATOM     12  C   UNL     1      -0.448   0.411   1.642  0.00  0.00    +0.005 A 
ATOM     13  C   UNL     1       0.251   2.612   0.941  0.00  0.00    +0.005 A 
ATOM     14  C   UNL     1       0.327   0.537   2.798  0.00  0.00    +0.000 A 
ATOM     15  C   UNL     1       1.023   2.734   2.096  0.00  0.00    +0.000 A 
ATOM     16  C   UNL     1       1.062   1.695   3.023  0.00  0.00    +0.000 A 
ENDBRANCH  10  11
ENDBRANCH   1  10
TORSDOF 2
ENDMDL
MODEL 5
REMARK VINA RESULT:    -5.151      2.873      4.241
REMARK INTER + INTRA:          -5.872
REMARK INTER:                  -5.752
REMARK INTRA:                  -0.120
REMARK UNBOUND:                -0.120
REMARK  Name = 1550473
REMARK  2 active torsions:
REMARK  status: ('A' for Active; 'I' for Inactive)
REMARK    1  A    between atoms: N_1  and  C_4
REMARK    2  A    between atoms: C_4  and  C_5
REMARK                            x       y       z     vdW  Elec       q    Type
REMARK                         _______ _______ _______ _____ _____    ______ ____
ROOT
ATOM      1  N   UNL     1       0.890   3.582  -4.358  0.00  0.00    -0.354 N 
ATOM      2  N   UNL     1       2.876   2.421  -4.625  0.00  0.00    -0.372 N 
ATOM      3  N   UNL     1       0.959   1.248  -4.163  0.00  0.00    -0.372 N 
ATOM      4  C   UNL     1       1.560   2.422  -4.379  0.00  0.00    +0.166 C 
ATOM      5  H   UNL     1       1.410   4.441  -4.500  0.00  0.00    +0.163 HD
ATOM      6  H   UNL     1       3.408   1.561  -4.651  0.00  0.00    +0.159 HD
ATOM      7  H   UNL     1       3.384   3.277  -4.812  0.00  0.00    +0.159 HD
ATOM      8  H   UNL     1      -0.031   1.181  -3.966  0.00  0.00    +0.159 HD
ATOM      9  H   UNL     1       1.476   0.378  -4.173  0.00  0.00    +0.159 HD
ENDROOT
BRANCH   1  10
ATOM     10  C   UNL     1      -0.553   3.689  -4.153  0.00  0.00    +0.151 C 
BRANCH  10  11
ATOM     11  C   UNL     1      -1.034   4.999  -4.713  0.00  0.00    -0.028 A 
ATOM     12  C   UNL     1      -0.157   6.088  -4.830  0.00  0.00    +0.005 A 
ATOM     13  C   UNL     1      -2.363   5.157  -5.135  0.00  0.00    +0.005 A 
ATOM     14  C   UNL     1      -0.595   7.296  -5.378  0.00  0.00    +0.000 A 
ATOM     15  C   UNL     1      -2.796   6.365  -5.681  0.00  0.00    +0.000 A 
ATOM     16  C   UNL     1      -1.911   7.433  -5.805  0.00  0.00    +0.000 A 
ENDBRANCH  10  11
ENDBRANCH   1  10
TORSDOF 2
ENDMDL
MODEL 6
REMARK VINA RESULT:    -5.027      2.578      4.772
REMARK INTER + INTRA:          -5.735
REMARK INTER:                  -5.609
REMARK INTRA:                  -0.126
REMARK UNBOUND:                -0.120
REMARK  Name = 1550473
REMARK  2 active torsions:
REMARK  status: ('A' for Active; 'I' for Inactive)
REMARK    1  A    between atoms: N_1  and  C_4
REMARK    2  A    between atoms: C_4  and  C_5
REMARK                            x       y       z     vdW  Elec       q    Type
REMARK                         _______ _______ _______ _____ _____    ______ ____
ROOT
ATOM      1  N   UNL     1       1.137   1.320  -2.695  0.00  0.00    -0.354 N 
ATOM      2  N   UNL     1       2.459   2.340  -4.301  0.00  0.00    -0.372 N 
ATOM      3  N   UNL     1       0.332   1.689  -4.865  0.00  0.00    -0.372 N 
ATOM      4  C   UNL     1       1.298   1.776  -3.945  0.00  0.00    +0.166 C 
ATOM      5  H   UNL     1       1.919   1.388  -2.054  0.00  0.00    +0.163 HD
ATOM      6  H   UNL     1       2.608   2.696  -5.235  0.00  0.00    +0.159 HD
ATOM      7  H   UNL     1       3.222   2.448  -3.644  0.00  0.00    +0.159 HD
ATOM      8  H   UNL     1      -0.565   1.269  -4.661  0.00  0.00    +0.159 HD
ATOM      9  H   UNL     1       0.466   2.029  -5.809  0.00  0.00    +0.159 HD
ENDROOT
BRANCH   1  10
ATOM     10  C   UNL     1      -0.105   0.738  -2.191  0.00  0.00    +0.151 C 
BRANCH  10  11
ATOM     11  C   UNL     1      -0.322   1.194  -0.775  0.00  0.00    -0.028 A 
ATOM     12  C   UNL     1      -0.488   0.258   0.257  0.00  0.00    +0.005 A 
ATOM     13  C   UNL     1      -0.357   2.560  -0.457  0.00  0.00    +0.005 A 
ATOM     14  C   UNL     1      -0.660   0.681   1.578  0.00  0.00    +0.000 A 
ATOM     15  C   UNL     1      -0.529   2.978   0.863  0.00  0.00    +0.000 A 
ATOM     16  C   UNL     1      -0.678   2.038   1.880  0.00  0.00    +0.000 A 
ENDBRANCH  10  11
ENDBRANCH   1  10
TORSDOF 2
ENDMDL
MODEL 7
REMARK VINA RESULT:    -5.011      2.577      3.404
REMARK INTER + INTRA:          -5.716
REMARK INTER:                  -5.605
REMARK INTRA:                  -0.111
REMARK UNBOUND:                -0.120
REMARK  Name = 1550473
REMARK  2 active torsions:
REMARK  status: ('A' for Active; 'I' for Inactive)
REMARK    1  A    between atoms: N_1  and  C_4
REMARK    2  A    between atoms: C_4  and  C_5
REMARK                            x       y       z     vdW  Elec       q    Type
REMARK                         _______ _______ _______ _____ _____    ______ ____
ROOT
ATOM      1  N   UNL     1       0.218   1.600   1.487  0.00  0.00    -0.354 N 
ATOM      2  N   UNL     1       1.526   0.913   3.270  0.00  0.00    -0.372 N 
ATOM      3  N   UNL     1      -0.675   0.268   3.195  0.00  0.00    -0.372 N 
ATOM      4  C   UNL     1       0.345   0.931   2.640  0.00  0.00    +0.166 C 
ATOM      5  H   UNL     1       1.021   2.107   1.133  0.00  0.00    +0.163 HD
ATOM      6  H   UNL     1       1.653   0.414   4.140  0.00  0.00    +0.159 HD
ATOM      7  H   UNL     1       2.339   1.383   2.891  0.00  0.00    +0.159 HD
ATOM      8  H   UNL     1      -1.593   0.247   2.773  0.00  0.00    +0.159 HD
ATOM      9  H   UNL     1      -0.570  -0.228   4.072  0.00  0.00    +0.159 HD
ENDROOT
BRANCH   1  10
ATOM     10  C   UNL     1      -1.010   1.637   0.694  0.00  0.00    +0.151 C 
BRANCH  10  11
ATOM     11  C   UNL     1      -0.657   1.883  -0.747  0.00  0.00    -0.028 A 
ATOM     12  C   UNL     1      -1.089   3.048  -1.397  0.00  0.00    +0.005 A 
ATOM     13  C   UNL     1       0.115   0.957  -1.466  0.00  0.00    +0.005 A 
ATOM     14  C   UNL     1      -0.736   3.291  -2.727  0.00  0.00    +0.000 A 
ATOM     15  C   UNL     1       0.464   1.203  -2.794  0.00  0.00    +0.000 A 
ATOM     16  C   UNL     1       0.041   2.371  -3.423  0.00  0.00    +0.000 A 
ENDBRANCH  10  11
ENDBRANCH   1  10
TORSDOF 2
ENDMDL
MODEL 8
REMARK VINA RESULT:    -4.945      4.369      5.355
REMARK INTER + INTRA:          -5.643
REMARK INTER:                  -5.506
REMARK INTRA:                  -0.137
REMARK UNBOUND:                -0.120
REMARK  Name = 1550473
REMARK  2 active torsions:
REMARK  status: ('A' for Active; 'I' for Inactive)
REMARK    1  A    between atoms: N_1  and  C_4
REMARK    2  A    between atoms: C_4  and  C_5
REMARK                            x       y       z     vdW  Elec       q    Type
REMARK                         _______ _______ _______ _____ _____    ______ ____
ROOT
ATOM      1  N   UNL     1       1.776   3.690  -4.053  0.00  0.00    -0.354 N 
ATOM      2  N   UNL     1       1.437   2.047  -2.457  0.00  0.00    -0.372 N 
ATOM      3  N   UNL     1       1.811   1.419  -4.632  0.00  0.00    -0.372 N 
ATOM      4  C   UNL     1       1.677   2.394  -3.727  0.00  0.00    +0.166 C 
ATOM      5  H   UNL     1       1.634   4.382  -3.326  0.00  0.00    +0.163 HD
ATOM      6  H   UNL     1       1.360   1.077  -2.180  0.00  0.00    +0.159 HD
ATOM      7  H   UNL     1       1.341   2.739  -1.724  0.00  0.00    +0.159 HD
ATOM      8  H   UNL     1       1.987   1.616  -5.608  0.00  0.00    +0.159 HD
ATOM      9  H   UNL     1       1.726   0.444  -4.376  0.00  0.00    +0.159 HD
ENDROOT
BRANCH   1  10
ATOM     10  C   UNL     1       2.089   4.173  -5.397  0.00  0.00    +0.151 C 
BRANCH  10  11
ATOM     11  C   UNL     1       3.072   5.306  -5.295  0.00  0.00    -0.028 A 
ATOM     12  C   UNL     1       3.954   5.388  -4.208  0.00  0.00    +0.005 A 
ATOM     13  C   UNL     1       3.131   6.298  -6.286  0.00  0.00    +0.005 A 
ATOM     14  C   UNL     1       4.888   6.423  -4.128  0.00  0.00    +0.000 A 
ATOM     15  C   UNL     1       4.065   7.331  -6.203  0.00  0.00    +0.000 A 
ATOM     16  C   UNL     1       4.945   7.392  -5.125  0.00  0.00    +0.000 A 
ENDBRANCH  10  11
ENDBRANCH   1  10
TORSDOF 2
ENDMDL
MODEL 9
REMARK VINA RESULT:    -4.626      2.773      5.148
REMARK INTER + INTRA:          -5.287
REMARK INTER:                  -5.188
REMARK INTRA:                  -0.099
REMARK UNBOUND:                -0.120
REMARK  Name = 1550473
REMARK  2 active torsions:
REMARK  status: ('A' for Active; 'I' for Inactive)
REMARK    1  A    between atoms: N_1  and  C_4
REMARK    2  A    between atoms: C_4  and  C_5
REMARK                            x       y       z     vdW  Elec       q    Type
REMARK                         _______ _______ _______ _____ _____    ______ ____
ROOT
ATOM      1  N   UNL     1      -0.311   3.079  -3.307  0.00  0.00    -0.354 N 
ATOM      2  N   UNL     1      -0.597   4.557  -5.067  0.00  0.00    -0.372 N 
ATOM      3  N   UNL     1       1.513   4.224  -4.230  0.00  0.00    -0.372 N 
ATOM      4  C   UNL     1       0.206   3.944  -4.189  0.00  0.00    +0.166 C 
ATOM      5  H   UNL     1      -1.314   2.933  -3.308  0.00  0.00    +0.163 HD
ATOM      6  H   UNL     1      -0.235   5.212  -5.747  0.00  0.00    +0.159 HD
ATOM      7  H   UNL     1      -1.593   4.375  -5.096  0.00  0.00    +0.159 HD
ATOM      8  H   UNL     1       2.172   3.799  -3.591  0.00  0.00    +0.159 HD
ATOM      9  H   UNL     1       1.893   4.886  -4.895  0.00  0.00    +0.159 HD
ENDROOT
BRANCH   1  10
ATOM     10  C   UNL     1       0.484   2.318  -2.345  0.00  0.00    +0.151 C 
BRANCH  10  11
ATOM     11  C   UNL     1      -0.412   1.351  -1.623  0.00  0.00    -0.028 A 
ATOM     12  C   UNL     1      -0.157  -0.028  -1.671  0.00  0.00    +0.005 A 
ATOM     13  C   UNL     1      -1.515   1.806  -0.884  0.00  0.00    +0.005 A 
ATOM     14  C   UNL     1      -0.972  -0.925  -0.975  0.00  0.00    +0.000 A 
ATOM     15  C   UNL     1      -2.326   0.908  -0.192  0.00  0.00    +0.000 A 
ATOM     16  C   UNL     1      -2.053  -0.457  -0.236  0.00  0.00    +0.000 A 
ENDBRANCH  10  11
ENDBRANCH   1  10
TORSDOF 2
ENDMDL
