MODEL 1
REMARK VINA RESULT:    -5.943      0.000      0.000
REMARK INTER + INTRA:          -6.818
REMARK INTER:                  -6.638
REMARK INTRA:                  -0.180
REMARK UNBOUND:                -0.180
REMARK  Name = 1550473
REMARK  2 active torsions:
REMARK  status: ('A' for Active; 'I' for Inactive)
REMARK    1  A    between atoms: N_1  and  C_4
REMARK    2  A    between atoms: C_4  and  C_5
REMARK                            x       y       z     vdW  Elec       q    Type
REMARK                         _______ _______ _______ _____ _____    ______ ____
ROOT
ATOM      1  N   UNL     1      -3.143  -8.964  13.037  0.00  0.00    -0.354 N 
ATOM      2  N   UNL     1      -2.691 -10.750  11.634  0.00  0.00    -0.372 N 
ATOM      3  N   UNL     1      -2.360  -8.617  10.855  0.00  0.00    -0.372 N 
ATOM      4  C   UNL     1      -2.734  -9.430  11.849  0.00  0.00    +0.166 C 
ATOM      5  H   UNL     1      -3.442  -9.631  13.739  0.00  0.00    +0.163 HD
ATOM      6  H   UNL     1      -2.383 -11.131  10.749  0.00  0.00    +0.159 HD
ATOM      7  H   UNL     1      -2.946 -11.416  12.353  0.00  0.00    +0.159 HD
ATOM      8  H   UNL     1      -2.375  -7.610  10.952  0.00  0.00    +0.159 HD
ATOM      9  H   UNL     1      -2.060  -8.979   9.959  0.00  0.00    +0.159 HD
ENDROOT
BRANCH   1  10
ATOM     10  C   UNL     1      -3.176  -7.546  13.392  0.00  0.00    +0.151 C 
BRANCH  10  11
ATOM     11  C   UNL     1      -2.010  -7.238  14.291  0.00  0.00    -0.028 A 
ATOM     12  C   UNL     1      -0.836  -6.676  13.767  0.00  0.00    +0.005 A 
ATOM     13  C   UNL     1      -2.075  -7.499  15.668  0.00  0.00    +0.005 A 
ATOM     14  C   UNL     1       0.236  -6.362  14.606  0.00  0.00    +0.000 A 
ATOM     15  C   UNL     1      -1.003  -7.185  16.502  0.00  0.00    +0.000 A 
ATOM     16  C   UNL     1       0.151  -6.614  15.971  0.00  0.00    +0.000 A 
ENDBRANCH  10  11
ENDBRANCH   1  10
TORSDOF 2
ENDMDL
MODEL 2
REMARK VINA RESULT:    -5.743      0.431      1.509
REMARK INTER + INTRA:          -6.594
REMARK INTER:                  -6.464
REMARK INTRA:                  -0.130
REMARK UNBOUND:                -0.180
REMARK  Name = 1550473
REMARK  2 active torsions:
REMARK  status: ('A' for Active; 'I' for Inactive)
REMARK    1  A    between atoms: N_1  and  C_4
REMARK    2  A    between atoms: C_4  and  C_5
REMARK                            x       y       z     vdW  Elec       q    Type
REMARK                         _______ _______ _______ _____ _____    ______ ____
ROOT
ATOM      1  N   UNL     1      -2.854  -8.971  13.108  0.00  0.00    -0.354 N 
ATOM      2  N   UNL     1      -2.793 -10.705  11.574  0.00  0.00    -0.372 N 
ATOM      3  N   UNL     1      -3.368  -8.604  10.852  0.00  0.00    -0.372 N 
ATOM      4  C   UNL     1      -3.007  -9.413  11.853  0.00  0.00    +0.166 C 
ATOM      5  H   UNL     1      -2.608  -9.641  13.828  0.00  0.00    +0.163 HD
ATOM      6  H   UNL     1      -2.897 -11.067  10.635  0.00  0.00    +0.159 HD
ATOM      7  H   UNL     1      -2.503 -11.363  12.286  0.00  0.00    +0.159 HD
ATOM      8  H   UNL     1      -3.550  -7.620  10.997  0.00  0.00    +0.159 HD
ATOM      9  H   UNL     1      -3.489  -8.950   9.908  0.00  0.00    +0.159 HD
ENDROOT
BRANCH   1  10
ATOM     10  C   UNL     1      -3.010  -7.574  13.508  0.00  0.00    +0.151 C 
BRANCH  10  11
ATOM     11  C   UNL     1      -1.800  -7.150  14.294  0.00  0.00    -0.028 A 
ATOM     12  C   UNL     1      -1.810  -7.200  15.696  0.00  0.00    +0.005 A 
ATOM     13  C   UNL     1      -0.640  -6.703  13.644  0.00  0.00    +0.005 A 
ATOM     14  C   UNL     1      -0.676  -6.835  16.426  0.00  0.00    +0.000 A 
ATOM     15  C   UNL     1       0.490  -6.339  14.377  0.00  0.00    +0.000 A 
ATOM     16  C   UNL     1       0.472  -6.407  15.768  0.00  0.00    +0.000 A 
ENDBRANCH  10  11
ENDBRANCH   1  10
TORSDOF 2
ENDMDL
MODEL 3
REMARK VINA RESULT:    -5.225      5.530      7.294
REMARK INTER + INTRA:          -6.016
REMARK INTER:                  -5.886
REMARK INTRA:                  -0.129
REMARK UNBOUND:                -0.180
REMARK  Name = 1550473
REMARK  2 active torsions:
REMARK  status: ('A' for Active; 'I' for Inactive)
REMARK    1  A    between atoms: N_1  and  C_4
REMARK    2  A    between atoms: C_4  and  C_5
REMARK                            x       y       z     vdW  Elec       q    Type
REMARK                         _______ _______ _______ _____ _____    ______ ____
ROOT
ATOM      1  N   UNL     1      -0.234  -3.479  18.712  0.00  0.00    -0.354 N 
ATOM      2  N   UNL     1      -0.784  -2.021  20.425  0.00  0.00    -0.372 N 
ATOM      3  N   UNL     1       1.146  -3.250  20.592  0.00  0.00    -0.372 N 
ATOM      4  C   UNL     1       0.049  -2.927  19.900  0.00  0.00    +0.166 C 
ATOM      5  H   UNL     1      -1.097  -3.214  18.251  0.00  0.00    +0.163 HD
ATOM      6  H   UNL     1      -0.596  -1.585  21.318  0.00  0.00    +0.159 HD
ATOM      7  H   UNL     1      -1.623  -1.724  19.941  0.00  0.00    +0.159 HD
ATOM      8  H   UNL     1       1.812  -3.932  20.253  0.00  0.00    +0.159 HD
ATOM      9  H   UNL     1       1.346  -2.834  21.493  0.00  0.00    +0.159 HD
ENDROOT
BRANCH   1  10
ATOM     10  C   UNL     1       0.634  -4.436  18.027  0.00  0.00    +0.151 C 
BRANCH  10  11
ATOM     11  C   UNL     1      -0.218  -5.462  17.333  0.00  0.00    -0.028 A 
ATOM     12  C   UNL     1      -1.287  -6.072  18.004  0.00  0.00    +0.005 A 
ATOM     13  C   UNL     1       0.036  -5.824  16.001  0.00  0.00    +0.005 A 
ATOM     14  C   UNL     1      -2.098  -7.003  17.350  0.00  0.00    +0.000 A 
ATOM     15  C   UNL     1      -0.775  -6.754  15.351  0.00  0.00    +0.000 A 
ATOM     16  C   UNL     1      -1.843  -7.342  16.025  0.00  0.00    +0.000 A 
ENDBRANCH  10  11
ENDBRANCH   1  10
TORSDOF 2
ENDMDL
MODEL 4
REMARK VINA RESULT:    -5.062     20.379     21.654
REMARK INTER + INTRA:          -5.833
REMARK INTER:                  -5.712
REMARK INTRA:                  -0.121
REMARK UNBOUND:                -0.180
REMARK  Name = 1550473
REMARK  2 active torsions:
REMARK  status: ('A' for Active; 'I' for Inactive)
REMARK    1  A    between atoms: N_1  and  C_4
REMARK    2  A    between atoms: C_4  and  C_5
REMARK                            x       y       z     vdW  Elec       q    Type
REMARK                         _______ _______ _______ _____ _____    ______ ____
ROOT
ATOM      1  N   UNL     1       5.435  -5.580  -5.831  0.00  0.00    -0.354 N 
ATOM      2  N   UNL     1       4.233  -7.249  -6.896  0.00  0.00    -0.372 N 
ATOM      3  N   UNL     1       5.253  -7.721  -4.896  0.00  0.00    -0.372 N 
ATOM      4  C   UNL     1       4.982  -6.841  -5.865  0.00  0.00    +0.166 C 
ATOM      5  H   UNL     1       5.220  -4.970  -6.612  0.00  0.00    +0.163 HD
ATOM      6  H   UNL     1       3.874  -8.193  -6.947  0.00  0.00    +0.159 HD
ATOM      7  H   UNL     1       3.981  -6.624  -7.652  0.00  0.00    +0.159 HD
ATOM      8  H   UNL     1       5.819  -7.478  -4.094  0.00  0.00    +0.159 HD
ATOM      9  H   UNL     1       4.914  -8.674  -4.935  0.00  0.00    +0.159 HD
ENDROOT
BRANCH   1  10
ATOM     10  C   UNL     1       6.214  -5.021  -4.728  0.00  0.00    +0.151 C 
BRANCH  10  11
ATOM     11  C   UNL     1       7.078  -3.907  -5.252  0.00  0.00    -0.028 A 
ATOM     12  C   UNL     1       7.187  -2.699  -4.548  0.00  0.00    +0.005 A 
ATOM     13  C   UNL     1       7.795  -4.056  -6.450  0.00  0.00    +0.005 A 
ATOM     14  C   UNL     1       8.014  -1.676  -5.019  0.00  0.00    +0.000 A 
ATOM     15  C   UNL     1       8.618  -3.032  -6.917  0.00  0.00    +0.000 A 
ATOM     16  C   UNL     1       8.729  -1.843  -6.200  0.00  0.00    +0.000 A 
ENDBRANCH  10  11
ENDBRANCH   1  10
TORSDOF 2
ENDMDL
MODEL 5
REMARK VINA RESULT:    -4.850     10.272     11.345
REMARK INTER + INTRA:          -5.597
REMARK INTER:                  -5.473
REMARK INTRA:                  -0.124
REMARK UNBOUND:                -0.180
REMARK  Name = 1550473
REMARK  2 active torsions:
REMARK  status: ('A' for Active; 'I' for Inactive)
REMARK    1  A    between atoms: N_1  and  C_4
REMARK    2  A    between atoms: C_4  and  C_5
REMARK                            x       y       z     vdW  Elec       q    Type
REMARK                         _______ _______ _______ _____ _____    ______ ____
ROOT
ATOM      1  N   UNL     1       5.340  -9.254   4.427  0.00  0.00    -0.354 N 
ATOM      2  N   UNL     1       4.284  -7.949   2.831  0.00  0.00    -0.372 N 
ATOM      3  N   UNL     1       3.006  -9.056   4.382  0.00  0.00    -0.372 N 
ATOM      4  C   UNL     1       4.215  -8.763   3.892  0.00  0.00    +0.166 C 
ATOM      5  H   UNL     1       6.224  -9.017   3.991  0.00  0.00    +0.163 HD
ATOM      6  H   UNL     1       3.452  -7.560   2.408  0.00  0.00    +0.159 HD
ATOM      7  H   UNL     1       5.171  -7.678   2.425  0.00  0.00    +0.159 HD
ATOM      8  H   UNL     1       2.885  -9.669   5.177  0.00  0.00    +0.159 HD
ATOM      9  H   UNL     1       2.161  -8.686   3.965  0.00  0.00    +0.159 HD
ENDROOT
BRANCH   1  10
ATOM     10  C   UNL     1       5.377 -10.104   5.615  0.00  0.00    +0.151 C 
BRANCH  10  11
ATOM     11  C   UNL     1       6.396  -9.560   6.578  0.00  0.00    -0.028 A 
ATOM     12  C   UNL     1       6.088  -9.423   7.939  0.00  0.00    +0.005 A 
ATOM     13  C   UNL     1       7.674  -9.185   6.136  0.00  0.00    +0.005 A 
ATOM     14  C   UNL     1       7.044  -8.945   8.839  0.00  0.00    +0.000 A 
ATOM     15  C   UNL     1       8.626  -8.708   7.037  0.00  0.00    +0.000 A 
ATOM     16  C   UNL     1       8.311  -8.591   8.389  0.00  0.00    +0.000 A 
ENDBRANCH  10  11
ENDBRANCH   1  10
TORSDOF 2
ENDMDL
MODEL 6
REMARK VINA RESULT:    -4.785      5.023      6.621
REMARK INTER + INTRA:          -5.524
REMARK INTER:                  -5.398
REMARK INTRA:                  -0.126
REMARK UNBOUND:                -0.180
REMARK  Name = 1550473
REMARK  2 active torsions:
REMARK  status: ('A' for Active; 'I' for Inactive)
REMARK    1  A    between atoms: N_1  and  C_4
REMARK    2  A    between atoms: C_4  and  C_5
REMARK                            x       y       z     vdW  Elec       q    Type
REMARK                         _______ _______ _______ _____ _____    ______ ____
ROOT
ATOM      1  N   UNL     1       0.134  -4.461  18.449  0.00  0.00    -0.354 N 
ATOM      2  N   UNL     1       0.619  -2.346  19.259  0.00  0.00    -0.372 N 
ATOM      3  N   UNL     1      -0.782  -3.702  20.469  0.00  0.00    -0.372 N 
ATOM      4  C   UNL     1      -0.015  -3.518  19.389  0.00  0.00    +0.166 C 
ATOM      5  H   UNL     1       0.705  -4.248  17.640  0.00  0.00    +0.163 HD
ATOM      6  H   UNL     1       0.529  -1.617  19.954  0.00  0.00    +0.159 HD
ATOM      7  H   UNL     1       1.226  -2.153  18.472  0.00  0.00    +0.159 HD
ATOM      8  H   UNL     1      -1.291  -4.562  20.623  0.00  0.00    +0.159 HD
ATOM      9  H   UNL     1      -0.894  -2.980  21.169  0.00  0.00    +0.159 HD
ENDROOT
BRANCH   1  10
ATOM     10  C   UNL     1      -0.470  -5.791  18.523  0.00  0.00    +0.151 C 
BRANCH  10  11
ATOM     11  C   UNL     1      -0.886  -6.218  17.142  0.00  0.00    -0.028 A 
ATOM     12  C   UNL     1      -0.228  -5.712  16.012  0.00  0.00    +0.005 A 
ATOM     13  C   UNL     1      -1.933  -7.134  16.958  0.00  0.00    +0.005 A 
ATOM     14  C   UNL     1      -0.594  -6.131  14.731  0.00  0.00    +0.000 A 
ATOM     15  C   UNL     1      -2.296  -7.549  15.677  0.00  0.00    +0.000 A 
ATOM     16  C   UNL     1      -1.625  -7.050  14.564  0.00  0.00    +0.000 A 
ENDBRANCH  10  11
ENDBRANCH   1  10
TORSDOF 2
ENDMDL
MODEL 7
REMARK VINA RESULT:    -4.723      5.827      7.250
REMARK INTER + INTRA:          -5.455
REMARK INTER:                  -5.312
REMARK INTRA:                  -0.143
REMARK UNBOUND:                -0.180
REMARK  Name = 1550473
REMARK  2 active torsions:
REMARK  status: ('A' for Active; 'I' for Inactive)
REMARK    1  A    between atoms: N_1  and  C_4
REMARK    2  A    between atoms: C_4  and  C_5
REMARK                            x       y       z     vdW  Elec       q    Type
REMARK                         _______ _______ _______ _____ _____    ______ ____
ROOT
ATOM      1  N   UNL     1      -6.244 -10.526   6.899  0.00  0.00    -0.354 N 
ATOM      2  N   UNL     1      -5.026 -11.388   5.128  0.00  0.00    -0.372 N 
ATOM      3  N   UNL     1      -4.816 -12.360   7.196  0.00  0.00    -0.372 N 
ATOM      4  C   UNL     1      -5.369 -11.421   6.422  0.00  0.00    +0.166 C 
ATOM      5  H   UNL     1      -6.604  -9.820   6.267  0.00  0.00    +0.163 HD
ATOM      6  H   UNL     1      -4.370 -12.053   4.739  0.00  0.00    +0.159 HD
ATOM      7  H   UNL     1      -5.422 -10.711   4.489  0.00  0.00    +0.159 HD
ATOM      8  H   UNL     1      -5.029 -12.435   8.182  0.00  0.00    +0.159 HD
ATOM      9  H   UNL     1      -4.149 -13.027   6.827  0.00  0.00    +0.159 HD
ENDROOT
BRANCH   1  10
ATOM     10  C   UNL     1      -6.725 -10.509   8.280  0.00  0.00    +0.151 C 
BRANCH  10  11
ATOM     11  C   UNL     1      -6.323  -9.211   8.924  0.00  0.00    -0.028 A 
ATOM     12  C   UNL     1      -6.886  -8.000   8.496  0.00  0.00    +0.005 A 
ATOM     13  C   UNL     1      -5.384  -9.186   9.966  0.00  0.00    +0.005 A 
ATOM     14  C   UNL     1      -6.535  -6.797   9.114  0.00  0.00    +0.000 A 
ATOM     15  C   UNL     1      -5.036  -7.983  10.580  0.00  0.00    +0.000 A 
ATOM     16  C   UNL     1      -5.614  -6.789  10.156  0.00  0.00    +0.000 A 
ENDBRANCH  10  11
ENDBRANCH   1  10
TORSDOF 2
ENDMDL
MODEL 8
REMARK VINA RESULT:    -4.639     13.989     15.387
REMARK INTER + INTRA:          -5.361
REMARK INTER:                  -5.219
REMARK INTRA:                  -0.142
REMARK UNBOUND:                -0.180
REMARK  Name = 1550473
REMARK  2 active torsions:
REMARK  status: ('A' for Active; 'I' for Inactive)
REMARK    1  A    between atoms: N_1  and  C_4
REMARK    2  A    between atoms: C_4  and  C_5
REMARK                            x       y       z     vdW  Elec       q    Type
REMARK                         _______ _______ _______ _____ _____    ______ ____
ROOT
ATOM      1  N   UNL     1     -13.429  -1.221   8.887  0.00  0.00    -0.354 N 
ATOM      2  N   UNL     1     -12.700  -3.405   9.138  0.00  0.00    -0.372 N 
ATOM      3  N   UNL     1     -12.058  -1.837  10.685  0.00  0.00    -0.372 N 
ATOM      4  C   UNL     1     -12.732  -2.139   9.571  0.00  0.00    +0.166 C 
ATOM      5  H   UNL     1     -13.894  -1.507   8.033  0.00  0.00    +0.163 HD
ATOM      6  H   UNL     1     -12.186  -4.120   9.635  0.00  0.00    +0.159 HD
ATOM      7  H   UNL     1     -13.204  -3.698   8.310  0.00  0.00    +0.159 HD
ATOM      8  H   UNL     1     -12.037  -0.898  11.060  0.00  0.00    +0.159 HD
ATOM      9  H   UNL     1     -11.527  -2.536  11.190  0.00  0.00    +0.159 HD
ENDROOT
BRANCH   1  10
ATOM     10  C   UNL     1     -13.571   0.173   9.302  0.00  0.00    +0.151 C 
BRANCH  10  11
ATOM     11  C   UNL     1     -13.321   1.066   8.118  0.00  0.00    -0.028 A 
ATOM     12  C   UNL     1     -13.520   2.451   8.216  0.00  0.00    +0.005 A 
ATOM     13  C   UNL     1     -12.879   0.534   6.897  0.00  0.00    +0.005 A 
ATOM     14  C   UNL     1     -13.259   3.284   7.125  0.00  0.00    +0.000 A 
ATOM     15  C   UNL     1     -12.620   1.369   5.810  0.00  0.00    +0.000 A 
ATOM     16  C   UNL     1     -12.808   2.745   5.926  0.00  0.00    +0.000 A 
ENDBRANCH  10  11
ENDBRANCH   1  10
TORSDOF 2
ENDMDL
MODEL 9
REMARK VINA RESULT:    -4.524     10.396     11.338
REMARK INTER + INTRA:          -5.232
REMARK INTER:                  -5.108
REMARK INTRA:                  -0.125
REMARK UNBOUND:                -0.180
REMARK  Name = 1550473
REMARK  2 active torsions:
REMARK  status: ('A' for Active; 'I' for Inactive)
REMARK    1  A    between atoms: N_1  and  C_4
REMARK    2  A    between atoms: C_4  and  C_5
REMARK                            x       y       z     vdW  Elec       q    Type
REMARK                         _______ _______ _______ _____ _____    ______ ____
ROOT
ATOM      1  N   UNL     1       4.819  -9.950   3.921  0.00  0.00    -0.354 N 
ATOM      2  N   UNL     1       2.870 -11.156   3.587  0.00  0.00    -0.372 N 
ATOM      3  N   UNL     1       2.736  -9.076   4.545  0.00  0.00    -0.372 N 
ATOM      4  C   UNL     1       3.487 -10.051   4.022  0.00  0.00    +0.166 C 
ATOM      5  H   UNL     1       5.334 -10.736   3.542  0.00  0.00    +0.163 HD
ATOM      6  H   UNL     1       1.866 -11.259   3.647  0.00  0.00    +0.159 HD
ATOM      7  H   UNL     1       3.383 -11.922   3.167  0.00  0.00    +0.159 HD
ATOM      8  H   UNL     1       3.141  -8.218   4.897  0.00  0.00    +0.159 HD
ATOM      9  H   UNL     1       1.731  -9.165   4.624  0.00  0.00    +0.159 HD
ENDROOT
BRANCH   1  10
ATOM     10  C   UNL     1       5.582  -8.767   4.315  0.00  0.00    +0.151 C 
BRANCH  10  11
ATOM     11  C   UNL     1       6.352  -9.074   5.569  0.00  0.00    -0.028 A 
ATOM     12  C   UNL     1       7.754  -9.019   5.575  0.00  0.00    +0.005 A 
ATOM     13  C   UNL     1       5.687  -9.415   6.757  0.00  0.00    +0.005 A 
ATOM     14  C   UNL     1       8.469  -9.275   6.747  0.00  0.00    +0.000 A 
ATOM     15  C   UNL     1       6.405  -9.670   7.925  0.00  0.00    +0.000 A 
ATOM     16  C   UNL     1       7.796  -9.598   7.921  0.00  0.00    +0.000 A 
ENDBRANCH  10  11
ENDBRANCH   1  10
TORSDOF 2
ENDMDL
