MODEL 1
REMARK VINA RESULT:    -5.265      0.000      0.000
REMARK INTER + INTRA:          -6.021
REMARK INTER:                  -5.881
REMARK INTRA:                  -0.140
REMARK UNBOUND:                -0.140
REMARK  Name = 1550473
REMARK  2 active torsions:
REMARK  status: ('A' for Active; 'I' for Inactive)
REMARK    1  A    between atoms: N_1  and  C_4
REMARK    2  A    between atoms: C_4  and  C_5
REMARK                            x       y       z     vdW  Elec       q    Type
REMARK                         _______ _______ _______ _____ _____    ______ ____
ROOT
ATOM      1  N   UNL     1      12.790   4.796  -3.696  0.00  0.00    -0.354 N 
ATOM      2  N   UNL     1      13.742   6.351  -5.125  0.00  0.00    -0.372 N 
ATOM      3  N   UNL     1      12.267   4.816  -5.980  0.00  0.00    -0.372 N 
ATOM      4  C   UNL     1      12.926   5.309  -4.926  0.00  0.00    +0.166 C 
ATOM      5  H   UNL     1      13.340   5.196  -2.944  0.00  0.00    +0.163 HD
ATOM      6  H   UNL     1      13.862   6.761  -6.041  0.00  0.00    +0.159 HD
ATOM      7  H   UNL     1      14.256   6.778  -4.363  0.00  0.00    +0.159 HD
ATOM      8  H   UNL     1      11.640   4.027  -5.898  0.00  0.00    +0.159 HD
ATOM      9  H   UNL     1      12.383   5.205  -6.907  0.00  0.00    +0.159 HD
ENDROOT
BRANCH   1  10
ATOM     10  C   UNL     1      11.886   3.697  -3.363  0.00  0.00    +0.151 C 
BRANCH  10  11
ATOM     11  C   UNL     1      12.590   2.744  -2.438  0.00  0.00    -0.028 A 
ATOM     12  C   UNL     1      13.985   2.789  -2.296  0.00  0.00    +0.005 A 
ATOM     13  C   UNL     1      11.869   1.798  -1.695  0.00  0.00    +0.005 A 
ATOM     14  C   UNL     1      14.637   1.924  -1.414  0.00  0.00    +0.000 A 
ATOM     15  C   UNL     1      12.523   0.935  -0.815  0.00  0.00    +0.000 A 
ATOM     16  C   UNL     1      13.907   1.000  -0.674  0.00  0.00    +0.000 A 
ENDBRANCH  10  11
ENDBRANCH   1  10
TORSDOF 2
ENDMDL
MODEL 2
REMARK VINA RESULT:    -5.198     25.827     26.571
REMARK INTER + INTRA:          -5.945
REMARK INTER:                  -5.806
REMARK INTRA:                  -0.140
REMARK UNBOUND:                -0.140
REMARK  Name = 1550473
REMARK  2 active torsions:
REMARK  status: ('A' for Active; 'I' for Inactive)
REMARK    1  A    between atoms: N_1  and  C_4
REMARK    2  A    between atoms: C_4  and  C_5
REMARK                            x       y       z     vdW  Elec       q    Type
REMARK                         _______ _______ _______ _____ _____    ______ ____
ROOT
ATOM      1  N   UNL     1      -9.503  -1.801 -16.652  0.00  0.00    -0.354 N 
ATOM      2  N   UNL     1      -8.689  -2.720 -18.616  0.00  0.00    -0.372 N 
ATOM      3  N   UNL     1      -7.248  -1.573 -17.248  0.00  0.00    -0.372 N 
ATOM      4  C   UNL     1      -8.483  -2.024 -17.492  0.00  0.00    +0.166 C 
ATOM      5  H   UNL     1     -10.421  -2.144 -16.909  0.00  0.00    +0.163 HD
ATOM      6  H   UNL     1      -7.938  -2.908 -19.267  0.00  0.00    +0.159 HD
ATOM      7  H   UNL     1      -9.598  -3.101 -18.848  0.00  0.00    +0.159 HD
ATOM      8  H   UNL     1      -7.027  -1.036 -16.420  0.00  0.00    +0.159 HD
ATOM      9  H   UNL     1      -6.485  -1.740 -17.893  0.00  0.00    +0.159 HD
ENDROOT
BRANCH   1  10
ATOM     10  C   UNL     1      -9.373  -1.101 -15.376  0.00  0.00    +0.151 C 
BRANCH  10  11
ATOM     11  C   UNL     1     -10.129  -1.859 -14.320  0.00  0.00    -0.028 A 
ATOM     12  C   UNL     1     -10.468  -1.244 -13.106  0.00  0.00    +0.005 A 
ATOM     13  C   UNL     1     -10.515  -3.192 -14.530  0.00  0.00    +0.005 A 
ATOM     14  C   UNL     1     -11.197  -1.938 -12.138  0.00  0.00    +0.000 A 
ATOM     15  C   UNL     1     -11.241  -3.882 -13.560  0.00  0.00    +0.000 A 
ATOM     16  C   UNL     1     -11.584  -3.254 -12.365  0.00  0.00    +0.000 A 
ENDBRANCH  10  11
ENDBRANCH   1  10
TORSDOF 2
ENDMDL
MODEL 3
REMARK VINA RESULT:    -4.888      3.952      5.593
REMARK INTER + INTRA:          -5.600
REMARK INTER:                  -5.505
REMARK INTRA:                  -0.094
REMARK UNBOUND:                -0.140
REMARK  Name = 1550473
REMARK  2 active torsions:
REMARK  status: ('A' for Active; 'I' for Inactive)
REMARK    1  A    between atoms: N_1  and  C_4
REMARK    2  A    between atoms: C_4  and  C_5
REMARK                            x       y       z     vdW  Elec       q    Type
REMARK                         _______ _______ _______ _____ _____    ______ ____
ROOT
ATOM      1  N   UNL     1      13.805   5.196  -3.109  0.00  0.00    -0.354 N 
ATOM      2  N   UNL     1      11.793   4.088  -3.410  0.00  0.00    -0.372 N 
ATOM      3  N   UNL     1      13.616   2.900  -2.682  0.00  0.00    -0.372 N 
ATOM      4  C   UNL     1      13.086   4.066  -3.064  0.00  0.00    +0.166 C 
ATOM      5  H   UNL     1      13.352   6.042  -3.436  0.00  0.00    +0.163 HD
ATOM      6  H   UNL     1      11.225   3.253  -3.383  0.00  0.00    +0.159 HD
ATOM      7  H   UNL     1      11.332   4.944  -3.693  0.00  0.00    +0.159 HD
ATOM      8  H   UNL     1      14.587   2.815  -2.414  0.00  0.00    +0.159 HD
ATOM      9  H   UNL     1      13.066   2.050  -2.659  0.00  0.00    +0.159 HD
ENDROOT
BRANCH   1  10
ATOM     10  C   UNL     1      15.206   5.290  -2.701  0.00  0.00    +0.151 C 
BRANCH  10  11
ATOM     11  C   UNL     1      15.529   6.724  -2.385  0.00  0.00    -0.028 A 
ATOM     12  C   UNL     1      15.833   7.629  -3.413  0.00  0.00    +0.005 A 
ATOM     13  C   UNL     1      15.529   7.186  -1.060  0.00  0.00    +0.005 A 
ATOM     14  C   UNL     1      16.104   8.969  -3.122  0.00  0.00    +0.000 A 
ATOM     15  C   UNL     1      15.802   8.524  -0.773  0.00  0.00    +0.000 A 
ATOM     16  C   UNL     1      16.087   9.415  -1.805  0.00  0.00    +0.000 A 
ENDBRANCH  10  11
ENDBRANCH   1  10
TORSDOF 2
ENDMDL
MODEL 4
REMARK VINA RESULT:    -4.864      1.558      2.521
REMARK INTER + INTRA:          -5.573
REMARK INTER:                  -5.442
REMARK INTRA:                  -0.130
REMARK UNBOUND:                -0.140
REMARK  Name = 1550473
REMARK  2 active torsions:
REMARK  status: ('A' for Active; 'I' for Inactive)
REMARK    1  A    between atoms: N_1  and  C_4
REMARK    2  A    between atoms: C_4  and  C_5
REMARK                            x       y       z     vdW  Elec       q    Type
REMARK                         _______ _______ _______ _____ _____    ______ ____
ROOT
ATOM      1  N   UNL     1      12.100   3.573  -2.601  0.00  0.00    -0.354 N 
ATOM      2  N   UNL     1      11.918   3.884  -4.888  0.00  0.00    -0.372 N 
ATOM      3  N   UNL     1      13.435   5.144  -3.715  0.00  0.00    -0.372 N 
ATOM      4  C   UNL     1      12.488   4.201  -3.719  0.00  0.00    +0.166 C 
ATOM      5  H   UNL     1      11.356   2.889  -2.666  0.00  0.00    +0.163 HD
ATOM      6  H   UNL     1      12.192   4.339  -5.749  0.00  0.00    +0.159 HD
ATOM      7  H   UNL     1      11.206   3.167  -4.958  0.00  0.00    +0.159 HD
ATOM      8  H   UNL     1      13.900   5.433  -2.864  0.00  0.00    +0.159 HD
ATOM      9  H   UNL     1      13.715   5.618  -4.565  0.00  0.00    +0.159 HD
ENDROOT
BRANCH   1  10
ATOM     10  C   UNL     1      12.695   3.805  -1.285  0.00  0.00    +0.151 C 
BRANCH  10  11
ATOM     11  C   UNL     1      12.643   2.529  -0.491  0.00  0.00    -0.028 A 
ATOM     12  C   UNL     1      11.931   1.420  -0.971  0.00  0.00    +0.005 A 
ATOM     13  C   UNL     1      13.308   2.421   0.740  0.00  0.00    +0.005 A 
ATOM     14  C   UNL     1      11.908   0.225  -0.248  0.00  0.00    +0.000 A 
ATOM     15  C   UNL     1      13.282   1.226   1.459  0.00  0.00    +0.000 A 
ATOM     16  C   UNL     1      12.583   0.128   0.964  0.00  0.00    +0.000 A 
ENDBRANCH  10  11
ENDBRANCH   1  10
TORSDOF 2
ENDMDL
MODEL 5
REMARK VINA RESULT:    -4.792     26.714     27.993
REMARK INTER + INTRA:          -5.492
REMARK INTER:                  -5.366
REMARK INTRA:                  -0.127
REMARK UNBOUND:                -0.140
REMARK  Name = 1550473
REMARK  2 active torsions:
REMARK  status: ('A' for Active; 'I' for Inactive)
REMARK    1  A    between atoms: N_1  and  C_4
REMARK    2  A    between atoms: C_4  and  C_5
REMARK                            x       y       z     vdW  Elec       q    Type
REMARK                         _______ _______ _______ _____ _____    ______ ____
ROOT
ATOM      1  N   UNL     1     -12.781  -2.797   9.142  0.00  0.00    -0.354 N 
ATOM      2  N   UNL     1     -14.564  -3.499   7.841  0.00  0.00    -0.372 N 
ATOM      3  N   UNL     1     -13.249  -5.077   8.862  0.00  0.00    -0.372 N 
ATOM      4  C   UNL     1     -13.518  -3.789   8.624  0.00  0.00    +0.166 C 
ATOM      5  H   UNL     1     -13.019  -1.843   8.899  0.00  0.00    +0.163 HD
ATOM      6  H   UNL     1     -15.141  -4.225   7.439  0.00  0.00    +0.159 HD
ATOM      7  H   UNL     1     -14.828  -2.542   7.637  0.00  0.00    +0.159 HD
ATOM      8  H   UNL     1     -12.470  -5.362   9.440  0.00  0.00    +0.159 HD
ATOM      9  H   UNL     1     -13.807  -5.819   8.460  0.00  0.00    +0.159 HD
ENDROOT
BRANCH   1  10
ATOM     10  C   UNL     1     -11.654  -3.004  10.050  0.00  0.00    +0.151 C 
BRANCH  10  11
ATOM     11  C   UNL     1     -10.613  -1.951   9.789  0.00  0.00    -0.028 A 
ATOM     12  C   UNL     1     -10.966  -0.734   9.188  0.00  0.00    +0.005 A 
ATOM     13  C   UNL     1      -9.273  -2.161  10.146  0.00  0.00    +0.005 A 
ATOM     14  C   UNL     1     -10.005   0.256   8.973  0.00  0.00    +0.000 A 
ATOM     15  C   UNL     1      -8.316  -1.170   9.929  0.00  0.00    +0.000 A 
ATOM     16  C   UNL     1      -8.683   0.039   9.345  0.00  0.00    +0.000 A 
ENDBRANCH  10  11
ENDBRANCH   1  10
TORSDOF 2
ENDMDL
MODEL 6
REMARK VINA RESULT:    -4.788     27.328     28.580
REMARK INTER + INTRA:          -5.488
REMARK INTER:                  -5.305
REMARK INTRA:                  -0.183
REMARK UNBOUND:                -0.140
REMARK  Name = 1550473
REMARK  2 active torsions:
REMARK  status: ('A' for Active; 'I' for Inactive)
REMARK    1  A    between atoms: N_1  and  C_4
REMARK    2  A    between atoms: C_4  and  C_5
REMARK                            x       y       z     vdW  Elec       q    Type
REMARK                         _______ _______ _______ _____ _____    ______ ____
ROOT
ATOM      1  N   UNL     1     -12.457   1.141  11.720  0.00  0.00    -0.354 N 
ATOM      2  N   UNL     1     -13.182   1.015  13.916  0.00  0.00    -0.372 N 
ATOM      3  N   UNL     1     -14.072  -0.427  12.369  0.00  0.00    -0.372 N 
ATOM      4  C   UNL     1     -13.234   0.575  12.653  0.00  0.00    +0.166 C 
ATOM      5  H   UNL     1     -11.865   1.918  11.993  0.00  0.00    +0.163 HD
ATOM      6  H   UNL     1     -13.754   0.605  14.642  0.00  0.00    +0.159 HD
ATOM      7  H   UNL     1     -12.556   1.761  14.195  0.00  0.00    +0.159 HD
ATOM      8  H   UNL     1     -14.163  -0.801  11.434  0.00  0.00    +0.159 HD
ATOM      9  H   UNL     1     -14.661  -0.843  13.080  0.00  0.00    +0.159 HD
ENDROOT
BRANCH   1  10
ATOM     10  C   UNL     1     -12.398   0.701  10.327  0.00  0.00    +0.151 C 
BRANCH  10  11
ATOM     11  C   UNL     1     -11.179  -0.158  10.134  0.00  0.00    -0.028 A 
ATOM     12  C   UNL     1     -11.292  -1.555  10.090  0.00  0.00    +0.005 A 
ATOM     13  C   UNL     1      -9.908   0.420   9.990  0.00  0.00    +0.005 A 
ATOM     14  C   UNL     1     -10.164  -2.352   9.880  0.00  0.00    +0.000 A 
ATOM     15  C   UNL     1      -8.784  -0.380   9.782  0.00  0.00    +0.000 A 
ATOM     16  C   UNL     1      -8.913  -1.765   9.725  0.00  0.00    +0.000 A 
ENDBRANCH  10  11
ENDBRANCH   1  10
TORSDOF 2
ENDMDL
MODEL 7
REMARK VINA RESULT:    -4.639     16.995     18.209
REMARK INTER + INTRA:          -5.321
REMARK INTER:                  -5.202
REMARK INTRA:                  -0.119
REMARK UNBOUND:                -0.140
REMARK  Name = 1550473
REMARK  2 active torsions:
REMARK  status: ('A' for Active; 'I' for Inactive)
REMARK    1  A    between atoms: N_1  and  C_4
REMARK    2  A    between atoms: C_4  and  C_5
REMARK                            x       y       z     vdW  Elec       q    Type
REMARK                         _______ _______ _______ _____ _____    ______ ____
ROOT
ATOM      1  N   UNL     1       8.770   7.072  15.467  0.00  0.00    -0.354 N 
ATOM      2  N   UNL     1       6.775   7.474  16.574  0.00  0.00    -0.372 N 
ATOM      3  N   UNL     1       8.015   5.633  17.156  0.00  0.00    -0.372 N 
ATOM      4  C   UNL     1       7.867   6.721  16.393  0.00  0.00    +0.166 C 
ATOM      5  H   UNL     1       8.585   7.891  14.901  0.00  0.00    +0.163 HD
ATOM      6  H   UNL     1       6.078   7.236  17.267  0.00  0.00    +0.159 HD
ATOM      7  H   UNL     1       6.616   8.318  16.038  0.00  0.00    +0.159 HD
ATOM      8  H   UNL     1       8.813   5.019  17.065  0.00  0.00    +0.159 HD
ATOM      9  H   UNL     1       7.322   5.372  17.847  0.00  0.00    +0.159 HD
ENDROOT
BRANCH   1  10
ATOM     10  C   UNL     1      10.019   6.350  15.229  0.00  0.00    +0.151 C 
BRANCH  10  11
ATOM     11  C   UNL     1      10.182   6.128  13.750  0.00  0.00    -0.028 A 
ATOM     12  C   UNL     1      10.344   4.832  13.238  0.00  0.00    +0.005 A 
ATOM     13  C   UNL     1      10.171   7.209  12.855  0.00  0.00    +0.005 A 
ATOM     14  C   UNL     1      10.466   4.623  11.863  0.00  0.00    +0.000 A 
ATOM     15  C   UNL     1      10.294   6.996  11.483  0.00  0.00    +0.000 A 
ATOM     16  C   UNL     1      10.439   5.703  10.986  0.00  0.00    +0.000 A 
ENDBRANCH  10  11
ENDBRANCH   1  10
TORSDOF 2
ENDMDL
MODEL 8
REMARK VINA RESULT:    -4.627     20.589     21.889
REMARK INTER + INTRA:          -5.308
REMARK INTER:                  -5.175
REMARK INTRA:                  -0.132
REMARK UNBOUND:                -0.140
REMARK  Name = 1550473
REMARK  2 active torsions:
REMARK  status: ('A' for Active; 'I' for Inactive)
REMARK    1  A    between atoms: N_1  and  C_4
REMARK    2  A    between atoms: C_4  and  C_5
REMARK                            x       y       z     vdW  Elec       q    Type
REMARK                         _______ _______ _______ _____ _____    ______ ____
ROOT
ATOM      1  N   UNL     1      -9.497   2.812 -10.062  0.00  0.00    -0.354 N 
ATOM      2  N   UNL     1      -9.857   0.853 -11.244  0.00  0.00    -0.372 N 
ATOM      3  N   UNL     1      -8.158   2.248 -11.902  0.00  0.00    -0.372 N 
ATOM      4  C   UNL     1      -9.166   1.985 -11.063  0.00  0.00    +0.166 C 
ATOM      5  H   UNL     1     -10.290   2.570  -9.480  0.00  0.00    +0.163 HD
ATOM      6  H   UNL     1      -9.628   0.208 -11.989  0.00  0.00    +0.159 HD
ATOM      7  H   UNL     1     -10.620   0.591 -10.632  0.00  0.00    +0.159 HD
ATOM      8  H   UNL     1      -7.602   3.089 -11.823  0.00  0.00    +0.159 HD
ATOM      9  H   UNL     1      -7.922   1.621 -12.660  0.00  0.00    +0.159 HD
ENDROOT
BRANCH   1  10
ATOM     10  C   UNL     1      -8.775   4.043  -9.746  0.00  0.00    +0.151 C 
BRANCH  10  11
ATOM     11  C   UNL     1      -7.707   3.740  -8.732  0.00  0.00    -0.028 A 
ATOM     12  C   UNL     1      -6.485   4.427  -8.757  0.00  0.00    +0.005 A 
ATOM     13  C   UNL     1      -7.915   2.771  -7.738  0.00  0.00    +0.005 A 
ATOM     14  C   UNL     1      -5.505   4.167  -7.797  0.00  0.00    +0.000 A 
ATOM     15  C   UNL     1      -6.933   2.514  -6.781  0.00  0.00    +0.000 A 
ATOM     16  C   UNL     1      -5.729   3.213  -6.809  0.00  0.00    +0.000 A 
ENDBRANCH  10  11
ENDBRANCH   1  10
TORSDOF 2
ENDMDL
MODEL 9
REMARK VINA RESULT:    -4.573     26.629     27.806
REMARK INTER + INTRA:          -5.247
REMARK INTER:                  -5.097
REMARK INTRA:                  -0.151
REMARK UNBOUND:                -0.140
REMARK  Name = 1550473
REMARK  2 active torsions:
REMARK  status: ('A' for Active; 'I' for Inactive)
REMARK    1  A    between atoms: N_1  and  C_4
REMARK    2  A    between atoms: C_4  and  C_5
REMARK                            x       y       z     vdW  Elec       q    Type
REMARK                         _______ _______ _______ _____ _____    ______ ____
ROOT
ATOM      1  N   UNL     1     -13.393  -1.815   8.522  0.00  0.00    -0.354 N 
ATOM      2  N   UNL     1     -14.338  -3.141   6.875  0.00  0.00    -0.372 N 
ATOM      3  N   UNL     1     -13.894  -0.940   6.407  0.00  0.00    -0.372 N 
ATOM      4  C   UNL     1     -13.869  -1.954   7.277  0.00  0.00    +0.166 C 
ATOM      5  H   UNL     1     -13.429  -2.615   9.143  0.00  0.00    +0.163 HD
ATOM      6  H   UNL     1     -14.701  -3.277   5.941  0.00  0.00    +0.159 HD
ATOM      7  H   UNL     1     -14.331  -3.951   7.483  0.00  0.00    +0.159 HD
ATOM      8  H   UNL     1     -13.559  -0.017   6.650  0.00  0.00    +0.159 HD
ATOM      9  H   UNL     1     -14.263  -1.053   5.471  0.00  0.00    +0.159 HD
ENDROOT
BRANCH   1  10
ATOM     10  C   UNL     1     -12.809  -0.580   9.041  0.00  0.00    +0.151 C 
BRANCH  10  11
ATOM     11  C   UNL     1     -11.342  -0.797   9.291  0.00  0.00    -0.028 A 
ATOM     12  C   UNL     1     -10.411   0.203   8.975  0.00  0.00    +0.005 A 
ATOM     13  C   UNL     1     -10.878  -1.997   9.850  0.00  0.00    +0.005 A 
ATOM     14  C   UNL     1      -9.051   0.014   9.235  0.00  0.00    +0.000 A 
ATOM     15  C   UNL     1      -9.520  -2.182  10.108  0.00  0.00    +0.000 A 
ATOM     16  C   UNL     1      -8.607  -1.176   9.802  0.00  0.00    +0.000 A 
ENDBRANCH  10  11
ENDBRANCH   1  10
TORSDOF 2
ENDMDL
