MODEL 1
REMARK VINA RESULT:    -6.072      0.000      0.000
REMARK INTER + INTRA:          -6.912
REMARK INTER:                  -6.782
REMARK INTRA:                  -0.131
REMARK UNBOUND:                -0.131
REMARK  Name = 1550473
REMARK  2 active torsions:
REMARK  status: ('A' for Active; 'I' for Inactive)
REMARK    1  A    between atoms: N_1  and  C_4
REMARK    2  A    between atoms: C_4  and  C_5
REMARK                            x       y       z     vdW  Elec       q    Type
REMARK                         _______ _______ _______ _____ _____    ______ ____
ROOT
ATOM      1  N   UNL     1      -7.682  -3.254   1.041  0.00  0.00    -0.354 N 
ATOM      2  N   UNL     1      -5.564  -3.955   0.418  0.00  0.00    -0.372 N 
ATOM      3  N   UNL     1      -7.230  -5.518   0.637  0.00  0.00    -0.372 N 
ATOM      4  C   UNL     1      -6.841  -4.240   0.703  0.00  0.00    +0.166 C 
ATOM      5  H   UNL     1      -7.317  -2.310   1.103  0.00  0.00    +0.163 HD
ATOM      6  H   UNL     1      -4.907  -4.678   0.156  0.00  0.00    +0.159 HD
ATOM      7  H   UNL     1      -5.214  -3.005   0.436  0.00  0.00    +0.159 HD
ATOM      8  H   UNL     1      -8.179  -5.800   0.845  0.00  0.00    +0.159 HD
ATOM      9  H   UNL     1      -6.585  -6.257   0.388  0.00  0.00    +0.159 HD
ENDROOT
BRANCH   1  10
ATOM     10  C   UNL     1      -9.104  -3.451   1.318  0.00  0.00    +0.151 C 
BRANCH  10  11
ATOM     11  C   UNL     1      -9.909  -2.572   0.402  0.00  0.00    -0.028 A 
ATOM     12  C   UNL     1      -9.707  -1.184   0.387  0.00  0.00    +0.005 A 
ATOM     13  C   UNL     1     -10.872  -3.121  -0.458  0.00  0.00    +0.005 A 
ATOM     14  C   UNL     1     -10.433  -0.370  -0.485  0.00  0.00    +0.000 A 
ATOM     15  C   UNL     1     -11.596  -2.305  -1.327  0.00  0.00    +0.000 A 
ATOM     16  C   UNL     1     -11.375  -0.930  -1.342  0.00  0.00    +0.000 A 
ENDBRANCH  10  11
ENDBRANCH   1  10
TORSDOF 2
ENDMDL
MODEL 2
REMARK VINA RESULT:    -5.867      1.511      2.068
REMARK INTER + INTRA:          -6.683
REMARK INTER:                  -6.558
REMARK INTRA:                  -0.126
REMARK UNBOUND:                -0.131
REMARK  Name = 1550473
REMARK  2 active torsions:
REMARK  status: ('A' for Active; 'I' for Inactive)
REMARK    1  A    between atoms: N_1  and  C_4
REMARK    2  A    between atoms: C_4  and  C_5
REMARK                            x       y       z     vdW  Elec       q    Type
REMARK                         _______ _______ _______ _____ _____    ______ ____
ROOT
ATOM      1  N   UNL     1      -7.762  -3.716  -0.517  0.00  0.00    -0.354 N 
ATOM      2  N   UNL     1      -5.537  -3.879   0.104  0.00  0.00    -0.372 N 
ATOM      3  N   UNL     1      -6.356  -5.330  -1.473  0.00  0.00    -0.372 N 
ATOM      4  C   UNL     1      -6.566  -4.310  -0.635  0.00  0.00    +0.166 C 
ATOM      5  H   UNL     1      -7.863  -2.968   0.159  0.00  0.00    +0.163 HD
ATOM      6  H   UNL     1      -4.622  -4.305   0.035  0.00  0.00    +0.159 HD
ATOM      7  H   UNL     1      -5.629  -3.101   0.745  0.00  0.00    +0.159 HD
ATOM      8  H   UNL     1      -7.094  -5.705  -2.054  0.00  0.00    +0.159 HD
ATOM      9  H   UNL     1      -5.451  -5.776  -1.549  0.00  0.00    +0.159 HD
ENDROOT
BRANCH   1  10
ATOM     10  C   UNL     1      -8.934  -4.074  -1.315  0.00  0.00    +0.151 C 
BRANCH  10  11
ATOM     11  C   UNL     1      -9.880  -2.905  -1.348  0.00  0.00    -0.028 A 
ATOM     12  C   UNL     1     -11.253  -3.107  -1.548  0.00  0.00    +0.005 A 
ATOM     13  C   UNL     1      -9.410  -1.594  -1.175  0.00  0.00    +0.005 A 
ATOM     14  C   UNL     1     -12.137  -2.025  -1.549  0.00  0.00    +0.000 A 
ATOM     15  C   UNL     1     -10.295  -0.516  -1.178  0.00  0.00    +0.000 A 
ATOM     16  C   UNL     1     -11.658  -0.732  -1.363  0.00  0.00    +0.000 A 
ENDBRANCH  10  11
ENDBRANCH   1  10
TORSDOF 2
ENDMDL
MODEL 3
REMARK VINA RESULT:    -5.865      3.014      4.105
REMARK INTER + INTRA:          -6.682
REMARK INTER:                  -6.539
REMARK INTRA:                  -0.143
REMARK UNBOUND:                -0.131
REMARK  Name = 1550473
REMARK  2 active torsions:
REMARK  status: ('A' for Active; 'I' for Inactive)
REMARK    1  A    between atoms: N_1  and  C_4
REMARK    2  A    between atoms: C_4  and  C_5
REMARK                            x       y       z     vdW  Elec       q    Type
REMARK                         _______ _______ _______ _____ _____    ______ ____
ROOT
ATOM      1  N   UNL     1      -9.085  -1.433   3.562  0.00  0.00    -0.354 N 
ATOM      2  N   UNL     1      -9.849  -1.591   5.743  0.00  0.00    -0.372 N 
ATOM      3  N   UNL     1     -10.058   0.409   4.637  0.00  0.00    -0.372 N 
ATOM      4  C   UNL     1      -9.659  -0.868   4.632  0.00  0.00    +0.166 C 
ATOM      5  H   UNL     1      -8.778  -2.396   3.633  0.00  0.00    +0.163 HD
ATOM      6  H   UNL     1     -10.283  -1.193   6.565  0.00  0.00    +0.159 HD
ATOM      7  H   UNL     1      -9.583  -2.567   5.795  0.00  0.00    +0.159 HD
ATOM      8  H   UNL     1      -9.937   1.010   3.833  0.00  0.00    +0.159 HD
ATOM      9  H   UNL     1     -10.483   0.828   5.454  0.00  0.00    +0.159 HD
ENDROOT
BRANCH   1  10
ATOM     10  C   UNL     1      -8.882  -0.748   2.287  0.00  0.00    +0.151 C 
BRANCH  10  11
ATOM     11  C   UNL     1      -9.558  -1.531   1.196  0.00  0.00    -0.028 A 
ATOM     12  C   UNL     1     -10.011  -0.889   0.034  0.00  0.00    +0.005 A 
ATOM     13  C   UNL     1      -9.746  -2.917   1.315  0.00  0.00    +0.005 A 
ATOM     14  C   UNL     1     -10.612  -1.620  -0.993  0.00  0.00    +0.000 A 
ATOM     15  C   UNL     1     -10.348  -3.644   0.288  0.00  0.00    +0.000 A 
ATOM     16  C   UNL     1     -10.779  -2.995  -0.867  0.00  0.00    +0.000 A 
ENDBRANCH  10  11
ENDBRANCH   1  10
TORSDOF 2
ENDMDL
MODEL 4
REMARK VINA RESULT:    -5.807      1.772      2.339
REMARK INTER + INTRA:          -6.617
REMARK INTER:                  -6.437
REMARK INTRA:                  -0.180
REMARK UNBOUND:                -0.131
REMARK  Name = 1550473
REMARK  2 active torsions:
REMARK  status: ('A' for Active; 'I' for Inactive)
REMARK    1  A    between atoms: N_1  and  C_4
REMARK    2  A    between atoms: C_4  and  C_5
REMARK                            x       y       z     vdW  Elec       q    Type
REMARK                         _______ _______ _______ _____ _____    ______ ____
ROOT
ATOM      1  N   UNL     1      -9.058  -3.439   1.740  0.00  0.00    -0.354 N 
ATOM      2  N   UNL     1      -8.945  -2.838   3.974  0.00  0.00    -0.372 N 
ATOM      3  N   UNL     1      -7.735  -1.636   2.440  0.00  0.00    -0.372 N 
ATOM      4  C   UNL     1      -8.578  -2.640   2.702  0.00  0.00    +0.166 C 
ATOM      5  H   UNL     1      -9.670  -4.201   2.008  0.00  0.00    +0.163 HD
ATOM      6  H   UNL     1      -8.602  -2.249   4.721  0.00  0.00    +0.159 HD
ATOM      7  H   UNL     1      -9.593  -3.572   4.233  0.00  0.00    +0.159 HD
ATOM      8  H   UNL     1      -7.415  -1.437   1.501  0.00  0.00    +0.159 HD
ATOM      9  H   UNL     1      -7.372  -1.043   3.175  0.00  0.00    +0.159 HD
ENDROOT
BRANCH   1  10
ATOM     10  C   UNL     1      -8.763  -3.274   0.318  0.00  0.00    +0.151 C 
BRANCH  10  11
ATOM     11  C   UNL     1      -9.890  -2.520  -0.333  0.00  0.00    -0.028 A 
ATOM     12  C   UNL     1      -9.758  -1.154  -0.623  0.00  0.00    +0.005 A 
ATOM     13  C   UNL     1     -11.089  -3.168  -0.669  0.00  0.00    +0.005 A 
ATOM     14  C   UNL     1     -10.793  -0.460  -1.255  0.00  0.00    +0.000 A 
ATOM     15  C   UNL     1     -12.120  -2.471  -1.299  0.00  0.00    +0.000 A 
ATOM     16  C   UNL     1     -11.971  -1.118  -1.594  0.00  0.00    +0.000 A 
ENDBRANCH  10  11
ENDBRANCH   1  10
TORSDOF 2
ENDMDL
MODEL 5
REMARK VINA RESULT:    -5.796      1.723      2.718
REMARK INTER + INTRA:          -6.605
REMARK INTER:                  -6.443
REMARK INTRA:                  -0.162
REMARK UNBOUND:                -0.131
REMARK  Name = 1550473
REMARK  2 active torsions:
REMARK  status: ('A' for Active; 'I' for Inactive)
REMARK    1  A    between atoms: N_1  and  C_4
REMARK    2  A    between atoms: C_4  and  C_5
REMARK                            x       y       z     vdW  Elec       q    Type
REMARK                         _______ _______ _______ _____ _____    ______ ____
ROOT
ATOM      1  N   UNL     1      -9.024  -3.491   1.770  0.00  0.00    -0.354 N 
ATOM      2  N   UNL     1      -8.929  -2.886   4.003  0.00  0.00    -0.372 N 
ATOM      3  N   UNL     1      -7.688  -1.701   2.480  0.00  0.00    -0.372 N 
ATOM      4  C   UNL     1      -8.546  -2.695   2.735  0.00  0.00    +0.166 C 
ATOM      5  H   UNL     1      -9.647  -4.246   2.032  0.00  0.00    +0.163 HD
ATOM      6  H   UNL     1      -8.588  -2.299   4.753  0.00  0.00    +0.159 HD
ATOM      7  H   UNL     1      -9.588  -3.612   4.257  0.00  0.00    +0.159 HD
ATOM      8  H   UNL     1      -7.355  -1.508   1.545  0.00  0.00    +0.159 HD
ATOM      9  H   UNL     1      -7.327  -1.110   3.218  0.00  0.00    +0.159 HD
ENDROOT
BRANCH   1  10
ATOM     10  C   UNL     1      -8.711  -3.333   0.350  0.00  0.00    +0.151 C 
BRANCH  10  11
ATOM     11  C   UNL     1      -9.805  -2.539  -0.308  0.00  0.00    -0.028 A 
ATOM     12  C   UNL     1     -10.971  -3.173  -0.761  0.00  0.00    +0.005 A 
ATOM     13  C   UNL     1      -9.684  -1.151  -0.478  0.00  0.00    +0.005 A 
ATOM     14  C   UNL     1     -12.001  -2.431  -1.346  0.00  0.00    +0.000 A 
ATOM     15  C   UNL     1     -10.713  -0.414  -1.063  0.00  0.00    +0.000 A 
ATOM     16  C   UNL     1     -11.873  -1.054  -1.494  0.00  0.00    +0.000 A 
ENDBRANCH  10  11
ENDBRANCH   1  10
TORSDOF 2
ENDMDL
MODEL 6
REMARK VINA RESULT:    -5.600      1.973      2.693
REMARK INTER + INTRA:          -6.386
REMARK INTER:                  -6.259
REMARK INTRA:                  -0.127
REMARK UNBOUND:                -0.131
REMARK  Name = 1550473
REMARK  2 active torsions:
REMARK  status: ('A' for Active; 'I' for Inactive)
REMARK    1  A    between atoms: N_1  and  C_4
REMARK    2  A    between atoms: C_4  and  C_5
REMARK                            x       y       z     vdW  Elec       q    Type
REMARK                         _______ _______ _______ _____ _____    ______ ____
ROOT
ATOM      1  N   UNL     1      -7.747  -1.592   2.421  0.00  0.00    -0.354 N 
ATOM      2  N   UNL     1      -6.359  -3.176   3.385  0.00  0.00    -0.372 N 
ATOM      3  N   UNL     1      -8.447  -2.840   4.277  0.00  0.00    -0.372 N 
ATOM      4  C   UNL     1      -7.529  -2.526   3.356  0.00  0.00    +0.166 C 
ATOM      5  H   UNL     1      -7.000  -1.378   1.771  0.00  0.00    +0.163 HD
ATOM      6  H   UNL     1      -6.167  -3.888   4.076  0.00  0.00    +0.159 HD
ATOM      7  H   UNL     1      -5.632  -2.993   2.705  0.00  0.00    +0.159 HD
ATOM      8  H   UNL     1      -9.347  -2.382   4.314  0.00  0.00    +0.159 HD
ATOM      9  H   UNL     1      -8.269  -3.542   4.985  0.00  0.00    +0.159 HD
ENDROOT
BRANCH   1  10
ATOM     10  C   UNL     1      -9.006  -0.864   2.270  0.00  0.00    +0.151 C 
BRANCH  10  11
ATOM     11  C   UNL     1      -9.679  -1.305   1.000  0.00  0.00    -0.028 A 
ATOM     12  C   UNL     1     -10.040  -2.647   0.814  0.00  0.00    +0.005 A 
ATOM     13  C   UNL     1      -9.964  -0.383  -0.020  0.00  0.00    +0.005 A 
ATOM     14  C   UNL     1     -10.692  -3.051  -0.353  0.00  0.00    +0.000 A 
ATOM     15  C   UNL     1     -10.614  -0.791  -1.184  0.00  0.00    +0.000 A 
ATOM     16  C   UNL     1     -10.981  -2.125  -1.350  0.00  0.00    +0.000 A 
ENDBRANCH  10  11
ENDBRANCH   1  10
TORSDOF 2
ENDMDL
MODEL 7
REMARK VINA RESULT:    -5.519      2.535      2.919
REMARK INTER + INTRA:          -6.295
REMARK INTER:                  -6.274
REMARK INTRA:                  -0.021
REMARK UNBOUND:                -0.131
REMARK  Name = 1550473
REMARK  2 active torsions:
REMARK  status: ('A' for Active; 'I' for Inactive)
REMARK    1  A    between atoms: N_1  and  C_4
REMARK    2  A    between atoms: C_4  and  C_5
REMARK                            x       y       z     vdW  Elec       q    Type
REMARK                         _______ _______ _______ _____ _____    ______ ____
ROOT
ATOM      1  N   UNL     1      -9.217  -4.527  -1.521  0.00  0.00    -0.354 N 
ATOM      2  N   UNL     1      -9.299  -5.439  -3.648  0.00  0.00    -0.372 N 
ATOM      3  N   UNL     1      -7.480  -4.172  -3.054  0.00  0.00    -0.372 N 
ATOM      4  C   UNL     1      -8.662  -4.705  -2.727  0.00  0.00    +0.166 C 
ATOM      5  H   UNL     1     -10.129  -4.932  -1.346  0.00  0.00    +0.163 HD
ATOM      6  H   UNL     1      -8.903  -5.594  -4.566  0.00  0.00    +0.159 HD
ATOM      7  H   UNL     1     -10.189  -5.881  -3.455  0.00  0.00    +0.159 HD
ATOM      8  H   UNL     1      -6.952  -3.603  -2.406  0.00  0.00    +0.159 HD
ATOM      9  H   UNL     1      -7.073  -4.306  -3.971  0.00  0.00    +0.159 HD
ENDROOT
BRANCH   1  10
ATOM     10  C   UNL     1      -8.582  -3.790  -0.430  0.00  0.00    +0.151 C 
BRANCH  10  11
ATOM     11  C   UNL     1      -9.235  -2.441  -0.302  0.00  0.00    -0.028 A 
ATOM     12  C   UNL     1      -9.257  -1.775   0.932  0.00  0.00    +0.005 A 
ATOM     13  C   UNL     1      -9.828  -1.822  -1.413  0.00  0.00    +0.005 A 
ATOM     14  C   UNL     1      -9.837  -0.509   1.044  0.00  0.00    +0.000 A 
ATOM     15  C   UNL     1     -10.406  -0.558  -1.297  0.00  0.00    +0.000 A 
ATOM     16  C   UNL     1     -10.408   0.099  -0.069  0.00  0.00    +0.000 A 
ENDBRANCH  10  11
ENDBRANCH   1  10
TORSDOF 2
ENDMDL
MODEL 8
REMARK VINA RESULT:    -5.203     24.571     25.882
REMARK INTER + INTRA:          -5.942
REMARK INTER:                  -5.764
REMARK INTRA:                  -0.178
REMARK UNBOUND:                -0.131
REMARK  Name = 1550473
REMARK  2 active torsions:
REMARK  status: ('A' for Active; 'I' for Inactive)
REMARK    1  A    between atoms: N_1  and  C_4
REMARK    2  A    between atoms: C_4  and  C_5
REMARK                            x       y       z     vdW  Elec       q    Type
REMARK                         _______ _______ _______ _____ _____    ______ ____
ROOT
ATOM      1  N   UNL     1      14.297  -9.150   8.337  0.00  0.00    -0.354 N 
ATOM      2  N   UNL     1      12.759  -9.520   6.645  0.00  0.00    -0.372 N 
ATOM      3  N   UNL     1      14.102  -7.664   6.536  0.00  0.00    -0.372 N 
ATOM      4  C   UNL     1      13.731  -8.773   7.183  0.00  0.00    +0.166 C 
ATOM      5  H   UNL     1      13.949  -9.986   8.793  0.00  0.00    +0.163 HD
ATOM      6  H   UNL     1      12.315  -9.263   5.774  0.00  0.00    +0.159 HD
ATOM      7  H   UNL     1      12.445 -10.380   7.080  0.00  0.00    +0.159 HD
ATOM      8  H   UNL     1      14.826  -7.053   6.892  0.00  0.00    +0.159 HD
ATOM      9  H   UNL     1      13.662  -7.383   5.668  0.00  0.00    +0.159 HD
ENDROOT
BRANCH   1  10
ATOM     10  C   UNL     1      15.399  -8.436   8.978  0.00  0.00    +0.151 C 
BRANCH  10  11
ATOM     11  C   UNL     1      14.857  -7.616  10.116  0.00  0.00    -0.028 A 
ATOM     12  C   UNL     1      15.053  -6.228  10.150  0.00  0.00    +0.005 A 
ATOM     13  C   UNL     1      14.142  -8.221  11.161  0.00  0.00    +0.005 A 
ATOM     14  C   UNL     1      14.523  -5.461  11.191  0.00  0.00    +0.000 A 
ATOM     15  C   UNL     1      13.616  -7.452  12.200  0.00  0.00    +0.000 A 
ATOM     16  C   UNL     1      13.805  -6.073  12.213  0.00  0.00    +0.000 A 
ENDBRANCH  10  11
ENDBRANCH   1  10
TORSDOF 2
ENDMDL
MODEL 9
REMARK VINA RESULT:    -5.140     16.435     18.044
REMARK INTER + INTRA:          -5.872
REMARK INTER:                  -5.713
REMARK INTRA:                  -0.159
REMARK UNBOUND:                -0.131
REMARK  Name = 1550473
REMARK  2 active torsions:
REMARK  status: ('A' for Active; 'I' for Inactive)
REMARK    1  A    between atoms: N_1  and  C_4
REMARK    2  A    between atoms: C_4  and  C_5
REMARK                            x       y       z     vdW  Elec       q    Type
REMARK                         _______ _______ _______ _____ _____    ______ ____
ROOT
ATOM      1  N   UNL     1       9.200  -9.042  -1.571  0.00  0.00    -0.354 N 
ATOM      2  N   UNL     1       9.665  -9.891  -3.675  0.00  0.00    -0.372 N 
ATOM      3  N   UNL     1       8.565  -7.885  -3.507  0.00  0.00    -0.372 N 
ATOM      4  C   UNL     1       9.139  -8.932  -2.905  0.00  0.00    +0.166 C 
ATOM      5  H   UNL     1       9.622  -9.875  -1.176  0.00  0.00    +0.163 HD
ATOM      6  H   UNL     1       9.637  -9.834  -4.684  0.00  0.00    +0.159 HD
ATOM      7  H   UNL     1      10.127 -10.701  -3.278  0.00  0.00    +0.159 HD
ATOM      8  H   UNL     1       8.144  -7.130  -2.982  0.00  0.00    +0.159 HD
ATOM      9  H   UNL     1       8.516  -7.815  -4.516  0.00  0.00    +0.159 HD
ENDROOT
BRANCH   1  10
ATOM     10  C   UNL     1       8.706  -8.027  -0.642  0.00  0.00    +0.151 C 
BRANCH  10  11
ATOM     11  C   UNL     1       7.467  -8.544   0.036  0.00  0.00    -0.028 A 
ATOM     12  C   UNL     1       6.343  -7.719   0.189  0.00  0.00    +0.005 A 
ATOM     13  C   UNL     1       7.409  -9.859   0.522  0.00  0.00    +0.005 A 
ATOM     14  C   UNL     1       5.181  -8.208   0.792  0.00  0.00    +0.000 A 
ATOM     15  C   UNL     1       6.247 -10.343   1.124  0.00  0.00    +0.000 A 
ATOM     16  C   UNL     1       5.133  -9.518   1.256  0.00  0.00    +0.000 A 
ENDBRANCH  10  11
ENDBRANCH   1  10
TORSDOF 2
ENDMDL
