MODEL 1
REMARK VINA RESULT:    -5.894      0.000      0.000
REMARK INTER + INTRA:          -6.723
REMARK INTER:                  -6.583
REMARK INTRA:                  -0.140
REMARK UNBOUND:                -0.140
REMARK  Name = 1550473
REMARK  2 active torsions:
REMARK  status: ('A' for Active; 'I' for Inactive)
REMARK    1  A    between atoms: N_1  and  C_4
REMARK    2  A    between atoms: C_4  and  C_5
REMARK                            x       y       z     vdW  Elec       q    Type
REMARK                         _______ _______ _______ _____ _____    ______ ____
ROOT
ATOM      1  N   UNL     1      -1.095  -7.704  -2.399  0.00  0.00    -0.354 N 
ATOM      2  N   UNL     1       1.056  -6.870  -2.605  0.00  0.00    -0.372 N 
ATOM      3  N   UNL     1       0.593  -8.334  -0.900  0.00  0.00    -0.372 N 
ATOM      4  C   UNL     1       0.171  -7.643  -1.964  0.00  0.00    +0.166 C 
ATOM      5  H   UNL     1      -1.359  -7.133  -3.193  0.00  0.00    +0.163 HD
ATOM      6  H   UNL     1       2.019  -6.807  -2.303  0.00  0.00    +0.159 HD
ATOM      7  H   UNL     1       0.800  -6.336  -3.427  0.00  0.00    +0.159 HD
ATOM      8  H   UNL     1      -0.027  -8.931  -0.369  0.00  0.00    +0.159 HD
ATOM      9  H   UNL     1       1.550  -8.274  -0.574  0.00  0.00    +0.159 HD
ENDROOT
BRANCH   1  10
ATOM     10  C   UNL     1      -2.123  -8.556  -1.804  0.00  0.00    +0.151 C 
BRANCH  10  11
ATOM     11  C   UNL     1      -3.278  -7.699  -1.366  0.00  0.00    -0.028 A 
ATOM     12  C   UNL     1      -4.262  -7.305  -2.285  0.00  0.00    +0.005 A 
ATOM     13  C   UNL     1      -3.398  -7.282  -0.031  0.00  0.00    +0.005 A 
ATOM     14  C   UNL     1      -5.351  -6.533  -1.872  0.00  0.00    +0.000 A 
ATOM     15  C   UNL     1      -4.487  -6.511   0.377  0.00  0.00    +0.000 A 
ATOM     16  C   UNL     1      -5.464  -6.139  -0.543  0.00  0.00    +0.000 A 
ENDBRANCH  10  11
ENDBRANCH   1  10
TORSDOF 2
ENDMDL
MODEL 2
REMARK VINA RESULT:    -5.822      1.266      2.169
REMARK INTER + INTRA:          -6.642
REMARK INTER:                  -6.514
REMARK INTRA:                  -0.128
REMARK UNBOUND:                -0.140
REMARK  Name = 1550473
REMARK  2 active torsions:
REMARK  status: ('A' for Active; 'I' for Inactive)
REMARK    1  A    between atoms: N_1  and  C_4
REMARK    2  A    between atoms: C_4  and  C_5
REMARK                            x       y       z     vdW  Elec       q    Type
REMARK                         _______ _______ _______ _____ _____    ______ ____
ROOT
ATOM      1  N   UNL     1      -1.172  -8.818  -0.452  0.00  0.00    -0.354 N 
ATOM      2  N   UNL     1       0.735  -9.365   0.744  0.00  0.00    -0.372 N 
ATOM      3  N   UNL     1       0.868  -9.202  -1.541  0.00  0.00    -0.372 N 
ATOM      4  C   UNL     1       0.132  -9.125  -0.427  0.00  0.00    +0.166 C 
ATOM      5  H   UNL     1      -1.680  -8.806   0.425  0.00  0.00    +0.163 HD
ATOM      6  H   UNL     1       1.718  -9.595   0.795  0.00  0.00    +0.159 HD
ATOM      7  H   UNL     1       0.234  -9.307   1.623  0.00  0.00    +0.159 HD
ATOM      8  H   UNL     1       0.471  -9.038  -2.456  0.00  0.00    +0.159 HD
ATOM      9  H   UNL     1       1.851  -9.442  -1.511  0.00  0.00    +0.159 HD
ENDROOT
BRANCH   1  10
ATOM     10  C   UNL     1      -1.910  -8.487  -1.669  0.00  0.00    +0.151 C 
BRANCH  10  11
ATOM     11  C   UNL     1      -3.133  -7.693  -1.301  0.00  0.00    -0.028 A 
ATOM     12  C   UNL     1      -3.366  -7.322   0.031  0.00  0.00    +0.005 A 
ATOM     13  C   UNL     1      -4.059  -7.303  -2.281  0.00  0.00    +0.005 A 
ATOM     14  C   UNL     1      -4.487  -6.558   0.369  0.00  0.00    +0.000 A 
ATOM     15  C   UNL     1      -5.177  -6.542  -1.939  0.00  0.00    +0.000 A 
ATOM     16  C   UNL     1      -5.389  -6.168  -0.614  0.00  0.00    +0.000 A 
ENDBRANCH  10  11
ENDBRANCH   1  10
TORSDOF 2
ENDMDL
MODEL 3
REMARK VINA RESULT:    -4.928     21.027     21.738
REMARK INTER + INTRA:          -5.644
REMARK INTER:                  -5.484
REMARK INTRA:                  -0.161
REMARK UNBOUND:                -0.140
REMARK  Name = 1550473
REMARK  2 active torsions:
REMARK  status: ('A' for Active; 'I' for Inactive)
REMARK    1  A    between atoms: N_1  and  C_4
REMARK    2  A    between atoms: C_4  and  C_5
REMARK                            x       y       z     vdW  Elec       q    Type
REMARK                         _______ _______ _______ _____ _____    ______ ____
ROOT
ATOM      1  N   UNL     1       0.314  13.828  -0.220  0.00  0.00    -0.354 N 
ATOM      2  N   UNL     1       0.799  14.752   1.848  0.00  0.00    -0.372 N 
ATOM      3  N   UNL     1       0.404  16.152   0.073  0.00  0.00    -0.372 N 
ATOM      4  C   UNL     1       0.502  14.907   0.552  0.00  0.00    +0.166 C 
ATOM      5  H   UNL     1       0.432  12.912   0.197  0.00  0.00    +0.163 HD
ATOM      6  H   UNL     1       0.943  15.547   2.456  0.00  0.00    +0.159 HD
ATOM      7  H   UNL     1       0.871  13.835   2.272  0.00  0.00    +0.159 HD
ATOM      8  H   UNL     1       0.189  16.337  -0.898  0.00  0.00    +0.159 HD
ATOM      9  H   UNL     1       0.557  16.960   0.663  0.00  0.00    +0.159 HD
ENDROOT
BRANCH   1  10
ATOM     10  C   UNL     1      -0.065  13.888  -1.631  0.00  0.00    +0.151 C 
BRANCH  10  11
ATOM     11  C   UNL     1       1.027  13.270  -2.459  0.00  0.00    -0.028 A 
ATOM     12  C   UNL     1       0.908  11.952  -2.924  0.00  0.00    +0.005 A 
ATOM     13  C   UNL     1       2.180  13.998  -2.788  0.00  0.00    +0.005 A 
ATOM     14  C   UNL     1       1.908  11.387  -3.719  0.00  0.00    +0.000 A 
ATOM     15  C   UNL     1       3.177  13.431  -3.581  0.00  0.00    +0.000 A 
ATOM     16  C   UNL     1       3.040  12.126  -4.048  0.00  0.00    +0.000 A 
ENDBRANCH  10  11
ENDBRANCH   1  10
TORSDOF 2
ENDMDL
MODEL 4
REMARK VINA RESULT:    -4.828     20.054     20.565
REMARK INTER + INTRA:          -5.533
REMARK INTER:                  -5.393
REMARK INTRA:                  -0.140
REMARK UNBOUND:                -0.140
REMARK  Name = 1550473
REMARK  2 active torsions:
REMARK  status: ('A' for Active; 'I' for Inactive)
REMARK    1  A    between atoms: N_1  and  C_4
REMARK    2  A    between atoms: C_4  and  C_5
REMARK                            x       y       z     vdW  Elec       q    Type
REMARK                         _______ _______ _______ _____ _____    ______ ____
ROOT
ATOM      1  N   UNL     1       3.262  11.356  -3.346  0.00  0.00    -0.354 N 
ATOM      2  N   UNL     1       5.477  10.759  -3.662  0.00  0.00    -0.372 N 
ATOM      3  N   UNL     1       4.524  12.278  -5.092  0.00  0.00    -0.372 N 
ATOM      4  C   UNL     1       4.406  11.470  -4.034  0.00  0.00    +0.166 C 
ATOM      5  H   UNL     1       3.229  10.703  -2.572  0.00  0.00    +0.163 HD
ATOM      6  H   UNL     1       6.355  10.826  -4.159  0.00  0.00    +0.159 HD
ATOM      7  H   UNL     1       5.455  10.141  -2.859  0.00  0.00    +0.159 HD
ATOM      8  H   UNL     1       3.751  12.837  -5.428  0.00  0.00    +0.159 HD
ATOM      9  H   UNL     1       5.391  12.351  -5.610  0.00  0.00    +0.159 HD
ENDROOT
BRANCH   1  10
ATOM     10  C   UNL     1       2.054  12.126  -3.636  0.00  0.00    +0.151 C 
BRANCH  10  11
ATOM     11  C   UNL     1       1.524  12.709  -2.355  0.00  0.00    -0.028 A 
ATOM     12  C   UNL     1       2.310  12.709  -1.194  0.00  0.00    +0.005 A 
ATOM     13  C   UNL     1       0.238  13.268  -2.298  0.00  0.00    +0.005 A 
ATOM     14  C   UNL     1       1.830  13.277  -0.011  0.00  0.00    +0.000 A 
ATOM     15  C   UNL     1      -0.238  13.834  -1.115  0.00  0.00    +0.000 A 
ATOM     16  C   UNL     1       0.559  13.840   0.027  0.00  0.00    +0.000 A 
ENDBRANCH  10  11
ENDBRANCH   1  10
TORSDOF 2
ENDMDL
MODEL 5
REMARK VINA RESULT:    -4.610     24.514     25.179
REMARK INTER + INTRA:          -5.289
REMARK INTER:                  -5.183
REMARK INTRA:                  -0.105
REMARK UNBOUND:                -0.140
REMARK  Name = 1550473
REMARK  2 active torsions:
REMARK  status: ('A' for Active; 'I' for Inactive)
REMARK    1  A    between atoms: N_1  and  C_4
REMARK    2  A    between atoms: C_4  and  C_5
REMARK                            x       y       z     vdW  Elec       q    Type
REMARK                         _______ _______ _______ _____ _____    ______ ____
ROOT
ATOM      1  N   UNL     1       5.102   5.380  18.596  0.00  0.00    -0.354 N 
ATOM      2  N   UNL     1       6.420   3.607  17.902  0.00  0.00    -0.372 N 
ATOM      3  N   UNL     1       7.440   5.546  18.582  0.00  0.00    -0.372 N 
ATOM      4  C   UNL     1       6.314   4.858  18.365  0.00  0.00    +0.166 C 
ATOM      5  H   UNL     1       4.287   4.817  18.383  0.00  0.00    +0.163 HD
ATOM      6  H   UNL     1       7.321   3.184  17.721  0.00  0.00    +0.159 HD
ATOM      7  H   UNL     1       5.605   3.030  17.733  0.00  0.00    +0.159 HD
ATOM      8  H   UNL     1       7.428   6.497  18.925  0.00  0.00    +0.159 HD
ATOM      9  H   UNL     1       8.351   5.145  18.396  0.00  0.00    +0.159 HD
ENDROOT
BRANCH   1  10
ATOM     10  C   UNL     1       4.879   6.714  19.151  0.00  0.00    +0.151 C 
BRANCH  10  11
ATOM     11  C   UNL     1       3.468   7.140  18.853  0.00  0.00    -0.028 A 
ATOM     12  C   UNL     1       2.393   6.282  19.126  0.00  0.00    +0.005 A 
ATOM     13  C   UNL     1       3.199   8.403  18.304  0.00  0.00    +0.005 A 
ATOM     14  C   UNL     1       1.079   6.689  18.878  0.00  0.00    +0.000 A 
ATOM     15  C   UNL     1       1.886   8.805  18.056  0.00  0.00    +0.000 A 
ATOM     16  C   UNL     1       0.827   7.949  18.346  0.00  0.00    +0.000 A 
ENDBRANCH  10  11
ENDBRANCH   1  10
TORSDOF 2
ENDMDL
MODEL 6
REMARK VINA RESULT:    -4.602      1.921      2.687
REMARK INTER + INTRA:          -5.280
REMARK INTER:                  -5.131
REMARK INTRA:                  -0.150
REMARK UNBOUND:                -0.140
REMARK  Name = 1550473
REMARK  2 active torsions:
REMARK  status: ('A' for Active; 'I' for Inactive)
REMARK    1  A    between atoms: N_1  and  C_4
REMARK    2  A    between atoms: C_4  and  C_5
REMARK                            x       y       z     vdW  Elec       q    Type
REMARK                         _______ _______ _______ _____ _____    ______ ____
ROOT
ATOM      1  N   UNL     1       0.804  -9.796  -0.555  0.00  0.00    -0.354 N 
ATOM      2  N   UNL     1       2.827  -8.669  -0.514  0.00  0.00    -0.372 N 
ATOM      3  N   UNL     1       1.669  -8.797  -2.491  0.00  0.00    -0.372 N 
ATOM      4  C   UNL     1       1.753  -9.095  -1.190  0.00  0.00    +0.166 C 
ATOM      5  H   UNL     1       0.942 -10.015   0.425  0.00  0.00    +0.163 HD
ATOM      6  H   UNL     1       3.557  -8.135  -0.966  0.00  0.00    +0.159 HD
ATOM      7  H   UNL     1       2.940  -8.850   0.476  0.00  0.00    +0.159 HD
ATOM      8  H   UNL     1       0.886  -9.094  -3.059  0.00  0.00    +0.159 HD
ATOM      9  H   UNL     1       2.395  -8.273  -2.963  0.00  0.00    +0.159 HD
ENDROOT
BRANCH   1  10
ATOM     10  C   UNL     1      -0.430 -10.260  -1.187  0.00  0.00    +0.151 C 
BRANCH  10  11
ATOM     11  C   UNL     1      -1.566  -9.374  -0.755  0.00  0.00    -0.028 A 
ATOM     12  C   UNL     1      -1.747  -8.113  -1.341  0.00  0.00    +0.005 A 
ATOM     13  C   UNL     1      -2.467  -9.792   0.236  0.00  0.00    +0.005 A 
ATOM     14  C   UNL     1      -2.820  -7.302  -0.961  0.00  0.00    +0.000 A 
ATOM     15  C   UNL     1      -3.536  -8.979   0.613  0.00  0.00    +0.000 A 
ATOM     16  C   UNL     1      -3.713  -7.736   0.012  0.00  0.00    +0.000 A 
ENDBRANCH  10  11
ENDBRANCH   1  10
TORSDOF 2
ENDMDL
MODEL 7
REMARK VINA RESULT:    -4.523      4.093      6.654
REMARK INTER + INTRA:          -5.191
REMARK INTER:                  -5.071
REMARK INTRA:                  -0.120
REMARK UNBOUND:                -0.140
REMARK  Name = 1550473
REMARK  2 active torsions:
REMARK  status: ('A' for Active; 'I' for Inactive)
REMARK    1  A    between atoms: N_1  and  C_4
REMARK    2  A    between atoms: C_4  and  C_5
REMARK                            x       y       z     vdW  Elec       q    Type
REMARK                         _______ _______ _______ _____ _____    ______ ____
ROOT
ATOM      1  N   UNL     1       1.229  -8.315  -0.993  0.00  0.00    -0.354 N 
ATOM      2  N   UNL     1       0.504  -9.819   0.612  0.00  0.00    -0.372 N 
ATOM      3  N   UNL     1      -1.041  -8.856  -0.785  0.00  0.00    -0.372 N 
ATOM      4  C   UNL     1       0.233  -8.986  -0.400  0.00  0.00    +0.166 C 
ATOM      5  H   UNL     1       2.170  -8.434  -0.635  0.00  0.00    +0.163 HD
ATOM      6  H   UNL     1      -0.227 -10.341   1.076  0.00  0.00    +0.159 HD
ATOM      7  H   UNL     1       1.450  -9.971   0.938  0.00  0.00    +0.159 HD
ATOM      8  H   UNL     1      -1.313  -8.239  -1.539  0.00  0.00    +0.159 HD
ATOM      9  H   UNL     1      -1.788  -9.361  -0.325  0.00  0.00    +0.159 HD
ENDROOT
BRANCH   1  10
ATOM     10  C   UNL     1       1.048  -7.425  -2.139  0.00  0.00    +0.151 C 
BRANCH  10  11
ATOM     11  C   UNL     1       2.378  -7.206  -2.806  0.00  0.00    -0.028 A 
ATOM     12  C   UNL     1       2.443  -6.762  -4.135  0.00  0.00    +0.005 A 
ATOM     13  C   UNL     1       3.576  -7.435  -2.113  0.00  0.00    +0.005 A 
ATOM     14  C   UNL     1       3.678  -6.529  -4.745  0.00  0.00    +0.000 A 
ATOM     15  C   UNL     1       4.807  -7.203  -2.726  0.00  0.00    +0.000 A 
ATOM     16  C   UNL     1       4.857  -6.747  -4.042  0.00  0.00    +0.000 A 
ENDBRANCH  10  11
ENDBRANCH   1  10
TORSDOF 2
ENDMDL
MODEL 8
REMARK VINA RESULT:    -4.488     14.252     15.600
REMARK INTER + INTRA:          -5.153
REMARK INTER:                  -5.043
REMARK INTRA:                  -0.110
REMARK UNBOUND:                -0.140
REMARK  Name = 1550473
REMARK  2 active torsions:
REMARK  status: ('A' for Active; 'I' for Inactive)
REMARK    1  A    between atoms: N_1  and  C_4
REMARK    2  A    between atoms: C_4  and  C_5
REMARK                            x       y       z     vdW  Elec       q    Type
REMARK                         _______ _______ _______ _____ _____    ______ ____
ROOT
ATOM      1  N   UNL     1     -12.821  -3.621   9.274  0.00  0.00    -0.354 N 
ATOM      2  N   UNL     1     -13.503  -5.273   7.801  0.00  0.00    -0.372 N 
ATOM      3  N   UNL     1     -12.129  -3.603   7.035  0.00  0.00    -0.372 N 
ATOM      4  C   UNL     1     -12.812  -4.153   8.045  0.00  0.00    +0.166 C 
ATOM      5  H   UNL     1     -13.383  -4.070   9.989  0.00  0.00    +0.163 HD
ATOM      6  H   UNL     1     -13.512  -5.700   6.885  0.00  0.00    +0.159 HD
ATOM      7  H   UNL     1     -14.026  -5.745   8.529  0.00  0.00    +0.159 HD
ATOM      8  H   UNL     1     -11.593  -2.753   7.152  0.00  0.00    +0.159 HD
ATOM      9  H   UNL     1     -12.136  -4.008   6.108  0.00  0.00    +0.159 HD
ENDROOT
BRANCH   1  10
ATOM     10  C   UNL     1     -12.059  -2.434   9.657  0.00  0.00    +0.151 C 
BRANCH  10  11
ATOM     11  C   UNL     1     -11.064  -2.810  10.719  0.00  0.00    -0.028 A 
ATOM     12  C   UNL     1     -10.484  -4.088  10.732  0.00  0.00    +0.005 A 
ATOM     13  C   UNL     1     -10.691  -1.892  11.713  0.00  0.00    +0.005 A 
ATOM     14  C   UNL     1      -9.537  -4.428  11.701  0.00  0.00    +0.000 A 
ATOM     15  C   UNL     1      -9.746  -2.236  12.680  0.00  0.00    +0.000 A 
ATOM     16  C   UNL     1      -9.168  -3.503  12.672  0.00  0.00    +0.000 A 
ENDBRANCH  10  11
ENDBRANCH   1  10
TORSDOF 2
ENDMDL
MODEL 9
REMARK VINA RESULT:    -4.433      5.972      7.469
REMARK INTER + INTRA:          -5.091
REMARK INTER:                  -5.001
REMARK INTRA:                  -0.091
REMARK UNBOUND:                -0.140
REMARK  Name = 1550473
REMARK  2 active torsions:
REMARK  status: ('A' for Active; 'I' for Inactive)
REMARK    1  A    between atoms: N_1  and  C_4
REMARK    2  A    between atoms: C_4  and  C_5
REMARK                            x       y       z     vdW  Elec       q    Type
REMARK                         _______ _______ _______ _____ _____    ______ ____
ROOT
ATOM      1  N   UNL     1       3.412  -5.879  -6.114  0.00  0.00    -0.354 N 
ATOM      2  N   UNL     1       1.888  -5.346  -7.775  0.00  0.00    -0.372 N 
ATOM      3  N   UNL     1       2.246  -3.846  -6.075  0.00  0.00    -0.372 N 
ATOM      4  C   UNL     1       2.525  -5.025  -6.642  0.00  0.00    +0.166 C 
ATOM      5  H   UNL     1       3.556  -6.770  -6.575  0.00  0.00    +0.163 HD
ATOM      6  H   UNL     1       1.216  -4.720  -8.199  0.00  0.00    +0.159 HD
ATOM      7  H   UNL     1       2.068  -6.217  -8.259  0.00  0.00    +0.159 HD
ATOM      8  H   UNL     1       2.688  -3.547  -5.216  0.00  0.00    +0.159 HD
ATOM      9  H   UNL     1       1.568  -3.211  -6.478  0.00  0.00    +0.159 HD
ENDROOT
BRANCH   1  10
ATOM     10  C   UNL     1       4.198  -5.602  -4.913  0.00  0.00    +0.151 C 
BRANCH  10  11
ATOM     11  C   UNL     1       3.740  -6.511  -3.806  0.00  0.00    -0.028 A 
ATOM     12  C   UNL     1       4.660  -7.022  -2.878  0.00  0.00    +0.005 A 
ATOM     13  C   UNL     1       2.387  -6.861  -3.676  0.00  0.00    +0.005 A 
ATOM     14  C   UNL     1       4.230  -7.842  -1.831  0.00  0.00    +0.000 A 
ATOM     15  C   UNL     1       1.963  -7.681  -2.630  0.00  0.00    +0.000 A 
ATOM     16  C   UNL     1       2.884  -8.169  -1.707  0.00  0.00    +0.000 A 
ENDBRANCH  10  11
ENDBRANCH   1  10
TORSDOF 2
ENDMDL
