MODEL 1
REMARK VINA RESULT:    -4.708      0.000      0.000
REMARK INTER + INTRA:          -5.398
REMARK INTER:                  -5.259
REMARK INTRA:                  -0.139
REMARK UNBOUND:                -0.139
REMARK  Name = 1550473
REMARK  2 active torsions:
REMARK  status: ('A' for Active; 'I' for Inactive)
REMARK    1  A    between atoms: N_1  and  C_4
REMARK    2  A    between atoms: C_4  and  C_5
REMARK                            x       y       z     vdW  Elec       q    Type
REMARK                         _______ _______ _______ _____ _____    ______ ____
ROOT
ATOM      1  N   UNL     1      -4.727   6.357  -4.322  0.00  0.00    -0.354 N 
ATOM      2  N   UNL     1      -4.535   8.033  -5.909  0.00  0.00    -0.372 N 
ATOM      3  N   UNL     1      -4.966   8.612  -3.731  0.00  0.00    -0.372 N 
ATOM      4  C   UNL     1      -4.745   7.658  -4.641  0.00  0.00    +0.166 C 
ATOM      5  H   UNL     1      -4.584   5.681  -5.064  0.00  0.00    +0.163 HD
ATOM      6  H   UNL     1      -4.539   9.007  -6.179  0.00  0.00    +0.159 HD
ATOM      7  H   UNL     1      -4.346   7.358  -6.640  0.00  0.00    +0.159 HD
ATOM      8  H   UNL     1      -5.137   8.395  -2.758  0.00  0.00    +0.159 HD
ATOM      9  H   UNL     1      -4.985   9.592  -3.984  0.00  0.00    +0.159 HD
ENDROOT
BRANCH   1  10
ATOM     10  C   UNL     1      -4.891   5.847  -2.962  0.00  0.00    +0.151 C 
BRANCH  10  11
ATOM     11  C   UNL     1      -3.801   4.851  -2.676  0.00  0.00    -0.028 A 
ATOM     12  C   UNL     1      -4.095   3.637  -2.039  0.00  0.00    +0.005 A 
ATOM     13  C   UNL     1      -2.472   5.115  -3.044  0.00  0.00    +0.005 A 
ATOM     14  C   UNL     1      -3.087   2.699  -1.801  0.00  0.00    +0.000 A 
ATOM     15  C   UNL     1      -1.469   4.176  -2.803  0.00  0.00    +0.000 A 
ATOM     16  C   UNL     1      -1.777   2.968  -2.184  0.00  0.00    +0.000 A 
ENDBRANCH  10  11
ENDBRANCH   1  10
TORSDOF 2
ENDMDL
MODEL 2
REMARK VINA RESULT:    -4.379      3.275      4.750
REMARK INTER + INTRA:          -5.031
REMARK INTER:                  -4.878
REMARK INTRA:                  -0.152
REMARK UNBOUND:                -0.139
REMARK  Name = 1550473
REMARK  2 active torsions:
REMARK  status: ('A' for Active; 'I' for Inactive)
REMARK    1  A    between atoms: N_1  and  C_4
REMARK    2  A    between atoms: C_4  and  C_5
REMARK                            x       y       z     vdW  Elec       q    Type
REMARK                         _______ _______ _______ _____ _____    ______ ____
ROOT
ATOM      1  N   UNL     1      -3.346   3.598  -1.617  0.00  0.00    -0.354 N 
ATOM      2  N   UNL     1      -1.218   2.704  -1.803  0.00  0.00    -0.372 N 
ATOM      3  N   UNL     1      -1.836   4.401  -3.218  0.00  0.00    -0.372 N 
ATOM      4  C   UNL     1      -2.147   3.575  -2.214  0.00  0.00    +0.166 C 
ATOM      5  H   UNL     1      -3.530   2.925  -0.881  0.00  0.00    +0.163 HD
ATOM      6  H   UNL     1      -0.303   2.666  -2.232  0.00  0.00    +0.159 HD
ATOM      7  H   UNL     1      -1.389   2.064  -1.037  0.00  0.00    +0.159 HD
ATOM      8  H   UNL     1      -2.495   5.077  -3.579  0.00  0.00    +0.159 HD
ATOM      9  H   UNL     1      -0.929   4.370  -3.668  0.00  0.00    +0.159 HD
ENDROOT
BRANCH   1  10
ATOM     10  C   UNL     1      -4.409   4.543  -1.953  0.00  0.00    +0.151 C 
BRANCH  10  11
ATOM     11  C   UNL     1      -5.551   3.795  -2.582  0.00  0.00    -0.028 A 
ATOM     12  C   UNL     1      -6.045   2.622  -1.993  0.00  0.00    +0.005 A 
ATOM     13  C   UNL     1      -6.149   4.257  -3.765  0.00  0.00    +0.005 A 
ATOM     14  C   UNL     1      -7.125   1.943  -2.561  0.00  0.00    +0.000 A 
ATOM     15  C   UNL     1      -7.227   3.576  -4.329  0.00  0.00    +0.000 A 
ATOM     16  C   UNL     1      -7.717   2.420  -3.726  0.00  0.00    +0.000 A 
ENDBRANCH  10  11
ENDBRANCH   1  10
TORSDOF 2
ENDMDL
MODEL 3
REMARK VINA RESULT:    -4.272     45.101     45.853
REMARK INTER + INTRA:          -4.911
REMARK INTER:                  -4.767
REMARK INTRA:                  -0.143
REMARK UNBOUND:                -0.139
REMARK  Name = 1550473
REMARK  2 active torsions:
REMARK  status: ('A' for Active; 'I' for Inactive)
REMARK    1  A    between atoms: N_1  and  C_4
REMARK    2  A    between atoms: C_4  and  C_5
REMARK                            x       y       z     vdW  Elec       q    Type
REMARK                         _______ _______ _______ _____ _____    ______ ____
ROOT
ATOM      1  N   UNL     1       1.383  10.944  40.795  0.00  0.00    -0.354 N 
ATOM      2  N   UNL     1       0.555  10.173  38.774  0.00  0.00    -0.372 N 
ATOM      3  N   UNL     1       0.553   8.762  40.583  0.00  0.00    -0.372 N 
ATOM      4  C   UNL     1       0.836   9.962  40.065  0.00  0.00    +0.166 C 
ATOM      5  H   UNL     1       1.601  11.821  40.336  0.00  0.00    +0.163 HD
ATOM      6  H   UNL     1       0.139   9.453  38.199  0.00  0.00    +0.159 HD
ATOM      7  H   UNL     1       0.732  11.066  38.329  0.00  0.00    +0.159 HD
ATOM      8  H   UNL     1       0.746   8.537  41.550  0.00  0.00    +0.159 HD
ATOM      9  H   UNL     1       0.147   8.025  40.021  0.00  0.00    +0.159 HD
ENDROOT
BRANCH   1  10
ATOM     10  C   UNL     1       1.678  10.834  42.222  0.00  0.00    +0.151 C 
BRANCH  10  11
ATOM     11  C   UNL     1       3.141  11.102  42.444  0.00  0.00    -0.028 A 
ATOM     12  C   UNL     1       3.973  11.447  41.368  0.00  0.00    +0.005 A 
ATOM     13  C   UNL     1       3.701  11.018  43.728  0.00  0.00    +0.005 A 
ATOM     14  C   UNL     1       5.326  11.725  41.578  0.00  0.00    +0.000 A 
ATOM     15  C   UNL     1       5.052  11.295  43.933  0.00  0.00    +0.000 A 
ATOM     16  C   UNL     1       5.864  11.651  42.858  0.00  0.00    +0.000 A 
ENDBRANCH  10  11
ENDBRANCH   1  10
TORSDOF 2
ENDMDL
MODEL 4
REMARK VINA RESULT:    -4.088      3.243      3.817
REMARK INTER + INTRA:          -4.706
REMARK INTER:                  -4.589
REMARK INTRA:                  -0.117
REMARK UNBOUND:                -0.139
REMARK  Name = 1550473
REMARK  2 active torsions:
REMARK  status: ('A' for Active; 'I' for Inactive)
REMARK    1  A    between atoms: N_1  and  C_4
REMARK    2  A    between atoms: C_4  and  C_5
REMARK                            x       y       z     vdW  Elec       q    Type
REMARK                         _______ _______ _______ _____ _____    ______ ____
ROOT
ATOM      1  N   UNL     1      -3.950   6.500   0.175  0.00  0.00    -0.354 N 
ATOM      2  N   UNL     1      -4.462   7.285   2.293  0.00  0.00    -0.372 N 
ATOM      3  N   UNL     1      -3.085   8.535   0.950  0.00  0.00    -0.372 N 
ATOM      4  C   UNL     1      -3.827   7.437   1.124  0.00  0.00    +0.166 C 
ATOM      5  H   UNL     1      -4.503   5.676   0.381  0.00  0.00    +0.163 HD
ATOM      6  H   UNL     1      -4.391   7.977   3.027  0.00  0.00    +0.159 HD
ATOM      7  H   UNL     1      -5.051   6.482   2.479  0.00  0.00    +0.159 HD
ATOM      8  H   UNL     1      -2.575   8.707   0.093  0.00  0.00    +0.159 HD
ATOM      9  H   UNL     1      -2.991   9.234   1.677  0.00  0.00    +0.159 HD
ENDROOT
BRANCH   1  10
ATOM     10  C   UNL     1      -3.344   6.596  -1.152  0.00  0.00    +0.151 C 
BRANCH  10  11
ATOM     11  C   UNL     1      -2.794   5.251  -1.539  0.00  0.00    -0.028 A 
ATOM     12  C   UNL     1      -3.568   4.092  -1.379  0.00  0.00    +0.005 A 
ATOM     13  C   UNL     1      -1.501   5.129  -2.071  0.00  0.00    +0.005 A 
ATOM     14  C   UNL     1      -3.069   2.846  -1.766  0.00  0.00    +0.000 A 
ATOM     15  C   UNL     1      -1.006   3.883  -2.456  0.00  0.00    +0.000 A 
ATOM     16  C   UNL     1      -1.791   2.742  -2.306  0.00  0.00    +0.000 A 
ENDBRANCH  10  11
ENDBRANCH   1  10
TORSDOF 2
ENDMDL
MODEL 5
REMARK VINA RESULT:    -4.007     45.658     46.465
REMARK INTER + INTRA:          -4.615
REMARK INTER:                  -4.503
REMARK INTRA:                  -0.112
REMARK UNBOUND:                -0.139
REMARK  Name = 1550473
REMARK  2 active torsions:
REMARK  status: ('A' for Active; 'I' for Inactive)
REMARK    1  A    between atoms: N_1  and  C_4
REMARK    2  A    between atoms: C_4  and  C_5
REMARK                            x       y       z     vdW  Elec       q    Type
REMARK                         _______ _______ _______ _____ _____    ______ ____
ROOT
ATOM      1  N   UNL     1      -1.059  10.491  43.735  0.00  0.00    -0.354 N 
ATOM      2  N   UNL     1      -2.972  11.349  44.718  0.00  0.00    -0.372 N 
ATOM      3  N   UNL     1      -1.023  11.317  45.928  0.00  0.00    -0.372 N 
ATOM      4  C   UNL     1      -1.670  11.047  44.789  0.00  0.00    +0.166 C 
ATOM      5  H   UNL     1      -1.613  10.283  42.912  0.00  0.00    +0.163 HD
ATOM      6  H   UNL     1      -3.460  11.773  45.496  0.00  0.00    +0.159 HD
ATOM      7  H   UNL     1      -3.513  11.183  43.878  0.00  0.00    +0.159 HD
ATOM      8  H   UNL     1      -0.041  11.108  46.048  0.00  0.00    +0.159 HD
ATOM      9  H   UNL     1      -1.496  11.730  46.721  0.00  0.00    +0.159 HD
ENDROOT
BRANCH   1  10
ATOM     10  C   UNL     1       0.367  10.172  43.691  0.00  0.00    +0.151 C 
BRANCH  10  11
ATOM     11  C   UNL     1       0.844  10.249  42.267  0.00  0.00    -0.028 A 
ATOM     12  C   UNL     1       2.080  10.836  41.960  0.00  0.00    +0.005 A 
ATOM     13  C   UNL     1       0.066   9.732  41.219  0.00  0.00    +0.005 A 
ATOM     14  C   UNL     1       2.537  10.881  40.641  0.00  0.00    +0.000 A 
ATOM     15  C   UNL     1       0.525   9.779  39.903  0.00  0.00    +0.000 A 
ATOM     16  C   UNL     1       1.762  10.352  39.615  0.00  0.00    +0.000 A 
ENDBRANCH  10  11
ENDBRANCH   1  10
TORSDOF 2
ENDMDL
MODEL 6
REMARK VINA RESULT:    -4.000     13.958     15.177
REMARK INTER + INTRA:          -4.607
REMARK INTER:                  -4.468
REMARK INTRA:                  -0.140
REMARK UNBOUND:                -0.139
REMARK  Name = 1550473
REMARK  2 active torsions:
REMARK  status: ('A' for Active; 'I' for Inactive)
REMARK    1  A    between atoms: N_1  and  C_4
REMARK    2  A    between atoms: C_4  and  C_5
REMARK                            x       y       z     vdW  Elec       q    Type
REMARK                         _______ _______ _______ _____ _____    ______ ____
ROOT
ATOM      1  N   UNL     1      -0.590   1.953  11.418  0.00  0.00    -0.354 N 
ATOM      2  N   UNL     1       0.663   0.667  12.882  0.00  0.00    -0.372 N 
ATOM      3  N   UNL     1      -0.675   2.327  13.730  0.00  0.00    -0.372 N 
ATOM      4  C   UNL     1      -0.210   1.660  12.669  0.00  0.00    +0.166 C 
ATOM      5  H   UNL     1      -0.178   1.429  10.654  0.00  0.00    +0.163 HD
ATOM      6  H   UNL     1       0.966   0.421  13.814  0.00  0.00    +0.159 HD
ATOM      7  H   UNL     1       1.038   0.115  12.120  0.00  0.00    +0.159 HD
ATOM      8  H   UNL     1      -1.332   3.091  13.637  0.00  0.00    +0.159 HD
ATOM      9  H   UNL     1      -0.375   2.103  14.670  0.00  0.00    +0.159 HD
ENDROOT
BRANCH   1  10
ATOM     10  C   UNL     1      -1.576   2.979  11.082  0.00  0.00    +0.151 C 
BRANCH  10  11
ATOM     11  C   UNL     1      -2.609   2.385  10.166  0.00  0.00    -0.028 A 
ATOM     12  C   UNL     1      -3.861   2.999  10.011  0.00  0.00    +0.005 A 
ATOM     13  C   UNL     1      -2.341   1.212   9.444  0.00  0.00    +0.005 A 
ATOM     14  C   UNL     1      -4.811   2.465   9.137  0.00  0.00    +0.000 A 
ATOM     15  C   UNL     1      -3.292   0.681   8.573  0.00  0.00    +0.000 A 
ATOM     16  C   UNL     1      -4.526   1.309   8.418  0.00  0.00    +0.000 A 
ENDBRANCH  10  11
ENDBRANCH   1  10
TORSDOF 2
ENDMDL
MODEL 7
REMARK VINA RESULT:    -3.967     22.228     22.740
REMARK INTER + INTRA:          -4.570
REMARK INTER:                  -4.423
REMARK INTRA:                  -0.147
REMARK UNBOUND:                -0.139
REMARK  Name = 1550473
REMARK  2 active torsions:
REMARK  status: ('A' for Active; 'I' for Inactive)
REMARK    1  A    between atoms: N_1  and  C_4
REMARK    2  A    between atoms: C_4  and  C_5
REMARK                            x       y       z     vdW  Elec       q    Type
REMARK                         _______ _______ _______ _____ _____    ______ ____
ROOT
ATOM      1  N   UNL     1       3.767  18.475  12.015  0.00  0.00    -0.354 N 
ATOM      2  N   UNL     1       4.939  17.614  10.212  0.00  0.00    -0.372 N 
ATOM      3  N   UNL     1       3.156  16.432  11.043  0.00  0.00    -0.372 N 
ATOM      4  C   UNL     1       3.944  17.510  11.102  0.00  0.00    +0.166 C 
ATOM      5  H   UNL     1       4.417  19.252  12.027  0.00  0.00    +0.163 HD
ATOM      6  H   UNL     1       5.095  16.904   9.510  0.00  0.00    +0.159 HD
ATOM      7  H   UNL     1       5.559  18.414  10.197  0.00  0.00    +0.159 HD
ATOM      8  H   UNL     1       2.391  16.291  11.689  0.00  0.00    +0.159 HD
ATOM      9  H   UNL     1       3.304  15.705  10.354  0.00  0.00    +0.159 HD
ENDROOT
BRANCH   1  10
ATOM     10  C   UNL     1       2.681  18.484  12.994  0.00  0.00    +0.151 C 
BRANCH  10  11
ATOM     11  C   UNL     1       3.268  18.536  14.378  0.00  0.00    -0.028 A 
ATOM     12  C   UNL     1       2.508  18.143  15.489  0.00  0.00    +0.005 A 
ATOM     13  C   UNL     1       4.586  18.972  14.584  0.00  0.00    +0.005 A 
ATOM     14  C   UNL     1       3.063  18.162  16.771  0.00  0.00    +0.000 A 
ATOM     15  C   UNL     1       5.136  18.991  15.865  0.00  0.00    +0.000 A 
ATOM     16  C   UNL     1       4.375  18.583  16.958  0.00  0.00    +0.000 A 
ENDBRANCH  10  11
ENDBRANCH   1  10
TORSDOF 2
ENDMDL
MODEL 8
REMARK VINA RESULT:    -3.745     22.681     23.558
REMARK INTER + INTRA:          -4.322
REMARK INTER:                  -4.176
REMARK INTRA:                  -0.146
REMARK UNBOUND:                -0.139
REMARK  Name = 1550473
REMARK  2 active torsions:
REMARK  status: ('A' for Active; 'I' for Inactive)
REMARK    1  A    between atoms: N_1  and  C_4
REMARK    2  A    between atoms: C_4  and  C_5
REMARK                            x       y       z     vdW  Elec       q    Type
REMARK                         _______ _______ _______ _____ _____    ______ ____
ROOT
ATOM      1  N   UNL     1       3.236  -8.685 -19.909  0.00  0.00    -0.354 N 
ATOM      2  N   UNL     1       3.809  -6.808 -18.678  0.00  0.00    -0.372 N 
ATOM      3  N   UNL     1       3.879  -8.864 -17.662  0.00  0.00    -0.372 N 
ATOM      4  C   UNL     1       3.638  -8.133 -18.756  0.00  0.00    +0.166 C 
ATOM      5  H   UNL     1       3.041  -8.073 -20.693  0.00  0.00    +0.163 HD
ATOM      6  H   UNL     1       4.114  -6.364 -17.823  0.00  0.00    +0.159 HD
ATOM      7  H   UNL     1       3.657  -6.204 -19.476  0.00  0.00    +0.159 HD
ATOM      8  H   UNL     1       3.764  -9.869 -17.653  0.00  0.00    +0.159 HD
ATOM      9  H   UNL     1       4.175  -8.437 -16.793  0.00  0.00    +0.159 HD
ENDROOT
BRANCH   1  10
ATOM     10  C   UNL     1       3.072 -10.123 -20.114  0.00  0.00    +0.151 C 
BRANCH  10  11
ATOM     11  C   UNL     1       1.643 -10.405 -20.487  0.00  0.00    -0.028 A 
ATOM     12  C   UNL     1       0.888  -9.453 -21.188  0.00  0.00    +0.005 A 
ATOM     13  C   UNL     1       1.039 -11.626 -20.148  0.00  0.00    +0.005 A 
ATOM     14  C   UNL     1      -0.430  -9.727 -21.561  0.00  0.00    +0.000 A 
ATOM     15  C   UNL     1      -0.277 -11.895 -20.522  0.00  0.00    +0.000 A 
ATOM     16  C   UNL     1      -1.010 -10.947 -21.231  0.00  0.00    +0.000 A 
ENDBRANCH  10  11
ENDBRANCH   1  10
TORSDOF 2
ENDMDL
MODEL 9
REMARK VINA RESULT:    -3.606     22.609     23.389
REMARK INTER + INTRA:          -4.168
REMARK INTER:                  -4.025
REMARK INTRA:                  -0.142
REMARK UNBOUND:                -0.139
REMARK  Name = 1550473
REMARK  2 active torsions:
REMARK  status: ('A' for Active; 'I' for Inactive)
REMARK    1  A    between atoms: N_1  and  C_4
REMARK    2  A    between atoms: C_4  and  C_5
REMARK                            x       y       z     vdW  Elec       q    Type
REMARK                         _______ _______ _______ _____ _____    ______ ____
ROOT
ATOM      1  N   UNL     1       1.166  -9.202 -22.023  0.00  0.00    -0.354 N 
ATOM      2  N   UNL     1      -0.417 -10.383 -23.234  0.00  0.00    -0.372 N 
ATOM      3  N   UNL     1      -1.095  -8.585 -21.979  0.00  0.00    -0.372 N 
ATOM      4  C   UNL     1      -0.107  -9.380 -22.402  0.00  0.00    +0.166 C 
ATOM      5  H   UNL     1       1.863  -9.857 -22.355  0.00  0.00    +0.163 HD
ATOM      6  H   UNL     1      -1.368 -10.540 -23.540  0.00  0.00    +0.159 HD
ATOM      7  H   UNL     1       0.290 -11.008 -23.601  0.00  0.00    +0.159 HD
ATOM      8  H   UNL     1      -0.928  -7.814 -21.346  0.00  0.00    +0.159 HD
ATOM      9  H   UNL     1      -2.055  -8.734 -22.265  0.00  0.00    +0.159 HD
ENDROOT
BRANCH   1  10
ATOM     10  C   UNL     1       1.617  -8.108 -21.164  0.00  0.00    +0.151 C 
BRANCH  10  11
ATOM     11  C   UNL     1       2.511  -8.664 -20.090  0.00  0.00    -0.028 A 
ATOM     12  C   UNL     1       2.814 -10.033 -20.054  0.00  0.00    +0.005 A 
ATOM     13  C   UNL     1       3.064  -7.826 -19.110  0.00  0.00    +0.005 A 
ATOM     14  C   UNL     1       3.669 -10.545 -19.075  0.00  0.00    +0.000 A 
ATOM     15  C   UNL     1       3.916  -8.341 -18.133  0.00  0.00    +0.000 A 
ATOM     16  C   UNL     1       4.220  -9.700 -18.117  0.00  0.00    +0.000 A 
ENDBRANCH  10  11
ENDBRANCH   1  10
TORSDOF 2
ENDMDL
