MODEL 1
REMARK VINA RESULT:    -5.049      0.000      0.000
REMARK INTER + INTRA:          -5.820
REMARK INTER:                  -5.639
REMARK INTRA:                  -0.181
REMARK UNBOUND:                -0.181
REMARK  Name = 1550473
REMARK  2 active torsions:
REMARK  status: ('A' for Active; 'I' for Inactive)
REMARK    1  A    between atoms: N_1  and  C_4
REMARK    2  A    between atoms: C_4  and  C_5
REMARK                            x       y       z     vdW  Elec       q    Type
REMARK                         _______ _______ _______ _____ _____    ______ ____
ROOT
ATOM      1  N   UNL     1     -12.268  16.014 -15.875  0.00  0.00    -0.354 N 
ATOM      2  N   UNL     1     -10.649  14.665 -16.836  0.00  0.00    -0.372 N 
ATOM      3  N   UNL     1     -12.314  13.688 -15.596  0.00  0.00    -0.372 N 
ATOM      4  C   UNL     1     -11.756  14.796 -16.094  0.00  0.00    +0.166 C 
ATOM      5  H   UNL     1     -11.780  16.817 -16.255  0.00  0.00    +0.163 HD
ATOM      6  H   UNL     1     -10.242  13.759 -17.022  0.00  0.00    +0.159 HD
ATOM      7  H   UNL     1     -10.190  15.466 -17.253  0.00  0.00    +0.159 HD
ATOM      8  H   UNL     1     -13.147  13.719 -15.024  0.00  0.00    +0.159 HD
ATOM      9  H   UNL     1     -11.915  12.773 -15.761  0.00  0.00    +0.159 HD
ENDROOT
BRANCH   1  10
ATOM     10  C   UNL     1     -13.499  16.261 -15.126  0.00  0.00    +0.151 C 
BRANCH  10  11
ATOM     11  C   UNL     1     -13.147  16.694 -13.730  0.00  0.00    -0.028 A 
ATOM     12  C   UNL     1     -12.653  17.984 -13.488  0.00  0.00    +0.005 A 
ATOM     13  C   UNL     1     -13.310  15.820 -12.644  0.00  0.00    +0.005 A 
ATOM     14  C   UNL     1     -12.354  18.397 -12.187  0.00  0.00    +0.000 A 
ATOM     15  C   UNL     1     -13.009  16.236 -11.346  0.00  0.00    +0.000 A 
ATOM     16  C   UNL     1     -12.534  17.525 -11.118  0.00  0.00    +0.000 A 
ENDBRANCH  10  11
ENDBRANCH   1  10
TORSDOF 2
ENDMDL
MODEL 2
REMARK VINA RESULT:    -4.809      5.958      8.717
REMARK INTER + INTRA:          -5.552
REMARK INTER:                  -5.429
REMARK INTRA:                  -0.123
REMARK UNBOUND:                -0.181
REMARK  Name = 1550473
REMARK  2 active torsions:
REMARK  status: ('A' for Active; 'I' for Inactive)
REMARK    1  A    between atoms: N_1  and  C_4
REMARK    2  A    between atoms: C_4  and  C_5
REMARK                            x       y       z     vdW  Elec       q    Type
REMARK                         _______ _______ _______ _____ _____    ______ ____
ROOT
ATOM      1  N   UNL     1     -10.705  12.050 -17.956  0.00  0.00    -0.354 N 
ATOM      2  N   UNL     1     -10.239  14.171 -17.151  0.00  0.00    -0.372 N 
ATOM      3  N   UNL     1      -9.845  13.713 -19.365  0.00  0.00    -0.372 N 
ATOM      4  C   UNL     1     -10.265  13.298 -18.165  0.00  0.00    +0.166 C 
ATOM      5  H   UNL     1     -10.982  11.788 -17.017  0.00  0.00    +0.163 HD
ATOM      6  H   UNL     1      -9.915  15.120 -17.279  0.00  0.00    +0.159 HD
ATOM      7  H   UNL     1     -10.559  13.920 -16.223  0.00  0.00    +0.159 HD
ATOM      8  H   UNL     1      -9.834  13.101 -20.170  0.00  0.00    +0.159 HD
ATOM      9  H   UNL     1      -9.506  14.656 -19.510  0.00  0.00    +0.159 HD
ENDROOT
BRANCH   1  10
ATOM     10  C   UNL     1     -10.824  11.038 -19.005  0.00  0.00    +0.151 C 
BRANCH  10  11
ATOM     11  C   UNL     1      -9.860   9.920 -18.720  0.00  0.00    -0.028 A 
ATOM     12  C   UNL     1      -9.004   9.983 -17.611  0.00  0.00    +0.005 A 
ATOM     13  C   UNL     1      -9.803   8.791 -19.552  0.00  0.00    +0.005 A 
ATOM     14  C   UNL     1      -8.129   8.931 -17.329  0.00  0.00    +0.000 A 
ATOM     15  C   UNL     1      -8.928   7.742 -19.267  0.00  0.00    +0.000 A 
ATOM     16  C   UNL     1      -8.093   7.812 -18.155  0.00  0.00    +0.000 A 
ENDBRANCH  10  11
ENDBRANCH   1  10
TORSDOF 2
ENDMDL
MODEL 3
REMARK VINA RESULT:    -4.744      2.112      2.987
REMARK INTER + INTRA:          -5.479
REMARK INTER:                  -5.380
REMARK INTRA:                  -0.099
REMARK UNBOUND:                -0.181
REMARK  Name = 1550473
REMARK  2 active torsions:
REMARK  status: ('A' for Active; 'I' for Inactive)
REMARK    1  A    between atoms: N_1  and  C_4
REMARK    2  A    between atoms: C_4  and  C_5
REMARK                            x       y       z     vdW  Elec       q    Type
REMARK                         _______ _______ _______ _____ _____    ______ ____
ROOT
ATOM      1  N   UNL     1     -11.066  14.793 -16.897  0.00  0.00    -0.354 N 
ATOM      2  N   UNL     1      -9.853  13.929 -18.671  0.00  0.00    -0.372 N 
ATOM      3  N   UNL     1     -11.054  12.493 -17.343  0.00  0.00    -0.372 N 
ATOM      4  C   UNL     1     -10.667  13.742 -17.624  0.00  0.00    +0.166 C 
ATOM      5  H   UNL     1     -10.713  15.711 -17.144  0.00  0.00    +0.163 HD
ATOM      6  H   UNL     1      -9.538  13.155 -19.240  0.00  0.00    +0.159 HD
ATOM      7  H   UNL     1      -9.539  14.852 -18.942  0.00  0.00    +0.159 HD
ATOM      8  H   UNL     1     -11.662  12.284 -16.563  0.00  0.00    +0.159 HD
ATOM      9  H   UNL     1     -10.739  11.704 -17.894  0.00  0.00    +0.159 HD
ENDROOT
BRANCH   1  10
ATOM     10  C   UNL     1     -11.994  14.704 -15.771  0.00  0.00    +0.151 C 
BRANCH  10  11
ATOM     11  C   UNL     1     -12.669  16.035 -15.584  0.00  0.00    -0.028 A 
ATOM     12  C   UNL     1     -12.172  16.960 -14.654  0.00  0.00    +0.005 A 
ATOM     13  C   UNL     1     -13.802  16.379 -16.337  0.00  0.00    +0.005 A 
ATOM     14  C   UNL     1     -12.780  18.208 -14.501  0.00  0.00    +0.000 A 
ATOM     15  C   UNL     1     -14.407  17.626 -16.180  0.00  0.00    +0.000 A 
ATOM     16  C   UNL     1     -13.894  18.541 -15.264  0.00  0.00    +0.000 A 
ENDBRANCH  10  11
ENDBRANCH   1  10
TORSDOF 2
ENDMDL
MODEL 4
REMARK VINA RESULT:    -4.707      0.686      1.617
REMARK INTER + INTRA:          -5.438
REMARK INTER:                  -5.266
REMARK INTRA:                  -0.172
REMARK UNBOUND:                -0.181
REMARK  Name = 1550473
REMARK  2 active torsions:
REMARK  status: ('A' for Active; 'I' for Inactive)
REMARK    1  A    between atoms: N_1  and  C_4
REMARK    2  A    between atoms: C_4  and  C_5
REMARK                            x       y       z     vdW  Elec       q    Type
REMARK                         _______ _______ _______ _____ _____    ______ ____
ROOT
ATOM      1  N   UNL     1     -12.514  15.949 -15.245  0.00  0.00    -0.354 N 
ATOM      2  N   UNL     1     -10.950  14.802 -16.511  0.00  0.00    -0.372 N 
ATOM      3  N   UNL     1     -12.558  13.610 -15.390  0.00  0.00    -0.372 N 
ATOM      4  C   UNL     1     -12.019  14.792 -15.706  0.00  0.00    +0.166 C 
ATOM      5  H   UNL     1     -12.041  16.809 -15.497  0.00  0.00    +0.163 HD
ATOM      6  H   UNL     1     -10.556  13.946 -16.878  0.00  0.00    +0.159 HD
ATOM      7  H   UNL     1     -10.507  15.667 -16.799  0.00  0.00    +0.159 HD
ATOM      8  H   UNL     1     -13.362  13.534 -14.782  0.00  0.00    +0.159 HD
ATOM      9  H   UNL     1     -12.171  12.741 -15.737  0.00  0.00    +0.159 HD
ENDROOT
BRANCH   1  10
ATOM     10  C   UNL     1     -13.707  16.051 -14.407  0.00  0.00    +0.151 C 
BRANCH  10  11
ATOM     11  C   UNL     1     -13.293  16.416 -13.008  0.00  0.00    -0.028 A 
ATOM     12  C   UNL     1     -13.335  15.462 -11.981  0.00  0.00    +0.005 A 
ATOM     13  C   UNL     1     -12.854  17.714 -12.704  0.00  0.00    +0.005 A 
ATOM     14  C   UNL     1     -12.923  15.793 -10.687  0.00  0.00    +0.000 A 
ATOM     15  C   UNL     1     -12.444  18.040 -11.411  0.00  0.00    +0.000 A 
ATOM     16  C   UNL     1     -12.476  17.079 -10.404  0.00  0.00    +0.000 A 
ENDBRANCH  10  11
ENDBRANCH   1  10
TORSDOF 2
ENDMDL
MODEL 5
REMARK VINA RESULT:    -4.647      6.090      7.326
REMARK INTER + INTRA:          -5.371
REMARK INTER:                  -5.248
REMARK INTRA:                  -0.123
REMARK UNBOUND:                -0.181
REMARK  Name = 1550473
REMARK  2 active torsions:
REMARK  status: ('A' for Active; 'I' for Inactive)
REMARK    1  A    between atoms: N_1  and  C_4
REMARK    2  A    between atoms: C_4  and  C_5
REMARK                            x       y       z     vdW  Elec       q    Type
REMARK                         _______ _______ _______ _____ _____    ______ ____
ROOT
ATOM      1  N   UNL     1     -14.693  12.132 -13.532  0.00  0.00    -0.354 N 
ATOM      2  N   UNL     1     -12.990  12.574 -15.039  0.00  0.00    -0.372 N 
ATOM      3  N   UNL     1     -12.473  11.554 -13.050  0.00  0.00    -0.372 N 
ATOM      4  C   UNL     1     -13.395  12.083 -13.861  0.00  0.00    +0.166 C 
ATOM      5  H   UNL     1     -15.337  12.573 -14.178  0.00  0.00    +0.163 HD
ATOM      6  H   UNL     1     -12.018  12.548 -15.316  0.00  0.00    +0.159 HD
ATOM      7  H   UNL     1     -13.643  12.973 -15.703  0.00  0.00    +0.159 HD
ATOM      8  H   UNL     1     -12.713  11.172 -12.145  0.00  0.00    +0.159 HD
ATOM      9  H   UNL     1     -11.494  11.530 -13.304  0.00  0.00    +0.159 HD
ENDROOT
BRANCH   1  10
ATOM     10  C   UNL     1     -15.245  11.576 -12.298  0.00  0.00    +0.151 C 
BRANCH  10  11
ATOM     11  C   UNL     1     -16.153  10.428 -12.639  0.00  0.00    -0.028 A 
ATOM     12  C   UNL     1     -16.365  10.061 -13.976  0.00  0.00    +0.005 A 
ATOM     13  C   UNL     1     -16.800   9.698 -11.630  0.00  0.00    +0.005 A 
ATOM     14  C   UNL     1     -17.186   8.975 -14.292  0.00  0.00    +0.000 A 
ATOM     15  C   UNL     1     -17.619   8.615 -11.949  0.00  0.00    +0.000 A 
ATOM     16  C   UNL     1     -17.809   8.252 -13.280  0.00  0.00    +0.000 A 
ENDBRANCH  10  11
ENDBRANCH   1  10
TORSDOF 2
ENDMDL
MODEL 6
REMARK VINA RESULT:    -4.627     22.486     23.996
REMARK INTER + INTRA:          -5.349
REMARK INTER:                  -5.225
REMARK INTRA:                  -0.124
REMARK UNBOUND:                -0.181
REMARK  Name = 1550473
REMARK  2 active torsions:
REMARK  status: ('A' for Active; 'I' for Inactive)
REMARK    1  A    between atoms: N_1  and  C_4
REMARK    2  A    between atoms: C_4  and  C_5
REMARK                            x       y       z     vdW  Elec       q    Type
REMARK                         _______ _______ _______ _____ _____    ______ ____
ROOT
ATOM      1  N   UNL     1     -23.718  -3.022 -25.943  0.00  0.00    -0.354 N 
ATOM      2  N   UNL     1     -25.612  -3.865 -26.974  0.00  0.00    -0.372 N 
ATOM      3  N   UNL     1     -24.316  -2.347 -28.106  0.00  0.00    -0.372 N 
ATOM      4  C   UNL     1     -24.535  -3.071 -27.003  0.00  0.00    +0.166 C 
ATOM      5  H   UNL     1     -23.956  -3.572 -25.126  0.00  0.00    +0.163 HD
ATOM      6  H   UNL     1     -26.245  -3.925 -27.760  0.00  0.00    +0.159 HD
ATOM      7  H   UNL     1     -25.823  -4.449 -26.174  0.00  0.00    +0.159 HD
ATOM      8  H   UNL     1     -23.524  -1.723 -28.188  0.00  0.00    +0.159 HD
ATOM      9  H   UNL     1     -24.945  -2.385 -28.898  0.00  0.00    +0.159 HD
ENDROOT
BRANCH   1  10
ATOM     10  C   UNL     1     -22.490  -2.230 -25.893  0.00  0.00    +0.151 C 
BRANCH  10  11
ATOM     11  C   UNL     1     -21.983  -2.198 -24.478  0.00  0.00    -0.028 A 
ATOM     12  C   UNL     1     -20.775  -1.555 -24.168  0.00  0.00    +0.005 A 
ATOM     13  C   UNL     1     -22.710  -2.802 -23.440  0.00  0.00    +0.005 A 
ATOM     14  C   UNL     1     -20.320  -1.499 -22.849  0.00  0.00    +0.000 A 
ATOM     15  C   UNL     1     -22.251  -2.743 -22.124  0.00  0.00    +0.000 A 
ATOM     16  C   UNL     1     -21.057  -2.090 -21.829  0.00  0.00    +0.000 A 
ENDBRANCH  10  11
ENDBRANCH   1  10
TORSDOF 2
ENDMDL
MODEL 7
REMARK VINA RESULT:    -4.376     25.032     26.205
REMARK INTER + INTRA:          -5.069
REMARK INTER:                  -4.955
REMARK INTRA:                  -0.113
REMARK UNBOUND:                -0.181
REMARK  Name = 1550473
REMARK  2 active torsions:
REMARK  status: ('A' for Active; 'I' for Inactive)
REMARK    1  A    between atoms: N_1  and  C_4
REMARK    2  A    between atoms: C_4  and  C_5
REMARK                            x       y       z     vdW  Elec       q    Type
REMARK                         _______ _______ _______ _____ _____    ______ ____
ROOT
ATOM      1  N   UNL     1     -23.493  -3.373 -26.328  0.00  0.00    -0.354 N 
ATOM      2  N   UNL     1     -25.660  -3.819 -27.015  0.00  0.00    -0.372 N 
ATOM      3  N   UNL     1     -24.400  -2.325 -28.218  0.00  0.00    -0.372 N 
ATOM      4  C   UNL     1     -24.503  -3.167 -27.184  0.00  0.00    +0.166 C 
ATOM      5  H   UNL     1     -23.644  -4.001 -25.548  0.00  0.00    +0.163 HD
ATOM      6  H   UNL     1     -26.438  -3.687 -27.647  0.00  0.00    +0.159 HD
ATOM      7  H   UNL     1     -25.793  -4.481 -26.260  0.00  0.00    +0.159 HD
ATOM      8  H   UNL     1     -23.556  -1.798 -28.398  0.00  0.00    +0.159 HD
ATOM      9  H   UNL     1     -25.172  -2.170 -28.854  0.00  0.00    +0.159 HD
ENDROOT
BRANCH   1  10
ATOM     10  C   UNL     1     -22.175  -2.754 -26.455  0.00  0.00    +0.151 C 
BRANCH  10  11
ATOM     11  C   UNL     1     -21.177  -3.803 -26.860  0.00  0.00    -0.028 A 
ATOM     12  C   UNL     1     -19.841  -3.456 -27.113  0.00  0.00    +0.005 A 
ATOM     13  C   UNL     1     -21.558  -5.148 -26.986  0.00  0.00    +0.005 A 
ATOM     14  C   UNL     1     -18.907  -4.435 -27.459  0.00  0.00    +0.000 A 
ATOM     15  C   UNL     1     -20.622  -6.122 -27.334  0.00  0.00    +0.000 A 
ATOM     16  C   UNL     1     -19.296  -5.765 -27.568  0.00  0.00    +0.000 A 
ENDBRANCH  10  11
ENDBRANCH   1  10
TORSDOF 2
ENDMDL
MODEL 8
REMARK VINA RESULT:    -4.373     15.689     16.278
REMARK INTER + INTRA:          -5.065
REMARK INTER:                  -4.964
REMARK INTRA:                  -0.101
REMARK UNBOUND:                -0.181
REMARK  Name = 1550473
REMARK  2 active torsions:
REMARK  status: ('A' for Active; 'I' for Inactive)
REMARK    1  A    between atoms: N_1  and  C_4
REMARK    2  A    between atoms: C_4  and  C_5
REMARK                            x       y       z     vdW  Elec       q    Type
REMARK                         _______ _______ _______ _____ _____    ______ ____
ROOT
ATOM      1  N   UNL     1     -23.951   7.426 -20.380  0.00  0.00    -0.354 N 
ATOM      2  N   UNL     1     -25.092   9.416 -20.065  0.00  0.00    -0.372 N 
ATOM      3  N   UNL     1     -26.229   7.437 -19.829  0.00  0.00    -0.372 N 
ATOM      4  C   UNL     1     -25.086   8.078 -20.094  0.00  0.00    +0.166 C 
ATOM      5  H   UNL     1     -23.126   7.970 -20.601  0.00  0.00    +0.163 HD
ATOM      6  H   UNL     1     -25.932   9.936 -19.848  0.00  0.00    +0.159 HD
ATOM      7  H   UNL     1     -24.254   9.957 -20.241  0.00  0.00    +0.159 HD
ATOM      8  H   UNL     1     -26.292   6.428 -19.841  0.00  0.00    +0.159 HD
ATOM      9  H   UNL     1     -27.083   7.940 -19.622  0.00  0.00    +0.159 HD
ENDROOT
BRANCH   1  10
ATOM     10  C   UNL     1     -23.825   5.969 -20.385  0.00  0.00    +0.151 C 
BRANCH  10  11
ATOM     11  C   UNL     1     -22.406   5.601 -20.720  0.00  0.00    -0.028 A 
ATOM     12  C   UNL     1     -21.830   6.013 -21.931  0.00  0.00    +0.005 A 
ATOM     13  C   UNL     1     -21.630   4.844 -19.829  0.00  0.00    +0.005 A 
ATOM     14  C   UNL     1     -20.503   5.697 -22.230  0.00  0.00    +0.000 A 
ATOM     15  C   UNL     1     -20.305   4.530 -20.132  0.00  0.00    +0.000 A 
ATOM     16  C   UNL     1     -19.741   4.958 -21.331  0.00  0.00    +0.000 A 
ENDBRANCH  10  11
ENDBRANCH   1  10
TORSDOF 2
ENDMDL
MODEL 9
REMARK VINA RESULT:    -4.346     22.814     23.500
REMARK INTER + INTRA:          -5.035
REMARK INTER:                  -4.981
REMARK INTRA:                  -0.054
REMARK UNBOUND:                -0.181
REMARK  Name = 1550473
REMARK  2 active torsions:
REMARK  status: ('A' for Active; 'I' for Inactive)
REMARK    1  A    between atoms: N_1  and  C_4
REMARK    2  A    between atoms: C_4  and  C_5
REMARK                            x       y       z     vdW  Elec       q    Type
REMARK                         _______ _______ _______ _____ _____    ______ ____
ROOT
ATOM      1  N   UNL     1       4.255   4.830  -5.434  0.00  0.00    -0.354 N 
ATOM      2  N   UNL     1       2.288   3.622  -5.234  0.00  0.00    -0.372 N 
ATOM      3  N   UNL     1       4.251   2.672  -4.519  0.00  0.00    -0.372 N 
ATOM      4  C   UNL     1       3.613   3.714  -5.063  0.00  0.00    +0.166 C 
ATOM      5  H   UNL     1       3.718   5.572  -5.868  0.00  0.00    +0.163 HD
ATOM      6  H   UNL     1       1.776   2.795  -4.961  0.00  0.00    +0.159 HD
ATOM      7  H   UNL     1       1.748   4.384  -5.626  0.00  0.00    +0.159 HD
ATOM      8  H   UNL     1       5.250   2.676  -4.368  0.00  0.00    +0.159 HD
ATOM      9  H   UNL     1       3.757   1.830  -4.250  0.00  0.00    +0.159 HD
ENDROOT
BRANCH   1  10
ATOM     10  C   UNL     1       5.687   5.051  -5.241  0.00  0.00    +0.151 C 
BRANCH  10  11
ATOM     11  C   UNL     1       5.938   5.420  -3.805  0.00  0.00    -0.028 A 
ATOM     12  C   UNL     1       6.938   4.770  -3.067  0.00  0.00    +0.005 A 
ATOM     13  C   UNL     1       5.183   6.423  -3.178  0.00  0.00    +0.005 A 
ATOM     14  C   UNL     1       7.191   5.133  -1.742  0.00  0.00    +0.000 A 
ATOM     15  C   UNL     1       5.438   6.782  -1.855  0.00  0.00    +0.000 A 
ATOM     16  C   UNL     1       6.444   6.139  -1.138  0.00  0.00    +0.000 A 
ENDBRANCH  10  11
ENDBRANCH   1  10
TORSDOF 2
ENDMDL
