MODEL 1
REMARK VINA RESULT:    -4.998      0.000      0.000
REMARK INTER + INTRA:          -5.724
REMARK INTER:                  -5.582
REMARK INTRA:                  -0.141
REMARK UNBOUND:                -0.141
REMARK  Name = 1550473
REMARK  2 active torsions:
REMARK  status: ('A' for Active; 'I' for Inactive)
REMARK    1  A    between atoms: N_1  and  C_4
REMARK    2  A    between atoms: C_4  and  C_5
REMARK                            x       y       z     vdW  Elec       q    Type
REMARK                         _______ _______ _______ _____ _____    ______ ____
ROOT
ATOM      1  N   UNL     1       6.747   4.246  16.458  0.00  0.00    -0.354 N 
ATOM      2  N   UNL     1       7.801   2.369  17.313  0.00  0.00    -0.372 N 
ATOM      3  N   UNL     1       7.117   4.012  18.761  0.00  0.00    -0.372 N 
ATOM      4  C   UNL     1       7.215   3.556  17.507  0.00  0.00    +0.166 C 
ATOM      5  H   UNL     1       6.880   3.859  15.531  0.00  0.00    +0.163 HD
ATOM      6  H   UNL     1       8.160   1.824  18.085  0.00  0.00    +0.159 HD
ATOM      7  H   UNL     1       7.891   1.964  16.389  0.00  0.00    +0.159 HD
ATOM      8  H   UNL     1       6.690   4.904  18.974  0.00  0.00    +0.159 HD
ATOM      9  H   UNL     1       7.480   3.486  19.546  0.00  0.00    +0.159 HD
ENDROOT
BRANCH   1  10
ATOM     10  C   UNL     1       6.044   5.523  16.567  0.00  0.00    +0.151 C 
BRANCH  10  11
ATOM     11  C   UNL     1       6.605   6.480  15.552  0.00  0.00    -0.028 A 
ATOM     12  C   UNL     1       7.827   6.211  14.918  0.00  0.00    +0.005 A 
ATOM     13  C   UNL     1       5.916   7.656  15.215  0.00  0.00    +0.005 A 
ATOM     14  C   UNL     1       8.333   7.085  13.953  0.00  0.00    +0.000 A 
ATOM     15  C   UNL     1       6.426   8.526  14.252  0.00  0.00    +0.000 A 
ATOM     16  C   UNL     1       7.633   8.239  13.619  0.00  0.00    +0.000 A 
ENDBRANCH  10  11
ENDBRANCH   1  10
TORSDOF 2
ENDMDL
MODEL 2
REMARK VINA RESULT:    -4.988      6.097      7.601
REMARK INTER + INTRA:          -5.712
REMARK INTER:                  -5.587
REMARK INTRA:                  -0.126
REMARK UNBOUND:                -0.141
REMARK  Name = 1550473
REMARK  2 active torsions:
REMARK  status: ('A' for Active; 'I' for Inactive)
REMARK    1  A    between atoms: N_1  and  C_4
REMARK    2  A    between atoms: C_4  and  C_5
REMARK                            x       y       z     vdW  Elec       q    Type
REMARK                         _______ _______ _______ _____ _____    ______ ____
ROOT
ATOM      1  N   UNL     1       2.874   8.981  12.976  0.00  0.00    -0.354 N 
ATOM      2  N   UNL     1       3.640   6.988  13.875  0.00  0.00    -0.372 N 
ATOM      3  N   UNL     1       4.641   8.952  14.514  0.00  0.00    -0.372 N 
ATOM      4  C   UNL     1       3.715   8.322  13.784  0.00  0.00    +0.166 C 
ATOM      5  H   UNL     1       2.215   8.442  12.425  0.00  0.00    +0.163 HD
ATOM      6  H   UNL     1       4.259   6.464  14.479  0.00  0.00    +0.159 HD
ATOM      7  H   UNL     1       2.949   6.457  13.359  0.00  0.00    +0.159 HD
ATOM      8  H   UNL     1       4.754   9.956  14.486  0.00  0.00    +0.159 HD
ATOM      9  H   UNL     1       5.278   8.443  15.116  0.00  0.00    +0.159 HD
ENDROOT
BRANCH   1  10
ATOM     10  C   UNL     1       2.838  10.436  12.844  0.00  0.00    +0.151 C 
BRANCH  10  11
ATOM     11  C   UNL     1       2.284  10.794  11.493  0.00  0.00    -0.028 A 
ATOM     12  C   UNL     1       2.425  12.094  10.987  0.00  0.00    +0.005 A 
ATOM     13  C   UNL     1       1.622   9.835  10.710  0.00  0.00    +0.005 A 
ATOM     14  C   UNL     1       1.937  12.419   9.719  0.00  0.00    +0.000 A 
ATOM     15  C   UNL     1       1.136  10.164   9.445  0.00  0.00    +0.000 A 
ATOM     16  C   UNL     1       1.295  11.455   8.949  0.00  0.00    +0.000 A 
ENDBRANCH  10  11
ENDBRANCH   1  10
TORSDOF 2
ENDMDL
MODEL 3
REMARK VINA RESULT:    -4.870      3.500      4.677
REMARK INTER + INTRA:          -5.581
REMARK INTER:                  -5.449
REMARK INTRA:                  -0.131
REMARK UNBOUND:                -0.141
REMARK  Name = 1550473
REMARK  2 active torsions:
REMARK  status: ('A' for Active; 'I' for Inactive)
REMARK    1  A    between atoms: N_1  and  C_4
REMARK    2  A    between atoms: C_4  and  C_5
REMARK                            x       y       z     vdW  Elec       q    Type
REMARK                         _______ _______ _______ _____ _____    ______ ____
ROOT
ATOM      1  N   UNL     1       8.175   8.874  17.897  0.00  0.00    -0.354 N 
ATOM      2  N   UNL     1       8.578   9.724  20.014  0.00  0.00    -0.372 N 
ATOM      3  N   UNL     1       6.505  10.022  19.075  0.00  0.00    -0.372 N 
ATOM      4  C   UNL     1       7.747   9.535  18.981  0.00  0.00    +0.166 C 
ATOM      5  H   UNL     1       9.137   8.556  17.876  0.00  0.00    +0.163 HD
ATOM      6  H   UNL     1       8.282  10.216  20.846  0.00  0.00    +0.159 HD
ATOM      7  H   UNL     1       9.525   9.365  20.008  0.00  0.00    +0.159 HD
ATOM      8  H   UNL     1       5.832   9.919  18.328  0.00  0.00    +0.159 HD
ATOM      9  H   UNL     1       6.195  10.528  19.895  0.00  0.00    +0.159 HD
ENDROOT
BRANCH   1  10
ATOM     10  C   UNL     1       7.334   8.569  16.741  0.00  0.00    +0.151 C 
BRANCH  10  11
ATOM     11  C   UNL     1       7.131   7.081  16.660  0.00  0.00    -0.028 A 
ATOM     12  C   UNL     1       7.492   6.375  15.504  0.00  0.00    +0.005 A 
ATOM     13  C   UNL     1       6.583   6.370  17.740  0.00  0.00    +0.005 A 
ATOM     14  C   UNL     1       7.332   4.988  15.440  0.00  0.00    +0.000 A 
ATOM     15  C   UNL     1       6.423   4.986  17.671  0.00  0.00    +0.000 A 
ATOM     16  C   UNL     1       6.800   4.296  16.522  0.00  0.00    +0.000 A 
ENDBRANCH  10  11
ENDBRANCH   1  10
TORSDOF 2
ENDMDL
MODEL 4
REMARK VINA RESULT:    -4.746      3.502      5.124
REMARK INTER + INTRA:          -5.443
REMARK INTER:                  -5.269
REMARK INTRA:                  -0.173
REMARK UNBOUND:                -0.141
REMARK  Name = 1550473
REMARK  2 active torsions:
REMARK  status: ('A' for Active; 'I' for Inactive)
REMARK    1  A    between atoms: N_1  and  C_4
REMARK    2  A    between atoms: C_4  and  C_5
REMARK                            x       y       z     vdW  Elec       q    Type
REMARK                         _______ _______ _______ _____ _____    ______ ____
ROOT
ATOM      1  N   UNL     1       5.635   8.659  14.537  0.00  0.00    -0.354 N 
ATOM      2  N   UNL     1       3.566   9.593  14.075  0.00  0.00    -0.372 N 
ATOM      3  N   UNL     1       3.860   7.339  13.764  0.00  0.00    -0.372 N 
ATOM      4  C   UNL     1       4.367   8.522  14.127  0.00  0.00    +0.166 C 
ATOM      5  H   UNL     1       5.967   9.588  14.770  0.00  0.00    +0.163 HD
ATOM      6  H   UNL     1       2.604   9.520  13.774  0.00  0.00    +0.159 HD
ATOM      7  H   UNL     1       3.888  10.513  14.352  0.00  0.00    +0.159 HD
ATOM      8  H   UNL     1       4.413   6.493  13.775  0.00  0.00    +0.159 HD
ATOM      9  H   UNL     1       2.902   7.247  13.448  0.00  0.00    +0.159 HD
ENDROOT
BRANCH   1  10
ATOM     10  C   UNL     1       6.573   7.547  14.681  0.00  0.00    +0.151 C 
BRANCH  10  11
ATOM     11  C   UNL     1       6.518   7.039  16.095  0.00  0.00    -0.028 A 
ATOM     12  C   UNL     1       6.067   5.739  16.367  0.00  0.00    +0.005 A 
ATOM     13  C   UNL     1       6.920   7.850  17.167  0.00  0.00    +0.005 A 
ATOM     14  C   UNL     1       6.045   5.256  17.678  0.00  0.00    +0.000 A 
ATOM     15  C   UNL     1       6.895   7.364  18.474  0.00  0.00    +0.000 A 
ATOM     16  C   UNL     1       6.460   6.066  18.729  0.00  0.00    +0.000 A 
ENDBRANCH  10  11
ENDBRANCH   1  10
TORSDOF 2
ENDMDL
MODEL 5
REMARK VINA RESULT:    -4.713      6.322      7.878
REMARK INTER + INTRA:          -5.405
REMARK INTER:                  -5.315
REMARK INTRA:                  -0.090
REMARK UNBOUND:                -0.141
REMARK  Name = 1550473
REMARK  2 active torsions:
REMARK  status: ('A' for Active; 'I' for Inactive)
REMARK    1  A    between atoms: N_1  and  C_4
REMARK    2  A    between atoms: C_4  and  C_5
REMARK                            x       y       z     vdW  Elec       q    Type
REMARK                         _______ _______ _______ _____ _____    ______ ____
ROOT
ATOM      1  N   UNL     1       2.853   9.111  13.220  0.00  0.00    -0.354 N 
ATOM      2  N   UNL     1       3.652   7.021  13.817  0.00  0.00    -0.372 N 
ATOM      3  N   UNL     1       4.830   8.882  14.458  0.00  0.00    -0.372 N 
ATOM      4  C   UNL     1       3.775   8.354  13.829  0.00  0.00    +0.166 C 
ATOM      5  H   UNL     1       2.094   8.648  12.735  0.00  0.00    +0.163 HD
ATOM      6  H   UNL     1       4.330   6.423  14.270  0.00  0.00    +0.159 HD
ATOM      7  H   UNL     1       2.867   6.562  13.370  0.00  0.00    +0.159 HD
ATOM      8  H   UNL     1       4.984   9.881  14.498  0.00  0.00    +0.159 HD
ATOM      9  H   UNL     1       5.526   8.300  14.908  0.00  0.00    +0.159 HD
ENDROOT
BRANCH   1  10
ATOM     10  C   UNL     1       2.866  10.573  13.221  0.00  0.00    +0.151 C 
BRANCH  10  11
ATOM     11  C   UNL     1       1.660  11.076  12.476  0.00  0.00    -0.028 A 
ATOM     12  C   UNL     1       0.446  11.285  13.147  0.00  0.00    +0.005 A 
ATOM     13  C   UNL     1       1.727  11.350  11.102  0.00  0.00    +0.005 A 
ATOM     14  C   UNL     1      -0.666  11.781  12.462  0.00  0.00    +0.000 A 
ATOM     15  C   UNL     1       0.614  11.843  10.421  0.00  0.00    +0.000 A 
ATOM     16  C   UNL     1      -0.582  12.061  11.102  0.00  0.00    +0.000 A 
ENDBRANCH  10  11
ENDBRANCH   1  10
TORSDOF 2
ENDMDL
MODEL 6
REMARK VINA RESULT:    -4.663      3.101      4.924
REMARK INTER + INTRA:          -5.349
REMARK INTER:                  -5.207
REMARK INTRA:                  -0.142
REMARK UNBOUND:                -0.141
REMARK  Name = 1550473
REMARK  2 active torsions:
REMARK  status: ('A' for Active; 'I' for Inactive)
REMARK    1  A    between atoms: N_1  and  C_4
REMARK    2  A    between atoms: C_4  and  C_5
REMARK                            x       y       z     vdW  Elec       q    Type
REMARK                         _______ _______ _______ _____ _____    ______ ____
ROOT
ATOM      1  N   UNL     1       8.935   7.931  15.098  0.00  0.00    -0.354 N 
ATOM      2  N   UNL     1      11.158   8.464  14.722  0.00  0.00    -0.372 N 
ATOM      3  N   UNL     1       9.993   7.349  13.089  0.00  0.00    -0.372 N 
ATOM      4  C   UNL     1      10.013   7.910  14.303  0.00  0.00    +0.166 C 
ATOM      5  H   UNL     1       9.024   8.345  16.019  0.00  0.00    +0.163 HD
ATOM      6  H   UNL     1      11.987   8.466  14.143  0.00  0.00    +0.159 HD
ATOM      7  H   UNL     1      11.231   8.917  15.625  0.00  0.00    +0.159 HD
ATOM      8  H   UNL     1       9.162   6.909  12.717  0.00  0.00    +0.159 HD
ATOM      9  H   UNL     1      10.816   7.331  12.500  0.00  0.00    +0.159 HD
ENDROOT
BRANCH   1  10
ATOM     10  C   UNL     1       7.627   7.403  14.715  0.00  0.00    +0.151 C 
BRANCH  10  11
ATOM     11  C   UNL     1       7.227   6.329  15.688  0.00  0.00    -0.028 A 
ATOM     12  C   UNL     1       6.706   6.665  16.946  0.00  0.00    +0.005 A 
ATOM     13  C   UNL     1       7.361   4.972  15.355  0.00  0.00    +0.005 A 
ATOM     14  C   UNL     1       6.307   5.667  17.838  0.00  0.00    +0.000 A 
ATOM     15  C   UNL     1       6.962   3.978  16.249  0.00  0.00    +0.000 A 
ATOM     16  C   UNL     1       6.432   4.326  17.489  0.00  0.00    +0.000 A 
ENDBRANCH  10  11
ENDBRANCH   1  10
TORSDOF 2
ENDMDL
MODEL 7
REMARK VINA RESULT:    -4.639      3.201      4.376
REMARK INTER + INTRA:          -5.323
REMARK INTER:                  -5.170
REMARK INTRA:                  -0.152
REMARK UNBOUND:                -0.141
REMARK  Name = 1550473
REMARK  2 active torsions:
REMARK  status: ('A' for Active; 'I' for Inactive)
REMARK    1  A    between atoms: N_1  and  C_4
REMARK    2  A    between atoms: C_4  and  C_5
REMARK                            x       y       z     vdW  Elec       q    Type
REMARK                         _______ _______ _______ _____ _____    ______ ____
ROOT
ATOM      1  N   UNL     1       7.398   7.061  18.390  0.00  0.00    -0.354 N 
ATOM      2  N   UNL     1       8.129   9.244  18.137  0.00  0.00    -0.372 N 
ATOM      3  N   UNL     1       5.969   8.869  18.814  0.00  0.00    -0.372 N 
ATOM      4  C   UNL     1       7.158   8.377  18.449  0.00  0.00    +0.166 C 
ATOM      5  H   UNL     1       8.311   6.752  18.078  0.00  0.00    +0.163 HD
ATOM      6  H   UNL     1       7.978  10.243  18.176  0.00  0.00    +0.159 HD
ATOM      7  H   UNL     1       9.055   8.933  17.869  0.00  0.00    +0.159 HD
ATOM      8  H   UNL     1       5.192   8.268  19.056  0.00  0.00    +0.159 HD
ATOM      9  H   UNL     1       5.795   9.866  18.847  0.00  0.00    +0.159 HD
ENDROOT
BRANCH   1  10
ATOM     10  C   UNL     1       6.425   6.035  18.761  0.00  0.00    +0.151 C 
BRANCH  10  11
ATOM     11  C   UNL     1       6.061   5.238  17.539  0.00  0.00    -0.028 A 
ATOM     12  C   UNL     1       6.959   5.128  16.467  0.00  0.00    +0.005 A 
ATOM     13  C   UNL     1       4.821   4.587  17.449  0.00  0.00    +0.005 A 
ATOM     14  C   UNL     1       6.633   4.364  15.344  0.00  0.00    +0.000 A 
ATOM     15  C   UNL     1       4.499   3.825  16.325  0.00  0.00    +0.000 A 
ATOM     16  C   UNL     1       5.406   3.712  15.274  0.00  0.00    +0.000 A 
ENDBRANCH  10  11
ENDBRANCH   1  10
TORSDOF 2
ENDMDL
MODEL 8
REMARK VINA RESULT:    -4.602      2.844      5.011
REMARK INTER + INTRA:          -5.281
REMARK INTER:                  -5.142
REMARK INTRA:                  -0.140
REMARK UNBOUND:                -0.141
REMARK  Name = 1550473
REMARK  2 active torsions:
REMARK  status: ('A' for Active; 'I' for Inactive)
REMARK    1  A    between atoms: N_1  and  C_4
REMARK    2  A    between atoms: C_4  and  C_5
REMARK                            x       y       z     vdW  Elec       q    Type
REMARK                         _______ _______ _______ _____ _____    ______ ____
ROOT
ATOM      1  N   UNL     1       7.094   7.819  15.091  0.00  0.00    -0.354 N 
ATOM      2  N   UNL     1       7.493   8.906  13.085  0.00  0.00    -0.372 N 
ATOM      3  N   UNL     1       5.323   8.539  13.736  0.00  0.00    -0.372 N 
ATOM      4  C   UNL     1       6.631   8.414  13.984  0.00  0.00    +0.166 C 
ATOM      5  H   UNL     1       8.097   7.729  15.206  0.00  0.00    +0.163 HD
ATOM      6  H   UNL     1       7.173   9.363  12.242  0.00  0.00    +0.159 HD
ATOM      7  H   UNL     1       8.495   8.855  13.225  0.00  0.00    +0.159 HD
ATOM      8  H   UNL     1       4.621   8.184  14.372  0.00  0.00    +0.159 HD
ATOM      9  H   UNL     1       4.984   8.983  12.892  0.00  0.00    +0.159 HD
ENDROOT
BRANCH   1  10
ATOM     10  C   UNL     1       6.240   7.298  16.158  0.00  0.00    +0.151 C 
BRANCH  10  11
ATOM     11  C   UNL     1       6.666   5.894  16.487  0.00  0.00    -0.028 A 
ATOM     12  C   UNL     1       6.531   5.396  17.791  0.00  0.00    +0.005 A 
ATOM     13  C   UNL     1       7.201   5.054  15.497  0.00  0.00    +0.005 A 
ATOM     14  C   UNL     1       6.899   4.082  18.091  0.00  0.00    +0.000 A 
ATOM     15  C   UNL     1       7.568   3.743  15.801  0.00  0.00    +0.000 A 
ATOM     16  C   UNL     1       7.415   3.257  17.097  0.00  0.00    +0.000 A 
ENDBRANCH  10  11
ENDBRANCH   1  10
TORSDOF 2
ENDMDL
MODEL 9
REMARK VINA RESULT:    -4.459      8.939     10.097
REMARK INTER + INTRA:          -5.122
REMARK INTER:                  -5.006
REMARK INTRA:                  -0.116
REMARK UNBOUND:                -0.141
REMARK  Name = 1550473
REMARK  2 active torsions:
REMARK  status: ('A' for Active; 'I' for Inactive)
REMARK    1  A    between atoms: N_1  and  C_4
REMARK    2  A    between atoms: C_4  and  C_5
REMARK                            x       y       z     vdW  Elec       q    Type
REMARK                         _______ _______ _______ _____ _____    ______ ____
ROOT
ATOM      1  N   UNL     1      -0.573  10.358  11.989  0.00  0.00    -0.354 N 
ATOM      2  N   UNL     1      -2.341  10.361  13.486  0.00  0.00    -0.372 N 
ATOM      3  N   UNL     1      -2.775  10.684  11.256  0.00  0.00    -0.372 N 
ATOM      4  C   UNL     1      -1.886  10.468  12.232  0.00  0.00    +0.166 C 
ATOM      5  H   UNL     1       0.052  10.225  12.776  0.00  0.00    +0.163 HD
ATOM      6  H   UNL     1      -3.326  10.436  13.699  0.00  0.00    +0.159 HD
ATOM      7  H   UNL     1      -1.718  10.182  14.265  0.00  0.00    +0.159 HD
ATOM      8  H   UNL     1      -2.496  10.780  10.289  0.00  0.00    +0.159 HD
ATOM      9  H   UNL     1      -3.765  10.774  11.451  0.00  0.00    +0.159 HD
ENDROOT
BRANCH   1  10
ATOM     10  C   UNL     1       0.018  10.406  10.653  0.00  0.00    +0.151 C 
BRANCH  10  11
ATOM     11  C   UNL     1       1.204  11.331  10.674  0.00  0.00    -0.028 A 
ATOM     12  C   UNL     1       2.320  11.040  11.474  0.00  0.00    +0.005 A 
ATOM     13  C   UNL     1       1.221  12.496   9.893  0.00  0.00    +0.005 A 
ATOM     14  C   UNL     1       3.434  11.883  11.471  0.00  0.00    +0.000 A 
ATOM     15  C   UNL     1       2.335  13.336   9.893  0.00  0.00    +0.000 A 
ATOM     16  C   UNL     1       3.442  13.027  10.680  0.00  0.00    +0.000 A 
ENDBRANCH  10  11
ENDBRANCH   1  10
TORSDOF 2
ENDMDL
