MODEL 1
REMARK VINA RESULT:    -4.842      0.000      0.000
REMARK INTER + INTRA:          -5.530
REMARK INTER:                  -5.408
REMARK INTRA:                  -0.123
REMARK UNBOUND:                -0.123
REMARK  Name = 1550473
REMARK  2 active torsions:
REMARK  status: ('A' for Active; 'I' for Inactive)
REMARK    1  A    between atoms: N_1  and  C_4
REMARK    2  A    between atoms: C_4  and  C_5
REMARK                            x       y       z     vdW  Elec       q    Type
REMARK                         _______ _______ _______ _____ _____    ______ ____
ROOT
ATOM      1  N   UNL     1      -5.321   9.946  -1.634  0.00  0.00    -0.354 N 
ATOM      2  N   UNL     1      -4.041  11.303  -0.260  0.00  0.00    -0.372 N 
ATOM      3  N   UNL     1      -6.328  11.412  -0.108  0.00  0.00    -0.372 N 
ATOM      4  C   UNL     1      -5.241  10.879  -0.676  0.00  0.00    +0.166 C 
ATOM      5  H   UNL     1      -4.460   9.604  -2.045  0.00  0.00    +0.163 HD
ATOM      6  H   UNL     1      -3.950  12.003   0.463  0.00  0.00    +0.159 HD
ATOM      7  H   UNL     1      -3.182  10.925  -0.641  0.00  0.00    +0.159 HD
ATOM      8  H   UNL     1      -7.263  11.140  -0.382  0.00  0.00    +0.159 HD
ATOM      9  H   UNL     1      -6.257  12.123   0.609  0.00  0.00    +0.159 HD
ENDROOT
BRANCH   1  10
ATOM     10  C   UNL     1      -6.577   9.378  -2.120  0.00  0.00    +0.151 C 
BRANCH  10  11
ATOM     11  C   UNL     1      -6.287   8.465  -3.279  0.00  0.00    -0.028 A 
ATOM     12  C   UNL     1      -4.969   8.093  -3.580  0.00  0.00    +0.005 A 
ATOM     13  C   UNL     1      -7.328   7.964  -4.076  0.00  0.00    +0.005 A 
ATOM     14  C   UNL     1      -4.702   7.220  -4.638  0.00  0.00    +0.000 A 
ATOM     15  C   UNL     1      -7.057   7.094  -5.132  0.00  0.00    +0.000 A 
ATOM     16  C   UNL     1      -5.744   6.720  -5.411  0.00  0.00    +0.000 A 
ENDBRANCH  10  11
ENDBRANCH   1  10
TORSDOF 2
ENDMDL
MODEL 2
REMARK VINA RESULT:    -4.551     16.042     17.269
REMARK INTER + INTRA:          -5.206
REMARK INTER:                  -5.058
REMARK INTRA:                  -0.149
REMARK UNBOUND:                -0.123
REMARK  Name = 1550473
REMARK  2 active torsions:
REMARK  status: ('A' for Active; 'I' for Inactive)
REMARK    1  A    between atoms: N_1  and  C_4
REMARK    2  A    between atoms: C_4  and  C_5
REMARK                            x       y       z     vdW  Elec       q    Type
REMARK                         _______ _______ _______ _____ _____    ______ ____
ROOT
ATOM      1  N   UNL     1       9.256   8.974  -2.330  0.00  0.00    -0.354 N 
ATOM      2  N   UNL     1       8.146  10.357  -3.820  0.00  0.00    -0.372 N 
ATOM      3  N   UNL     1       8.642   8.209  -4.459  0.00  0.00    -0.372 N 
ATOM      4  C   UNL     1       8.689   9.169  -3.528  0.00  0.00    +0.166 C 
ATOM      5  H   UNL     1       9.286   9.751  -1.680  0.00  0.00    +0.163 HD
ATOM      6  H   UNL     1       7.708  10.532  -4.715  0.00  0.00    +0.159 HD
ATOM      7  H   UNL     1       8.136  11.117  -3.152  0.00  0.00    +0.159 HD
ATOM      8  H   UNL     1       9.039   7.293  -4.303  0.00  0.00    +0.159 HD
ATOM      9  H   UNL     1       8.219   8.369  -5.364  0.00  0.00    +0.159 HD
ENDROOT
BRANCH   1  10
ATOM     10  C   UNL     1       9.828   7.702  -1.893  0.00  0.00    +0.151 C 
BRANCH  10  11
ATOM     11  C   UNL     1      11.293   7.893  -1.613  0.00  0.00    -0.028 A 
ATOM     12  C   UNL     1      11.838   9.181  -1.516  0.00  0.00    +0.005 A 
ATOM     13  C   UNL     1      12.141   6.788  -1.438  0.00  0.00    +0.005 A 
ATOM     14  C   UNL     1      13.193   9.359  -1.226  0.00  0.00    +0.000 A 
ATOM     15  C   UNL     1      13.493   6.970  -1.149  0.00  0.00    +0.000 A 
ATOM     16  C   UNL     1      14.018   8.255  -1.041  0.00  0.00    +0.000 A 
ENDBRANCH  10  11
ENDBRANCH   1  10
TORSDOF 2
ENDMDL
MODEL 3
REMARK VINA RESULT:    -4.455      3.331      4.485
REMARK INTER + INTRA:          -5.098
REMARK INTER:                  -4.958
REMARK INTRA:                  -0.140
REMARK UNBOUND:                -0.123
REMARK  Name = 1550473
REMARK  2 active torsions:
REMARK  status: ('A' for Active; 'I' for Inactive)
REMARK    1  A    between atoms: N_1  and  C_4
REMARK    2  A    between atoms: C_4  and  C_5
REMARK                            x       y       z     vdW  Elec       q    Type
REMARK                         _______ _______ _______ _____ _____    ______ ____
ROOT
ATOM      1  N   UNL     1      -6.324  11.021   0.068  0.00  0.00    -0.354 N 
ATOM      2  N   UNL     1      -4.719  12.256   1.190  0.00  0.00    -0.372 N 
ATOM      3  N   UNL     1      -4.047  10.774  -0.428  0.00  0.00    -0.372 N 
ATOM      4  C   UNL     1      -5.039  11.341   0.268  0.00  0.00    +0.166 C 
ATOM      5  H   UNL     1      -7.027  11.464   0.649  0.00  0.00    +0.163 HD
ATOM      6  H   UNL     1      -3.758  12.521   1.361  0.00  0.00    +0.159 HD
ATOM      7  H   UNL     1      -5.427  12.731   1.737  0.00  0.00    +0.159 HD
ATOM      8  H   UNL     1      -4.221  10.072  -1.134  0.00  0.00    +0.159 HD
ATOM      9  H   UNL     1      -3.078  11.017  -0.263  0.00  0.00    +0.159 HD
ENDROOT
BRANCH   1  10
ATOM     10  C   UNL     1      -6.783  10.076  -0.949  0.00  0.00    +0.151 C 
BRANCH  10  11
ATOM     11  C   UNL     1      -7.775   9.131  -0.330  0.00  0.00    -0.028 A 
ATOM     12  C   UNL     1      -8.864   8.653  -1.074  0.00  0.00    +0.005 A 
ATOM     13  C   UNL     1      -7.629   8.705   0.999  0.00  0.00    +0.005 A 
ATOM     14  C   UNL     1      -9.769   7.751  -0.508  0.00  0.00    +0.000 A 
ATOM     15  C   UNL     1      -8.536   7.805   1.561  0.00  0.00    +0.000 A 
ATOM     16  C   UNL     1      -9.604   7.327   0.806  0.00  0.00    +0.000 A 
ENDBRANCH  10  11
ENDBRANCH   1  10
TORSDOF 2
ENDMDL
MODEL 4
REMARK VINA RESULT:    -4.401     19.370     21.342
REMARK INTER + INTRA:          -5.038
REMARK INTER:                  -4.909
REMARK INTRA:                  -0.129
REMARK UNBOUND:                -0.123
REMARK  Name = 1550473
REMARK  2 active torsions:
REMARK  status: ('A' for Active; 'I' for Inactive)
REMARK    1  A    between atoms: N_1  and  C_4
REMARK    2  A    between atoms: C_4  and  C_5
REMARK                            x       y       z     vdW  Elec       q    Type
REMARK                         _______ _______ _______ _____ _____    ______ ____
ROOT
ATOM      1  N   UNL     1     -10.539  -3.932 -17.158  0.00  0.00    -0.354 N 
ATOM      2  N   UNL     1     -11.654  -2.619 -15.610  0.00  0.00    -0.372 N 
ATOM      3  N   UNL     1     -11.954  -4.893 -15.557  0.00  0.00    -0.372 N 
ATOM      4  C   UNL     1     -11.376  -3.826 -16.118  0.00  0.00    +0.166 C 
ATOM      5  H   UNL     1     -10.157  -3.082 -17.557  0.00  0.00    +0.163 HD
ATOM      6  H   UNL     1     -12.279  -2.508 -14.823  0.00  0.00    +0.159 HD
ATOM      7  H   UNL     1     -11.235  -1.775 -15.981  0.00  0.00    +0.159 HD
ATOM      8  H   UNL     1     -11.791  -5.832 -15.897  0.00  0.00    +0.159 HD
ATOM      9  H   UNL     1     -12.592  -4.802 -14.776  0.00  0.00    +0.159 HD
ENDROOT
BRANCH   1  10
ATOM     10  C   UNL     1     -10.129  -5.204 -17.751  0.00  0.00    +0.151 C 
BRANCH  10  11
ATOM     11  C   UNL     1      -9.716  -4.970 -19.178  0.00  0.00    -0.028 A 
ATOM     12  C   UNL     1     -10.039  -3.768 -19.825  0.00  0.00    +0.005 A 
ATOM     13  C   UNL     1      -8.996  -5.944 -19.887  0.00  0.00    +0.005 A 
ATOM     14  C   UNL     1      -9.629  -3.537 -21.140  0.00  0.00    +0.000 A 
ATOM     15  C   UNL     1      -8.590  -5.710 -21.201  0.00  0.00    +0.000 A 
ATOM     16  C   UNL     1      -8.904  -4.506 -21.826  0.00  0.00    +0.000 A 
ENDBRANCH  10  11
ENDBRANCH   1  10
TORSDOF 2
ENDMDL
MODEL 5
REMARK VINA RESULT:    -4.351     24.058     25.060
REMARK INTER + INTRA:          -4.982
REMARK INTER:                  -4.868
REMARK INTRA:                  -0.114
REMARK UNBOUND:                -0.123
REMARK  Name = 1550473
REMARK  2 active torsions:
REMARK  status: ('A' for Active; 'I' for Inactive)
REMARK    1  A    between atoms: N_1  and  C_4
REMARK    2  A    between atoms: C_4  and  C_5
REMARK                            x       y       z     vdW  Elec       q    Type
REMARK                         _______ _______ _______ _____ _____    ______ ____
ROOT
ATOM      1  N   UNL     1       9.373   1.002  14.881  0.00  0.00    -0.354 N 
ATOM      2  N   UNL     1       7.373  -0.036  15.416  0.00  0.00    -0.372 N 
ATOM      3  N   UNL     1       7.474   2.256  15.442  0.00  0.00    -0.372 N 
ATOM      4  C   UNL     1       8.086   1.084  15.243  0.00  0.00    +0.166 C 
ATOM      5  H   UNL     1       9.786   0.083  14.776  0.00  0.00    +0.163 HD
ATOM      6  H   UNL     1       6.399  -0.006  15.686  0.00  0.00    +0.159 HD
ATOM      7  H   UNL     1       7.776  -0.953  15.265  0.00  0.00    +0.159 HD
ATOM      8  H   UNL     1       7.958   3.138  15.334  0.00  0.00    +0.159 HD
ATOM      9  H   UNL     1       6.503   2.307  15.723  0.00  0.00    +0.159 HD
ENDROOT
BRANCH   1  10
ATOM     10  C   UNL     1      10.223   2.162  14.615  0.00  0.00    +0.151 C 
BRANCH  10  11
ATOM     11  C   UNL     1      11.448   1.712  13.869  0.00  0.00    -0.028 A 
ATOM     12  C   UNL     1      11.339   0.822  12.791  0.00  0.00    +0.005 A 
ATOM     13  C   UNL     1      12.722   2.177  14.232  0.00  0.00    +0.005 A 
ATOM     14  C   UNL     1      12.474   0.427  12.079  0.00  0.00    +0.000 A 
ATOM     15  C   UNL     1      13.853   1.780  13.519  0.00  0.00    +0.000 A 
ATOM     16  C   UNL     1      13.728   0.907  12.441  0.00  0.00    +0.000 A 
ENDBRANCH  10  11
ENDBRANCH   1  10
TORSDOF 2
ENDMDL
MODEL 6
REMARK VINA RESULT:    -4.347     19.874     21.141
REMARK INTER + INTRA:          -4.978
REMARK INTER:                  -4.846
REMARK INTRA:                  -0.132
REMARK UNBOUND:                -0.123
REMARK  Name = 1550473
REMARK  2 active torsions:
REMARK  status: ('A' for Active; 'I' for Inactive)
REMARK    1  A    between atoms: N_1  and  C_4
REMARK    2  A    between atoms: C_4  and  C_5
REMARK                            x       y       z     vdW  Elec       q    Type
REMARK                         _______ _______ _______ _____ _____    ______ ____
ROOT
ATOM      1  N   UNL     1      13.565   4.399  -2.384  0.00  0.00    -0.354 N 
ATOM      2  N   UNL     1      12.285   2.642  -3.182  0.00  0.00    -0.372 N 
ATOM      3  N   UNL     1      11.233   4.405  -2.158  0.00  0.00    -0.372 N 
ATOM      4  C   UNL     1      12.367   3.828  -2.568  0.00  0.00    +0.166 C 
ATOM      5  H   UNL     1      14.390   3.897  -2.691  0.00  0.00    +0.163 HD
ATOM      6  H   UNL     1      11.395   2.188  -3.338  0.00  0.00    +0.159 HD
ATOM      7  H   UNL     1      13.108   2.163  -3.529  0.00  0.00    +0.159 HD
ATOM      8  H   UNL     1      11.227   5.297  -1.683  0.00  0.00    +0.159 HD
ATOM      9  H   UNL     1      10.333   3.961  -2.295  0.00  0.00    +0.159 HD
ENDROOT
BRANCH   1  10
ATOM     10  C   UNL     1      13.759   5.714  -1.775  0.00  0.00    +0.151 C 
BRANCH  10  11
ATOM     11  C   UNL     1      14.785   5.602  -0.681  0.00  0.00    -0.028 A 
ATOM     12  C   UNL     1      15.902   4.768  -0.835  0.00  0.00    +0.005 A 
ATOM     13  C   UNL     1      14.649   6.332   0.510  0.00  0.00    +0.005 A 
ATOM     14  C   UNL     1      16.871   4.686   0.168  0.00  0.00    +0.000 A 
ATOM     15  C   UNL     1      15.618   6.247   1.509  0.00  0.00    +0.000 A 
ATOM     16  C   UNL     1      16.730   5.426   1.337  0.00  0.00    +0.000 A 
ENDBRANCH  10  11
ENDBRANCH   1  10
TORSDOF 2
ENDMDL
MODEL 7
REMARK VINA RESULT:    -4.316     15.844     16.257
REMARK INTER + INTRA:          -4.943
REMARK INTER:                  -4.821
REMARK INTRA:                  -0.123
REMARK UNBOUND:                -0.123
REMARK  Name = 1550473
REMARK  2 active torsions:
REMARK  status: ('A' for Active; 'I' for Inactive)
REMARK    1  A    between atoms: N_1  and  C_4
REMARK    2  A    between atoms: C_4  and  C_5
REMARK                            x       y       z     vdW  Elec       q    Type
REMARK                         _______ _______ _______ _____ _____    ______ ____
ROOT
ATOM      1  N   UNL     1      -3.686   6.188  12.514  0.00  0.00    -0.354 N 
ATOM      2  N   UNL     1      -3.606   3.879  12.356  0.00  0.00    -0.372 N 
ATOM      3  N   UNL     1      -5.633   4.898  12.702  0.00  0.00    -0.372 N 
ATOM      4  C   UNL     1      -4.312   5.004  12.526  0.00  0.00    +0.166 C 
ATOM      5  H   UNL     1      -2.678   6.199  12.406  0.00  0.00    +0.163 HD
ATOM      6  H   UNL     1      -4.052   2.971  12.357  0.00  0.00    +0.159 HD
ATOM      7  H   UNL     1      -2.606   3.896  12.202  0.00  0.00    +0.159 HD
ATOM      8  H   UNL     1      -6.221   5.708  12.842  0.00  0.00    +0.159 HD
ATOM      9  H   UNL     1      -6.095   3.997  12.718  0.00  0.00    +0.159 HD
ENDROOT
BRANCH   1  10
ATOM     10  C   UNL     1      -4.369   7.475  12.636  0.00  0.00    +0.151 C 
BRANCH  10  11
ATOM     11  C   UNL     1      -3.355   8.581  12.533  0.00  0.00    -0.028 A 
ATOM     12  C   UNL     1      -3.754   9.923  12.619  0.00  0.00    +0.005 A 
ATOM     13  C   UNL     1      -1.993   8.293  12.355  0.00  0.00    +0.005 A 
ATOM     14  C   UNL     1      -2.809  10.950  12.554  0.00  0.00    +0.000 A 
ATOM     15  C   UNL     1      -1.053   9.321  12.289  0.00  0.00    +0.000 A 
ATOM     16  C   UNL     1      -1.460  10.649  12.391  0.00  0.00    +0.000 A 
ENDBRANCH  10  11
ENDBRANCH   1  10
TORSDOF 2
ENDMDL
MODEL 8
REMARK VINA RESULT:    -4.277     18.874     20.797
REMARK INTER + INTRA:          -4.900
REMARK INTER:                  -4.763
REMARK INTRA:                  -0.137
REMARK UNBOUND:                -0.123
REMARK  Name = 1550473
REMARK  2 active torsions:
REMARK  status: ('A' for Active; 'I' for Inactive)
REMARK    1  A    between atoms: N_1  and  C_4
REMARK    2  A    between atoms: C_4  and  C_5
REMARK                            x       y       z     vdW  Elec       q    Type
REMARK                         _______ _______ _______ _____ _____    ______ ____
ROOT
ATOM      1  N   UNL     1     -11.203  -4.796 -16.027  0.00  0.00    -0.354 N 
ATOM      2  N   UNL     1     -10.996  -3.877 -13.911  0.00  0.00    -0.372 N 
ATOM      3  N   UNL     1     -11.767  -2.558 -15.623  0.00  0.00    -0.372 N 
ATOM      4  C   UNL     1     -11.324  -3.747 -15.202  0.00  0.00    +0.166 C 
ATOM      5  H   UNL     1     -10.832  -5.662 -15.653  0.00  0.00    +0.163 HD
ATOM      6  H   UNL     1     -11.080  -3.104 -13.264  0.00  0.00    +0.159 HD
ATOM      7  H   UNL     1     -10.669  -4.757 -13.530  0.00  0.00    +0.159 HD
ATOM      8  H   UNL     1     -12.025  -2.392 -16.586  0.00  0.00    +0.159 HD
ATOM      9  H   UNL     1     -11.847  -1.769 -14.993  0.00  0.00    +0.159 HD
ENDROOT
BRANCH   1  10
ATOM     10  C   UNL     1     -11.584  -4.775 -17.438  0.00  0.00    +0.151 C 
BRANCH  10  11
ATOM     11  C   UNL     1     -10.437  -5.289 -18.264  0.00  0.00    -0.028 A 
ATOM     12  C   UNL     1      -9.540  -6.226 -17.732  0.00  0.00    +0.005 A 
ATOM     13  C   UNL     1     -10.246  -4.848 -19.583  0.00  0.00    +0.005 A 
ATOM     14  C   UNL     1      -8.492  -6.727 -18.509  0.00  0.00    +0.000 A 
ATOM     15  C   UNL     1      -9.198  -5.349 -20.355  0.00  0.00    +0.000 A 
ATOM     16  C   UNL     1      -8.323  -6.291 -19.818  0.00  0.00    +0.000 A 
ENDBRANCH  10  11
ENDBRANCH   1  10
TORSDOF 2
ENDMDL
MODEL 9
REMARK VINA RESULT:    -4.175     19.465     20.621
REMARK INTER + INTRA:          -4.786
REMARK INTER:                  -4.645
REMARK INTRA:                  -0.140
REMARK UNBOUND:                -0.123
REMARK  Name = 1550473
REMARK  2 active torsions:
REMARK  status: ('A' for Active; 'I' for Inactive)
REMARK    1  A    between atoms: N_1  and  C_4
REMARK    2  A    between atoms: C_4  and  C_5
REMARK                            x       y       z     vdW  Elec       q    Type
REMARK                         _______ _______ _______ _____ _____    ______ ____
ROOT
ATOM      1  N   UNL     1      13.688   9.366  -1.509  0.00  0.00    -0.354 N 
ATOM      2  N   UNL     1      12.429  11.284  -1.195  0.00  0.00    -0.372 N 
ATOM      3  N   UNL     1      11.366   9.251  -1.212  0.00  0.00    -0.372 N 
ATOM      4  C   UNL     1      12.500   9.952  -1.307  0.00  0.00    +0.166 C 
ATOM      5  H   UNL     1      14.506   9.956  -1.603  0.00  0.00    +0.163 HD
ATOM      6  H   UNL     1      11.547  11.755  -1.039  0.00  0.00    +0.159 HD
ATOM      7  H   UNL     1      13.255  11.868  -1.243  0.00  0.00    +0.159 HD
ATOM      8  H   UNL     1      11.351   8.243  -1.294  0.00  0.00    +0.159 HD
ATOM      9  H   UNL     1      10.473   9.704  -1.067  0.00  0.00    +0.159 HD
ENDROOT
BRANCH   1  10
ATOM     10  C   UNL     1      13.882   7.919  -1.592  0.00  0.00    +0.151 C 
BRANCH  10  11
ATOM     11  C   UNL     1      14.811   7.484  -0.493  0.00  0.00    -0.028 A 
ATOM     12  C   UNL     1      15.995   8.192  -0.240  0.00  0.00    +0.005 A 
ATOM     13  C   UNL     1      14.510   6.369   0.304  0.00  0.00    +0.005 A 
ATOM     14  C   UNL     1      16.844   7.806   0.801  0.00  0.00    +0.000 A 
ATOM     15  C   UNL     1      15.360   5.987   1.341  0.00  0.00    +0.000 A 
ATOM     16  C   UNL     1      16.525   6.707   1.591  0.00  0.00    +0.000 A 
ENDBRANCH  10  11
ENDBRANCH   1  10
TORSDOF 2
ENDMDL
