MODEL 1
REMARK VINA RESULT:    -5.767      0.000      0.000
REMARK INTER + INTRA:          -6.570
REMARK INTER:                  -6.441
REMARK INTRA:                  -0.129
REMARK UNBOUND:                -0.129
REMARK  Name = 1550473
REMARK  2 active torsions:
REMARK  status: ('A' for Active; 'I' for Inactive)
REMARK    1  A    between atoms: N_1  and  C_4
REMARK    2  A    between atoms: C_4  and  C_5
REMARK                            x       y       z     vdW  Elec       q    Type
REMARK                         _______ _______ _______ _____ _____    ______ ____
ROOT
ATOM      1  N   UNL     1      -7.728  24.762   9.334  0.00  0.00    -0.354 N 
ATOM      2  N   UNL     1      -7.680  22.818  10.592  0.00  0.00    -0.372 N 
ATOM      3  N   UNL     1      -9.297  24.385  11.033  0.00  0.00    -0.372 N 
ATOM      4  C   UNL     1      -8.238  24.003  10.313  0.00  0.00    +0.166 C 
ATOM      5  H   UNL     1      -6.906  24.429   8.845  0.00  0.00    +0.163 HD
ATOM      6  H   UNL     1      -8.045  22.222  11.323  0.00  0.00    +0.159 HD
ATOM      7  H   UNL     1      -6.886  22.467  10.071  0.00  0.00    +0.159 HD
ATOM      8  H   UNL     1      -9.760  25.271  10.876  0.00  0.00    +0.159 HD
ATOM      9  H   UNL     1      -9.669  23.808  11.777  0.00  0.00    +0.159 HD
ENDROOT
BRANCH   1  10
ATOM     10  C   UNL     1      -8.294  26.044   8.915  0.00  0.00    +0.151 C 
BRANCH  10  11
ATOM     11  C   UNL     1      -7.208  27.084   8.916  0.00  0.00    -0.028 A 
ATOM     12  C   UNL     1      -5.952  26.802   8.360  0.00  0.00    +0.005 A 
ATOM     13  C   UNL     1      -7.431  28.355   9.468  0.00  0.00    +0.005 A 
ATOM     14  C   UNL     1      -4.952  27.778   8.334  0.00  0.00    +0.000 A 
ATOM     15  C   UNL     1      -6.430  29.326   9.441  0.00  0.00    +0.000 A 
ATOM     16  C   UNL     1      -5.192  29.038   8.872  0.00  0.00    +0.000 A 
ENDBRANCH  10  11
ENDBRANCH   1  10
TORSDOF 2
ENDMDL
MODEL 2
REMARK VINA RESULT:    -5.618     23.255     24.858
REMARK INTER + INTRA:          -6.404
REMARK INTER:                  -6.253
REMARK INTRA:                  -0.151
REMARK UNBOUND:                -0.129
REMARK  Name = 1550473
REMARK  2 active torsions:
REMARK  status: ('A' for Active; 'I' for Inactive)
REMARK    1  A    between atoms: N_1  and  C_4
REMARK    2  A    between atoms: C_4  and  C_5
REMARK                            x       y       z     vdW  Elec       q    Type
REMARK                         _______ _______ _______ _____ _____    ______ ____
ROOT
ATOM      1  N   UNL     1      -2.963   4.589  -3.572  0.00  0.00    -0.354 N 
ATOM      2  N   UNL     1      -0.648   4.542  -3.511  0.00  0.00    -0.372 N 
ATOM      3  N   UNL     1      -1.708   4.351  -5.537  0.00  0.00    -0.372 N 
ATOM      4  C   UNL     1      -1.788   4.494  -4.210  0.00  0.00    +0.166 C 
ATOM      5  H   UNL     1      -2.957   4.665  -2.562  0.00  0.00    +0.163 HD
ATOM      6  H   UNL     1       0.253   4.477  -3.965  0.00  0.00    +0.159 HD
ATOM      7  H   UNL     1      -0.644   4.665  -2.506  0.00  0.00    +0.159 HD
ATOM      8  H   UNL     1      -2.532   4.302  -6.121  0.00  0.00    +0.159 HD
ATOM      9  H   UNL     1      -0.815   4.272  -6.009  0.00  0.00    +0.159 HD
ENDROOT
BRANCH   1  10
ATOM     10  C   UNL     1      -4.260   4.602  -4.246  0.00  0.00    +0.151 C 
BRANCH  10  11
ATOM     11  C   UNL     1      -4.957   5.900  -3.946  0.00  0.00    -0.028 A 
ATOM     12  C   UNL     1      -5.839   6.000  -2.860  0.00  0.00    +0.005 A 
ATOM     13  C   UNL     1      -4.734   7.036  -4.740  0.00  0.00    +0.005 A 
ATOM     14  C   UNL     1      -6.464   7.214  -2.563  0.00  0.00    +0.000 A 
ATOM     15  C   UNL     1      -5.360   8.246  -4.440  0.00  0.00    +0.000 A 
ATOM     16  C   UNL     1      -6.223   8.335  -3.350  0.00  0.00    +0.000 A 
ENDBRANCH  10  11
ENDBRANCH   1  10
TORSDOF 2
ENDMDL
MODEL 3
REMARK VINA RESULT:    -5.482     23.995     25.510
REMARK INTER + INTRA:          -6.252
REMARK INTER:                  -6.188
REMARK INTRA:                  -0.064
REMARK UNBOUND:                -0.129
REMARK  Name = 1550473
REMARK  2 active torsions:
REMARK  status: ('A' for Active; 'I' for Inactive)
REMARK    1  A    between atoms: N_1  and  C_4
REMARK    2  A    between atoms: C_4  and  C_5
REMARK                            x       y       z     vdW  Elec       q    Type
REMARK                         _______ _______ _______ _____ _____    ______ ____
ROOT
ATOM      1  N   UNL     1      -9.854   6.473  -3.267  0.00  0.00    -0.354 N 
ATOM      2  N   UNL     1      -8.660   7.971  -4.568  0.00  0.00    -0.372 N 
ATOM      3  N   UNL     1      -8.421   5.724  -4.964  0.00  0.00    -0.372 N 
ATOM      4  C   UNL     1      -8.985   6.710  -4.259  0.00  0.00    +0.166 C 
ATOM      5  H   UNL     1     -10.223   7.263  -2.751  0.00  0.00    +0.163 HD
ATOM      6  H   UNL     1      -8.011   8.182  -5.314  0.00  0.00    +0.159 HD
ATOM      7  H   UNL     1      -9.066   8.761  -4.081  0.00  0.00    +0.159 HD
ATOM      8  H   UNL     1      -8.620   4.750  -4.776  0.00  0.00    +0.159 HD
ATOM      9  H   UNL     1      -7.760   5.914  -5.706  0.00  0.00    +0.159 HD
ENDROOT
BRANCH   1  10
ATOM     10  C   UNL     1     -10.315   5.139  -2.886  0.00  0.00    +0.151 C 
BRANCH  10  11
ATOM     11  C   UNL     1     -11.754   4.981  -3.294  0.00  0.00    -0.028 A 
ATOM     12  C   UNL     1     -12.316   5.827  -4.262  0.00  0.00    +0.005 A 
ATOM     13  C   UNL     1     -12.559   3.985  -2.721  0.00  0.00    +0.005 A 
ATOM     14  C   UNL     1     -13.644   5.662  -4.663  0.00  0.00    +0.000 A 
ATOM     15  C   UNL     1     -13.884   3.824  -3.124  0.00  0.00    +0.000 A 
ATOM     16  C   UNL     1     -14.426   4.661  -4.097  0.00  0.00    +0.000 A 
ENDBRANCH  10  11
ENDBRANCH   1  10
TORSDOF 2
ENDMDL
MODEL 4
REMARK VINA RESULT:    -5.374     11.909     13.406
REMARK INTER + INTRA:          -6.131
REMARK INTER:                  -6.019
REMARK INTRA:                  -0.112
REMARK UNBOUND:                -0.129
REMARK  Name = 1550473
REMARK  2 active torsions:
REMARK  status: ('A' for Active; 'I' for Inactive)
REMARK    1  A    between atoms: N_1  and  C_4
REMARK    2  A    between atoms: C_4  and  C_5
REMARK                            x       y       z     vdW  Elec       q    Type
REMARK                         _______ _______ _______ _____ _____    ______ ____
ROOT
ATOM      1  N   UNL     1      -0.386  14.851  13.636  0.00  0.00    -0.354 N 
ATOM      2  N   UNL     1      -0.657  13.272  15.309  0.00  0.00    -0.372 N 
ATOM      3  N   UNL     1      -0.569  12.571  13.126  0.00  0.00    -0.372 N 
ATOM      4  C   UNL     1      -0.536  13.573  14.011  0.00  0.00    +0.166 C 
ATOM      5  H   UNL     1      -0.399  15.567  14.353  0.00  0.00    +0.163 HD
ATOM      6  H   UNL     1      -0.767  12.317  15.622  0.00  0.00    +0.159 HD
ATOM      7  H   UNL     1      -0.624  13.986  16.027  0.00  0.00    +0.159 HD
ATOM      8  H   UNL     1      -0.489  12.732  12.131  0.00  0.00    +0.159 HD
ATOM      9  H   UNL     1      -0.691  11.609  13.419  0.00  0.00    +0.159 HD
ENDROOT
BRANCH   1  10
ATOM     10  C   UNL     1      -0.192  15.280  12.252  0.00  0.00    +0.151 C 
BRANCH  10  11
ATOM     11  C   UNL     1      -1.535  15.447  11.597  0.00  0.00    -0.028 A 
ATOM     12  C   UNL     1      -1.886  14.669  10.484  0.00  0.00    +0.005 A 
ATOM     13  C   UNL     1      -2.463  16.378  12.087  0.00  0.00    +0.005 A 
ATOM     14  C   UNL     1      -3.145  14.802   9.893  0.00  0.00    +0.000 A 
ATOM     15  C   UNL     1      -3.719  16.509  11.494  0.00  0.00    +0.000 A 
ATOM     16  C   UNL     1      -4.060  15.719  10.399  0.00  0.00    +0.000 A 
ENDBRANCH  10  11
ENDBRANCH   1  10
TORSDOF 2
ENDMDL
MODEL 5
REMARK VINA RESULT:    -5.267     24.477     25.685
REMARK INTER + INTRA:          -6.013
REMARK INTER:                  -5.890
REMARK INTRA:                  -0.123
REMARK UNBOUND:                -0.129
REMARK  Name = 1550473
REMARK  2 active torsions:
REMARK  status: ('A' for Active; 'I' for Inactive)
REMARK    1  A    between atoms: N_1  and  C_4
REMARK    2  A    between atoms: C_4  and  C_5
REMARK                            x       y       z     vdW  Elec       q    Type
REMARK                         _______ _______ _______ _____ _____    ______ ____
ROOT
ATOM      1  N   UNL     1      -1.379   5.862  -6.159  0.00  0.00    -0.354 N 
ATOM      2  N   UNL     1      -0.129   3.922  -6.356  0.00  0.00    -0.372 N 
ATOM      3  N   UNL     1      -0.318   4.916  -4.296  0.00  0.00    -0.372 N 
ATOM      4  C   UNL     1      -0.617   4.913  -5.600  0.00  0.00    +0.166 C 
ATOM      5  H   UNL     1      -1.544   5.820  -7.159  0.00  0.00    +0.163 HD
ATOM      6  H   UNL     1       0.446   3.191  -5.961  0.00  0.00    +0.159 HD
ATOM      7  H   UNL     1      -0.333   3.858  -7.346  0.00  0.00    +0.159 HD
ATOM      8  H   UNL     1      -0.650   5.639  -3.672  0.00  0.00    +0.159 HD
ATOM      9  H   UNL     1       0.266   4.199  -3.885  0.00  0.00    +0.159 HD
ENDROOT
BRANCH   1  10
ATOM     10  C   UNL     1      -2.003   6.954  -5.415  0.00  0.00    +0.151 C 
BRANCH  10  11
ATOM     11  C   UNL     1      -3.015   7.634  -6.295  0.00  0.00    -0.028 A 
ATOM     12  C   UNL     1      -3.054   7.368  -7.672  0.00  0.00    +0.005 A 
ATOM     13  C   UNL     1      -3.942   8.541  -5.758  0.00  0.00    +0.005 A 
ATOM     14  C   UNL     1      -4.013   7.977  -8.485  0.00  0.00    +0.000 A 
ATOM     15  C   UNL     1      -4.897   9.147  -6.574  0.00  0.00    +0.000 A 
ATOM     16  C   UNL     1      -4.934   8.863  -7.937  0.00  0.00    +0.000 A 
ENDBRANCH  10  11
ENDBRANCH   1  10
TORSDOF 2
ENDMDL
MODEL 6
REMARK VINA RESULT:    -5.111     11.580     12.834
REMARK INTER + INTRA:          -5.838
REMARK INTER:                  -5.693
REMARK INTRA:                  -0.145
REMARK UNBOUND:                -0.129
REMARK  Name = 1550473
REMARK  2 active torsions:
REMARK  status: ('A' for Active; 'I' for Inactive)
REMARK    1  A    between atoms: N_1  and  C_4
REMARK    2  A    between atoms: C_4  and  C_5
REMARK                            x       y       z     vdW  Elec       q    Type
REMARK                         _______ _______ _______ _____ _____    ______ ____
ROOT
ATOM      1  N   UNL     1       0.371  17.442  12.908  0.00  0.00    -0.354 N 
ATOM      2  N   UNL     1       0.963  19.627  13.396  0.00  0.00    -0.372 N 
ATOM      3  N   UNL     1       2.229  18.445  11.891  0.00  0.00    -0.372 N 
ATOM      4  C   UNL     1       1.186  18.490  12.727  0.00  0.00    +0.166 C 
ATOM      5  H   UNL     1      -0.384  17.530  13.578  0.00  0.00    +0.163 HD
ATOM      6  H   UNL     1       1.558  20.436  13.278  0.00  0.00    +0.159 HD
ATOM      7  H   UNL     1       0.180  19.727  14.031  0.00  0.00    +0.159 HD
ATOM      8  H   UNL     1       2.455  17.615  11.361  0.00  0.00    +0.159 HD
ATOM      9  H   UNL     1       2.844  19.240  11.768  0.00  0.00    +0.159 HD
ENDROOT
BRANCH   1  10
ATOM     10  C   UNL     1       0.495  16.176  12.188  0.00  0.00    +0.151 C 
BRANCH  10  11
ATOM     11  C   UNL     1      -0.819  15.854  11.532  0.00  0.00    -0.028 A 
ATOM     12  C   UNL     1      -1.964  16.611  11.820  0.00  0.00    +0.005 A 
ATOM     13  C   UNL     1      -0.925  14.795  10.616  0.00  0.00    +0.005 A 
ATOM     14  C   UNL     1      -3.178  16.331  11.188  0.00  0.00    +0.000 A 
ATOM     15  C   UNL     1      -2.139  14.518   9.988  0.00  0.00    +0.000 A 
ATOM     16  C   UNL     1      -3.265  15.288  10.272  0.00  0.00    +0.000 A 
ENDBRANCH  10  11
ENDBRANCH   1  10
TORSDOF 2
ENDMDL
MODEL 7
REMARK VINA RESULT:    -5.092     41.417     42.711
REMARK INTER + INTRA:          -5.817
REMARK INTER:                  -5.696
REMARK INTRA:                  -0.121
REMARK UNBOUND:                -0.129
REMARK  Name = 1550473
REMARK  2 active torsions:
REMARK  status: ('A' for Active; 'I' for Inactive)
REMARK    1  A    between atoms: N_1  and  C_4
REMARK    2  A    between atoms: C_4  and  C_5
REMARK                            x       y       z     vdW  Elec       q    Type
REMARK                         _______ _______ _______ _____ _____    ______ ____
ROOT
ATOM      1  N   UNL     1      17.283  -4.801  -4.032  0.00  0.00    -0.354 N 
ATOM      2  N   UNL     1      16.019  -3.457  -5.432  0.00  0.00    -0.372 N 
ATOM      3  N   UNL     1      18.049  -2.686  -4.690  0.00  0.00    -0.372 N 
ATOM      4  C   UNL     1      17.127  -3.655  -4.708  0.00  0.00    +0.166 C 
ATOM      5  H   UNL     1      16.534  -5.483  -4.063  0.00  0.00    +0.163 HD
ATOM      6  H   UNL     1      15.875  -2.603  -5.955  0.00  0.00    +0.159 HD
ATOM      7  H   UNL     1      15.292  -4.159  -5.497  0.00  0.00    +0.159 HD
ATOM      8  H   UNL     1      18.905  -2.771  -4.158  0.00  0.00    +0.159 HD
ATOM      9  H   UNL     1      17.918  -1.820  -5.197  0.00  0.00    +0.159 HD
ENDROOT
BRANCH   1  10
ATOM     10  C   UNL     1      18.476  -5.138  -3.258  0.00  0.00    +0.151 C 
BRANCH  10  11
ATOM     11  C   UNL     1      18.162  -6.294  -2.349  0.00  0.00    -0.028 A 
ATOM     12  C   UNL     1      18.966  -6.561  -1.232  0.00  0.00    +0.005 A 
ATOM     13  C   UNL     1      17.058  -7.124  -2.598  0.00  0.00    +0.005 A 
ATOM     14  C   UNL     1      18.657  -7.617  -0.371  0.00  0.00    +0.000 A 
ATOM     15  C   UNL     1      16.753  -8.178  -1.736  0.00  0.00    +0.000 A 
ATOM     16  C   UNL     1      17.552  -8.422  -0.621  0.00  0.00    +0.000 A 
ENDBRANCH  10  11
ENDBRANCH   1  10
TORSDOF 2
ENDMDL
MODEL 8
REMARK VINA RESULT:    -4.880     16.208     17.049
REMARK INTER + INTRA:          -5.580
REMARK INTER:                  -5.456
REMARK INTRA:                  -0.123
REMARK UNBOUND:                -0.129
REMARK  Name = 1550473
REMARK  2 active torsions:
REMARK  status: ('A' for Active; 'I' for Inactive)
REMARK    1  A    between atoms: N_1  and  C_4
REMARK    2  A    between atoms: C_4  and  C_5
REMARK                            x       y       z     vdW  Elec       q    Type
REMARK                         _______ _______ _______ _____ _____    ______ ____
ROOT
ATOM      1  N   UNL     1      -9.554  15.822  -2.767  0.00  0.00    -0.354 N 
ATOM      2  N   UNL     1     -10.782  16.216  -0.843  0.00  0.00    -0.372 N 
ATOM      3  N   UNL     1     -10.810  14.115  -1.766  0.00  0.00    -0.372 N 
ATOM      4  C   UNL     1     -10.375  15.379  -1.805  0.00  0.00    +0.166 C 
ATOM      5  H   UNL     1      -9.285  16.799  -2.758  0.00  0.00    +0.163 HD
ATOM      6  H   UNL     1     -11.399  15.909  -0.102  0.00  0.00    +0.159 HD
ATOM      7  H   UNL     1     -10.475  17.180  -0.811  0.00  0.00    +0.159 HD
ATOM      8  H   UNL     1     -10.544  13.435  -2.465  0.00  0.00    +0.159 HD
ATOM      9  H   UNL     1     -11.436  13.792  -1.039  0.00  0.00    +0.159 HD
ENDROOT
BRANCH   1  10
ATOM     10  C   UNL     1      -9.010  14.978  -3.829  0.00  0.00    +0.151 C 
BRANCH  10  11
ATOM     11  C   UNL     1      -7.751  15.608  -4.360  0.00  0.00    -0.028 A 
ATOM     12  C   UNL     1      -6.920  16.358  -3.516  0.00  0.00    +0.005 A 
ATOM     13  C   UNL     1      -7.382  15.454  -5.705  0.00  0.00    +0.005 A 
ATOM     14  C   UNL     1      -5.735  16.918  -4.001  0.00  0.00    +0.000 A 
ATOM     15  C   UNL     1      -6.200  16.015  -6.186  0.00  0.00    +0.000 A 
ATOM     16  C   UNL     1      -5.375  16.745  -5.333  0.00  0.00    +0.000 A 
ENDBRANCH  10  11
ENDBRANCH   1  10
TORSDOF 2
ENDMDL
MODEL 9
REMARK VINA RESULT:    -4.764     21.239     22.640
REMARK INTER + INTRA:          -5.450
REMARK INTER:                  -5.313
REMARK INTRA:                  -0.137
REMARK UNBOUND:                -0.129
REMARK  Name = 1550473
REMARK  2 active torsions:
REMARK  status: ('A' for Active; 'I' for Inactive)
REMARK    1  A    between atoms: N_1  and  C_4
REMARK    2  A    between atoms: C_4  and  C_5
REMARK                            x       y       z     vdW  Elec       q    Type
REMARK                         _______ _______ _______ _____ _____    ______ ____
ROOT
ATOM      1  N   UNL     1      -4.888   8.120  -2.176  0.00  0.00    -0.354 N 
ATOM      2  N   UNL     1      -4.535   9.361  -0.252  0.00  0.00    -0.372 N 
ATOM      3  N   UNL     1      -6.641   9.300  -1.161  0.00  0.00    -0.372 N 
ATOM      4  C   UNL     1      -5.359   8.920  -1.209  0.00  0.00    +0.166 C 
ATOM      5  H   UNL     1      -3.900   7.893  -2.173  0.00  0.00    +0.163 HD
ATOM      6  H   UNL     1      -4.862   9.963   0.491  0.00  0.00    +0.159 HD
ATOM      7  H   UNL     1      -3.558   9.095  -0.226  0.00  0.00    +0.159 HD
ATOM      8  H   UNL     1      -7.313   9.006  -1.857  0.00  0.00    +0.159 HD
ATOM      9  H   UNL     1      -6.985   9.911  -0.431  0.00  0.00    +0.159 HD
ENDROOT
BRANCH   1  10
ATOM     10  C   UNL     1      -5.715   7.542  -3.233  0.00  0.00    +0.151 C 
BRANCH  10  11
ATOM     11  C   UNL     1      -5.167   7.961  -4.570  0.00  0.00    -0.028 A 
ATOM     12  C   UNL     1      -6.025   8.429  -5.576  0.00  0.00    +0.005 A 
ATOM     13  C   UNL     1      -3.790   7.898  -4.834  0.00  0.00    +0.005 A 
ATOM     14  C   UNL     1      -5.513   8.847  -6.807  0.00  0.00    +0.000 A 
ATOM     15  C   UNL     1      -3.283   8.316  -6.064  0.00  0.00    +0.000 A 
ATOM     16  C   UNL     1      -4.145   8.792  -7.050  0.00  0.00    +0.000 A 
ENDBRANCH  10  11
ENDBRANCH   1  10
TORSDOF 2
ENDMDL
