MODEL 1
REMARK VINA RESULT:    -5.197      0.000      0.000
REMARK INTER + INTRA:          -5.949
REMARK INTER:                  -5.804
REMARK INTRA:                  -0.144
REMARK UNBOUND:                -0.144
REMARK  Name = 1550473
REMARK  2 active torsions:
REMARK  status: ('A' for Active; 'I' for Inactive)
REMARK    1  A    between atoms: N_1  and  C_4
REMARK    2  A    between atoms: C_4  and  C_5
REMARK                            x       y       z     vdW  Elec       q    Type
REMARK                         _______ _______ _______ _____ _____    ______ ____
ROOT
ATOM      1  N   UNL     1      -6.169  -8.805 -15.868  0.00  0.00    -0.354 N 
ATOM      2  N   UNL     1      -6.550  -8.980 -18.146  0.00  0.00    -0.372 N 
ATOM      3  N   UNL     1      -4.399  -9.146 -17.366  0.00  0.00    -0.372 N 
ATOM      4  C   UNL     1      -5.701  -8.976 -17.112  0.00  0.00    +0.166 C 
ATOM      5  H   UNL     1      -7.163  -8.651 -15.745  0.00  0.00    +0.163 HD
ATOM      6  H   UNL     1      -6.227  -9.111 -19.095  0.00  0.00    +0.159 HD
ATOM      7  H   UNL     1      -7.549  -8.872 -18.015  0.00  0.00    +0.159 HD
ATOM      8  H   UNL     1      -3.705  -9.146 -16.630  0.00  0.00    +0.159 HD
ATOM      9  H   UNL     1      -4.054  -9.266 -18.310  0.00  0.00    +0.159 HD
ENDROOT
BRANCH   1  10
ATOM     10  C   UNL     1      -5.334  -8.837 -14.668  0.00  0.00    +0.151 C 
BRANCH  10  11
ATOM     11  C   UNL     1      -5.336 -10.232 -14.106  0.00  0.00    -0.028 A 
ATOM     12  C   UNL     1      -4.187 -10.755 -13.493  0.00  0.00    +0.005 A 
ATOM     13  C   UNL     1      -6.484 -11.035 -14.179  0.00  0.00    +0.005 A 
ATOM     14  C   UNL     1      -4.198 -12.039 -12.945  0.00  0.00    +0.000 A 
ATOM     15  C   UNL     1      -6.491 -12.317 -13.630  0.00  0.00    +0.000 A 
ATOM     16  C   UNL     1      -5.348 -12.818 -13.011  0.00  0.00    +0.000 A 
ENDBRANCH  10  11
ENDBRANCH   1  10
TORSDOF 2
ENDMDL
MODEL 2
REMARK VINA RESULT:    -4.982      1.805      2.969
REMARK INTER + INTRA:          -5.709
REMARK INTER:                  -5.557
REMARK INTRA:                  -0.152
REMARK UNBOUND:                -0.144
REMARK  Name = 1550473
REMARK  2 active torsions:
REMARK  status: ('A' for Active; 'I' for Inactive)
REMARK    1  A    between atoms: N_1  and  C_4
REMARK    2  A    between atoms: C_4  and  C_5
REMARK                            x       y       z     vdW  Elec       q    Type
REMARK                         _______ _______ _______ _____ _____    ______ ____
ROOT
ATOM      1  N   UNL     1      -5.641 -10.940 -14.675  0.00  0.00    -0.354 N 
ATOM      2  N   UNL     1      -6.850  -8.984 -14.951  0.00  0.00    -0.372 N 
ATOM      3  N   UNL     1      -4.570  -8.856 -14.728  0.00  0.00    -0.372 N 
ATOM      4  C   UNL     1      -5.677  -9.605 -14.782  0.00  0.00    +0.166 C 
ATOM      5  H   UNL     1      -6.518 -11.447 -14.693  0.00  0.00    +0.163 HD
ATOM      6  H   UNL     1      -6.908  -7.978 -15.039  0.00  0.00    +0.159 HD
ATOM      7  H   UNL     1      -7.721  -9.497 -15.015  0.00  0.00    +0.159 HD
ATOM      8  H   UNL     1      -3.654  -9.263 -14.597  0.00  0.00    +0.159 HD
ATOM      9  H   UNL     1      -4.609  -7.847 -14.803  0.00  0.00    +0.159 HD
ENDROOT
BRANCH   1  10
ATOM     10  C   UNL     1      -4.410 -11.717 -14.543  0.00  0.00    +0.151 C 
BRANCH  10  11
ATOM     11  C   UNL     1      -4.411 -12.416 -13.211  0.00  0.00    -0.028 A 
ATOM     12  C   UNL     1      -5.188 -13.566 -13.012  0.00  0.00    +0.005 A 
ATOM     13  C   UNL     1      -3.633 -11.936 -12.147  0.00  0.00    +0.005 A 
ATOM     14  C   UNL     1      -5.166 -14.233 -11.784  0.00  0.00    +0.000 A 
ATOM     15  C   UNL     1      -3.614 -12.604 -10.923  0.00  0.00    +0.000 A 
ATOM     16  C   UNL     1      -4.379 -13.754 -10.743  0.00  0.00    +0.000 A 
ENDBRANCH  10  11
ENDBRANCH   1  10
TORSDOF 2
ENDMDL
MODEL 3
REMARK VINA RESULT:    -4.839      3.147      4.088
REMARK INTER + INTRA:          -5.549
REMARK INTER:                  -5.367
REMARK INTRA:                  -0.181
REMARK UNBOUND:                -0.144
REMARK  Name = 1550473
REMARK  2 active torsions:
REMARK  status: ('A' for Active; 'I' for Inactive)
REMARK    1  A    between atoms: N_1  and  C_4
REMARK    2  A    between atoms: C_4  and  C_5
REMARK                            x       y       z     vdW  Elec       q    Type
REMARK                         _______ _______ _______ _____ _____    ______ ____
ROOT
ATOM      1  N   UNL     1      -2.597 -11.412 -14.181  0.00  0.00    -0.354 N 
ATOM      2  N   UNL     1      -0.924 -12.024 -15.661  0.00  0.00    -0.372 N 
ATOM      3  N   UNL     1      -3.093 -12.604 -16.137  0.00  0.00    -0.372 N 
ATOM      4  C   UNL     1      -2.218 -12.011 -15.318  0.00  0.00    +0.166 C 
ATOM      5  H   UNL     1      -1.881 -11.006 -13.589  0.00  0.00    +0.163 HD
ATOM      6  H   UNL     1      -0.609 -12.465 -16.515  0.00  0.00    +0.159 HD
ATOM      7  H   UNL     1      -0.217 -11.578 -15.090  0.00  0.00    +0.159 HD
ATOM      8  H   UNL     1      -4.083 -12.634 -15.932  0.00  0.00    +0.159 HD
ATOM      9  H   UNL     1      -2.795 -13.061 -16.989  0.00  0.00    +0.159 HD
ENDROOT
BRANCH   1  10
ATOM     10  C   UNL     1      -3.986 -11.294 -13.742  0.00  0.00    +0.151 C 
BRANCH  10  11
ATOM     11  C   UNL     1      -4.265 -12.348 -12.706  0.00  0.00    -0.028 A 
ATOM     12  C   UNL     1      -5.152 -13.399 -12.980  0.00  0.00    +0.005 A 
ATOM     13  C   UNL     1      -3.641 -12.303 -11.450  0.00  0.00    +0.005 A 
ATOM     14  C   UNL     1      -5.388 -14.394 -12.028  0.00  0.00    +0.000 A 
ATOM     15  C   UNL     1      -3.880 -13.298 -10.502  0.00  0.00    +0.000 A 
ATOM     16  C   UNL     1      -4.752 -14.345 -10.792  0.00  0.00    +0.000 A 
ENDBRANCH  10  11
ENDBRANCH   1  10
TORSDOF 2
ENDMDL
MODEL 4
REMARK VINA RESULT:    -4.763      3.838      5.249
REMARK INTER + INTRA:          -5.465
REMARK INTER:                  -5.337
REMARK INTRA:                  -0.127
REMARK UNBOUND:                -0.144
REMARK  Name = 1550473
REMARK  2 active torsions:
REMARK  status: ('A' for Active; 'I' for Inactive)
REMARK    1  A    between atoms: N_1  and  C_4
REMARK    2  A    between atoms: C_4  and  C_5
REMARK                            x       y       z     vdW  Elec       q    Type
REMARK                         _______ _______ _______ _____ _____    ______ ____
ROOT
ATOM      1  N   UNL     1      -5.408 -13.221 -12.217  0.00  0.00    -0.354 N 
ATOM      2  N   UNL     1      -4.508 -14.779 -10.760  0.00  0.00    -0.372 N 
ATOM      3  N   UNL     1      -5.531 -15.515 -12.677  0.00  0.00    -0.372 N 
ATOM      4  C   UNL     1      -5.156 -14.497 -11.896  0.00  0.00    +0.166 C 
ATOM      5  H   UNL     1      -5.125 -12.496 -11.568  0.00  0.00    +0.163 HD
ATOM      6  H   UNL     1      -4.301 -15.732 -10.493  0.00  0.00    +0.159 HD
ATOM      7  H   UNL     1      -4.185 -14.051 -10.135  0.00  0.00    +0.159 HD
ATOM      8  H   UNL     1      -6.029 -15.369 -13.545  0.00  0.00    +0.159 HD
ATOM      9  H   UNL     1      -5.343 -16.477 -12.422  0.00  0.00    +0.159 HD
ENDROOT
BRANCH   1  10
ATOM     10  C   UNL     1      -6.060 -12.803 -13.457  0.00  0.00    +0.151 C 
BRANCH  10  11
ATOM     11  C   UNL     1      -5.573 -11.429 -13.829  0.00  0.00    -0.028 A 
ATOM     12  C   UNL     1      -4.271 -11.023 -13.504  0.00  0.00    +0.005 A 
ATOM     13  C   UNL     1      -6.408 -10.532 -14.512  0.00  0.00    +0.005 A 
ATOM     14  C   UNL     1      -3.809  -9.758 -13.875  0.00  0.00    +0.000 A 
ATOM     15  C   UNL     1      -5.943  -9.269 -14.881  0.00  0.00    +0.000 A 
ATOM     16  C   UNL     1      -4.643  -8.884 -14.564  0.00  0.00    +0.000 A 
ENDBRANCH  10  11
ENDBRANCH   1  10
TORSDOF 2
ENDMDL
MODEL 5
REMARK VINA RESULT:    -4.638      2.136      2.601
REMARK INTER + INTRA:          -5.324
REMARK INTER:                  -5.175
REMARK INTRA:                  -0.149
REMARK UNBOUND:                -0.144
REMARK  Name = 1550473
REMARK  2 active torsions:
REMARK  status: ('A' for Active; 'I' for Inactive)
REMARK    1  A    between atoms: N_1  and  C_4
REMARK    2  A    between atoms: C_4  and  C_5
REMARK                            x       y       z     vdW  Elec       q    Type
REMARK                         _______ _______ _______ _____ _____    ______ ____
ROOT
ATOM      1  N   UNL     1      -2.406  -9.309 -15.103  0.00  0.00    -0.354 N 
ATOM      2  N   UNL     1      -1.463  -8.677 -17.122  0.00  0.00    -0.372 N 
ATOM      3  N   UNL     1      -3.014  -7.298 -16.143  0.00  0.00    -0.372 N 
ATOM      4  C   UNL     1      -2.303  -8.430 -16.109  0.00  0.00    +0.166 C 
ATOM      5  H   UNL     1      -1.862 -10.162 -15.152  0.00  0.00    +0.163 HD
ATOM      6  H   UNL     1      -1.361  -8.031 -17.893  0.00  0.00    +0.159 HD
ATOM      7  H   UNL     1      -0.886  -9.509 -17.145  0.00  0.00    +0.159 HD
ATOM      8  H   UNL     1      -3.670  -7.056 -15.412  0.00  0.00    +0.159 HD
ATOM      9  H   UNL     1      -2.935  -6.645 -16.912  0.00  0.00    +0.159 HD
ENDROOT
BRANCH   1  10
ATOM     10  C   UNL     1      -3.250  -9.109 -13.927  0.00  0.00    +0.151 C 
BRANCH  10  11
ATOM     11  C   UNL     1      -4.263 -10.218 -13.855  0.00  0.00    -0.028 A 
ATOM     12  C   UNL     1      -3.943 -11.437 -13.240  0.00  0.00    +0.005 A 
ATOM     13  C   UNL     1      -5.548 -10.054 -14.396  0.00  0.00    +0.005 A 
ATOM     14  C   UNL     1      -4.893 -12.456 -13.146  0.00  0.00    +0.000 A 
ATOM     15  C   UNL     1      -6.494 -11.075 -14.301  0.00  0.00    +0.000 A 
ATOM     16  C   UNL     1      -6.167 -12.275 -13.674  0.00  0.00    +0.000 A 
ENDBRANCH  10  11
ENDBRANCH   1  10
TORSDOF 2
ENDMDL
MODEL 6
REMARK VINA RESULT:    -4.623     36.759     37.638
REMARK INTER + INTRA:          -5.308
REMARK INTER:                  -5.188
REMARK INTRA:                  -0.120
REMARK UNBOUND:                -0.144
REMARK  Name = 1550473
REMARK  2 active torsions:
REMARK  status: ('A' for Active; 'I' for Inactive)
REMARK    1  A    between atoms: N_1  and  C_4
REMARK    2  A    between atoms: C_4  and  C_5
REMARK                            x       y       z     vdW  Elec       q    Type
REMARK                         _______ _______ _______ _____ _____    ______ ____
ROOT
ATOM      1  N   UNL     1      -7.679   1.427  20.357  0.00  0.00    -0.354 N 
ATOM      2  N   UNL     1      -7.724   0.499  22.478  0.00  0.00    -0.372 N 
ATOM      3  N   UNL     1      -5.700   0.787  21.437  0.00  0.00    -0.372 N 
ATOM      4  C   UNL     1      -7.031   0.910  21.410  0.00  0.00    +0.166 C 
ATOM      5  H   UNL     1      -8.691   1.465  20.386  0.00  0.00    +0.163 HD
ATOM      6  H   UNL     1      -7.263   0.107  23.289  0.00  0.00    +0.159 HD
ATOM      7  H   UNL     1      -8.733   0.580  22.523  0.00  0.00    +0.159 HD
ATOM      8  H   UNL     1      -5.120   1.073  20.660  0.00  0.00    +0.159 HD
ATOM      9  H   UNL     1      -5.221   0.387  22.234  0.00  0.00    +0.159 HD
ENDROOT
BRANCH   1  10
ATOM     10  C   UNL     1      -7.014   1.954  19.166  0.00  0.00    +0.151 C 
BRANCH  10  11
ATOM     11  C   UNL     1      -7.369   3.407  19.008  0.00  0.00    -0.028 A 
ATOM     12  C   UNL     1      -7.427   3.990  17.734  0.00  0.00    +0.005 A 
ATOM     13  C   UNL     1      -7.653   4.203  20.128  0.00  0.00    +0.005 A 
ATOM     14  C   UNL     1      -7.786   5.332  17.584  0.00  0.00    +0.000 A 
ATOM     15  C   UNL     1      -8.009   5.543  19.974  0.00  0.00    +0.000 A 
ATOM     16  C   UNL     1      -8.078   6.106  18.702  0.00  0.00    +0.000 A 
ENDBRANCH  10  11
ENDBRANCH   1  10
TORSDOF 2
ENDMDL
MODEL 7
REMARK VINA RESULT:    -4.619     35.476     36.348
REMARK INTER + INTRA:          -5.304
REMARK INTER:                  -5.138
REMARK INTRA:                  -0.165
REMARK UNBOUND:                -0.144
REMARK  Name = 1550473
REMARK  2 active torsions:
REMARK  status: ('A' for Active; 'I' for Inactive)
REMARK    1  A    between atoms: N_1  and  C_4
REMARK    2  A    between atoms: C_4  and  C_5
REMARK                            x       y       z     vdW  Elec       q    Type
REMARK                         _______ _______ _______ _____ _____    ______ ____
ROOT
ATOM      1  N   UNL     1      -7.729  -0.176  19.762  0.00  0.00    -0.354 N 
ATOM      2  N   UNL     1      -9.004  -1.842  18.779  0.00  0.00    -0.372 N 
ATOM      3  N   UNL     1      -7.029  -1.225  17.787  0.00  0.00    -0.372 N 
ATOM      4  C   UNL     1      -7.910  -1.070  18.780  0.00  0.00    +0.166 C 
ATOM      5  H   UNL     1      -8.449  -0.085  20.469  0.00  0.00    +0.163 HD
ATOM      6  H   UNL     1      -9.166  -2.527  18.054  0.00  0.00    +0.159 HD
ATOM      7  H   UNL     1      -9.699  -1.781  19.513  0.00  0.00    +0.159 HD
ATOM      8  H   UNL     1      -6.186  -0.670  17.727  0.00  0.00    +0.159 HD
ATOM      9  H   UNL     1      -7.179  -1.898  17.046  0.00  0.00    +0.159 HD
ENDROOT
BRANCH   1  10
ATOM     10  C   UNL     1      -6.547   0.675  19.885  0.00  0.00    +0.151 C 
BRANCH  10  11
ATOM     11  C   UNL     1      -6.915   2.084  19.509  0.00  0.00    -0.028 A 
ATOM     12  C   UNL     1      -7.008   2.460  18.161  0.00  0.00    +0.005 A 
ATOM     13  C   UNL     1      -7.177   3.047  20.496  0.00  0.00    +0.005 A 
ATOM     14  C   UNL     1      -7.379   3.761  17.811  0.00  0.00    +0.000 A 
ATOM     15  C   UNL     1      -7.547   4.344  20.142  0.00  0.00    +0.000 A 
ATOM     16  C   UNL     1      -7.650   4.700  18.800  0.00  0.00    +0.000 A 
ENDBRANCH  10  11
ENDBRANCH   1  10
TORSDOF 2
ENDMDL
MODEL 8
REMARK VINA RESULT:    -4.513     22.472     23.605
REMARK INTER + INTRA:          -5.185
REMARK INTER:                  -5.072
REMARK INTRA:                  -0.113
REMARK UNBOUND:                -0.144
REMARK  Name = 1550473
REMARK  2 active torsions:
REMARK  status: ('A' for Active; 'I' for Inactive)
REMARK    1  A    between atoms: N_1  and  C_4
REMARK    2  A    between atoms: C_4  and  C_5
REMARK                            x       y       z     vdW  Elec       q    Type
REMARK                         _______ _______ _______ _____ _____    ______ ____
ROOT
ATOM      1  N   UNL     1      11.303   0.083  -2.846  0.00  0.00    -0.354 N 
ATOM      2  N   UNL     1       9.335   1.303  -2.913  0.00  0.00    -0.372 N 
ATOM      3  N   UNL     1      11.248   2.324  -2.162  0.00  0.00    -0.372 N 
ATOM      4  C   UNL     1      10.643   1.230  -2.638  0.00  0.00    +0.166 C 
ATOM      5  H   UNL     1      10.781  -0.719  -3.180  0.00  0.00    +0.163 HD
ATOM      6  H   UNL     1       8.812   2.156  -2.770  0.00  0.00    +0.159 HD
ATOM      7  H   UNL     1       8.825   0.513  -3.290  0.00  0.00    +0.159 HD
ATOM      8  H   UNL     1      12.232   2.333  -1.929  0.00  0.00    +0.159 HD
ATOM      9  H   UNL     1      10.738   3.184  -2.001  0.00  0.00    +0.159 HD
ENDROOT
BRANCH   1  10
ATOM     10  C   UNL     1      12.739  -0.085  -2.630  0.00  0.00    +0.151 C 
BRANCH  10  11
ATOM     11  C   UNL     1      13.111  -1.518  -2.893  0.00  0.00    -0.028 A 
ATOM     12  C   UNL     1      12.464  -2.248  -3.901  0.00  0.00    +0.005 A 
ATOM     13  C   UNL     1      14.113  -2.150  -2.141  0.00  0.00    +0.005 A 
ATOM     14  C   UNL     1      12.830  -3.570  -4.166  0.00  0.00    +0.000 A 
ATOM     15  C   UNL     1      14.474  -3.471  -2.407  0.00  0.00    +0.000 A 
ATOM     16  C   UNL     1      13.835  -4.179  -3.421  0.00  0.00    +0.000 A 
ENDBRANCH  10  11
ENDBRANCH   1  10
TORSDOF 2
ENDMDL
MODEL 9
REMARK VINA RESULT:    -4.489      2.925      4.050
REMARK INTER + INTRA:          -5.158
REMARK INTER:                  -4.991
REMARK INTRA:                  -0.167
REMARK UNBOUND:                -0.144
REMARK  Name = 1550473
REMARK  2 active torsions:
REMARK  status: ('A' for Active; 'I' for Inactive)
REMARK    1  A    between atoms: N_1  and  C_4
REMARK    2  A    between atoms: C_4  and  C_5
REMARK                            x       y       z     vdW  Elec       q    Type
REMARK                         _______ _______ _______ _____ _____    ______ ____
ROOT
ATOM      1  N   UNL     1      -3.361 -12.246 -14.480  0.00  0.00    -0.354 N 
ATOM      2  N   UNL     1      -2.167 -13.231 -16.203  0.00  0.00    -0.372 N 
ATOM      3  N   UNL     1      -1.372 -11.292 -15.269  0.00  0.00    -0.372 N 
ATOM      4  C   UNL     1      -2.306 -12.248 -15.306  0.00  0.00    +0.166 C 
ATOM      5  H   UNL     1      -4.050 -12.983 -14.578  0.00  0.00    +0.163 HD
ATOM      6  H   UNL     1      -1.380 -13.260 -16.837  0.00  0.00    +0.159 HD
ATOM      7  H   UNL     1      -2.833 -13.991 -16.269  0.00  0.00    +0.159 HD
ATOM      8  H   UNL     1      -1.421 -10.519 -14.619  0.00  0.00    +0.159 HD
ATOM      9  H   UNL     1      -0.583 -11.297 -15.904  0.00  0.00    +0.159 HD
ENDROOT
BRANCH   1  10
ATOM     10  C   UNL     1      -3.577 -11.251 -13.431  0.00  0.00    +0.151 C 
BRANCH  10  11
ATOM     11  C   UNL     1      -4.449 -10.151 -13.971  0.00  0.00    -0.028 A 
ATOM     12  C   UNL     1      -3.960  -8.840 -14.073  0.00  0.00    +0.005 A 
ATOM     13  C   UNL     1      -5.764 -10.414 -14.386  0.00  0.00    +0.005 A 
ATOM     14  C   UNL     1      -4.759  -7.824 -14.602  0.00  0.00    +0.000 A 
ATOM     15  C   UNL     1      -6.559  -9.396 -14.913  0.00  0.00    +0.000 A 
ATOM     16  C   UNL     1      -6.055  -8.102 -15.023  0.00  0.00    +0.000 A 
ENDBRANCH  10  11
ENDBRANCH   1  10
TORSDOF 2
ENDMDL
