MODEL 1
REMARK VINA RESULT:    -6.574      0.000      0.000
REMARK INTER + INTRA:          -7.471
REMARK INTER:                  -7.343
REMARK INTRA:                  -0.128
REMARK UNBOUND:                -0.128
REMARK  Name = 1550473
REMARK  2 active torsions:
REMARK  status: ('A' for Active; 'I' for Inactive)
REMARK    1  A    between atoms: N_1  and  C_4
REMARK    2  A    between atoms: C_4  and  C_5
REMARK                            x       y       z     vdW  Elec       q    Type
REMARK                         _______ _______ _______ _____ _____    ______ ____
ROOT
ATOM      1  N   UNL     1       8.343  -8.353  -4.689  0.00  0.00    -0.354 N 
ATOM      2  N   UNL     1       8.590  -8.625  -6.976  0.00  0.00    -0.372 N 
ATOM      3  N   UNL     1       7.229 -10.072  -5.828  0.00  0.00    -0.372 N 
ATOM      4  C   UNL     1       8.051  -9.017  -5.815  0.00  0.00    +0.166 C 
ATOM      5  H   UNL     1       8.997  -7.581  -4.742  0.00  0.00    +0.163 HD
ATOM      6  H   UNL     1       8.385  -9.104  -7.843  0.00  0.00    +0.159 HD
ATOM      7  H   UNL     1       9.207  -7.824  -7.033  0.00  0.00    +0.159 HD
ATOM      8  H   UNL     1       6.794 -10.422  -4.984  0.00  0.00    +0.159 HD
ATOM      9  H   UNL     1       7.021 -10.572  -6.683  0.00  0.00    +0.159 HD
ENDROOT
BRANCH   1  10
ATOM     10  C   UNL     1       7.768  -8.666  -3.383  0.00  0.00    +0.151 C 
BRANCH  10  11
ATOM     11  C   UNL     1       6.989  -7.477  -2.891  0.00  0.00    -0.028 A 
ATOM     12  C   UNL     1       7.130  -7.030  -1.569  0.00  0.00    +0.005 A 
ATOM     13  C   UNL     1       6.113  -6.789  -3.745  0.00  0.00    +0.005 A 
ATOM     14  C   UNL     1       6.430  -5.908  -1.121  0.00  0.00    +0.000 A 
ATOM     15  C   UNL     1       5.415  -5.669  -3.293  0.00  0.00    +0.000 A 
ATOM     16  C   UNL     1       5.576  -5.227  -1.982  0.00  0.00    +0.000 A 
ENDBRANCH  10  11
ENDBRANCH   1  10
TORSDOF 2
ENDMDL
MODEL 2
REMARK VINA RESULT:    -6.019     22.170     23.556
REMARK INTER + INTRA:          -6.851
REMARK INTER:                  -6.704
REMARK INTRA:                  -0.146
REMARK UNBOUND:                -0.128
REMARK  Name = 1550473
REMARK  2 active torsions:
REMARK  status: ('A' for Active; 'I' for Inactive)
REMARK    1  A    between atoms: N_1  and  C_4
REMARK    2  A    between atoms: C_4  and  C_5
REMARK                            x       y       z     vdW  Elec       q    Type
REMARK                         _______ _______ _______ _____ _____    ______ ____
ROOT
ATOM      1  N   UNL     1     -10.320  -0.974  11.756  0.00  0.00    -0.354 N 
ATOM      2  N   UNL     1     -11.766  -0.608  13.528  0.00  0.00    -0.372 N 
ATOM      3  N   UNL     1     -12.305   0.237  11.464  0.00  0.00    -0.372 N 
ATOM      4  C   UNL     1     -11.455  -0.449  12.236  0.00  0.00    +0.166 C 
ATOM      5  H   UNL     1      -9.704  -1.457  12.400  0.00  0.00    +0.163 HD
ATOM      6  H   UNL     1     -12.617  -0.226  13.918  0.00  0.00    +0.159 HD
ATOM      7  H   UNL     1     -11.171  -1.130  14.159  0.00  0.00    +0.159 HD
ATOM      8  H   UNL     1     -12.126   0.397  10.482  0.00  0.00    +0.159 HD
ATOM      9  H   UNL     1     -13.156   0.637  11.838  0.00  0.00    +0.159 HD
ENDROOT
BRANCH   1  10
ATOM     10  C   UNL     1      -9.915  -0.904  10.353  0.00  0.00    +0.151 C 
BRANCH  10  11
ATOM     11  C   UNL     1      -8.632  -0.128  10.250  0.00  0.00    -0.028 A 
ATOM     12  C   UNL     1      -8.612   1.137   9.643  0.00  0.00    +0.005 A 
ATOM     13  C   UNL     1      -7.434  -0.648  10.763  0.00  0.00    +0.005 A 
ATOM     14  C   UNL     1      -7.426   1.872   9.574  0.00  0.00    +0.000 A 
ATOM     15  C   UNL     1      -6.251   0.089  10.691  0.00  0.00    +0.000 A 
ATOM     16  C   UNL     1      -6.248   1.349  10.098  0.00  0.00    +0.000 A 
ENDBRANCH  10  11
ENDBRANCH   1  10
TORSDOF 2
ENDMDL
MODEL 3
REMARK VINA RESULT:    -5.760      1.407      1.663
REMARK INTER + INTRA:          -6.562
REMARK INTER:                  -6.389
REMARK INTRA:                  -0.173
REMARK UNBOUND:                -0.128
REMARK  Name = 1550473
REMARK  2 active torsions:
REMARK  status: ('A' for Active; 'I' for Inactive)
REMARK    1  A    between atoms: N_1  and  C_4
REMARK    2  A    between atoms: C_4  and  C_5
REMARK                            x       y       z     vdW  Elec       q    Type
REMARK                         _______ _______ _______ _____ _____    ______ ____
ROOT
ATOM      1  N   UNL     1       8.107  -8.271  -4.728  0.00  0.00    -0.354 N 
ATOM      2  N   UNL     1      10.418  -8.322  -4.881  0.00  0.00    -0.372 N 
ATOM      3  N   UNL     1       9.379  -9.666  -3.339  0.00  0.00    -0.372 N 
ATOM      4  C   UNL     1       9.286  -8.754  -4.312  0.00  0.00    +0.166 C 
ATOM      5  H   UNL     1       8.106  -7.559  -5.449  0.00  0.00    +0.163 HD
ATOM      6  H   UNL     1      11.322  -8.671  -4.591  0.00  0.00    +0.159 HD
ATOM      7  H   UNL     1      10.411  -7.644  -5.633  0.00  0.00    +0.159 HD
ATOM      8  H   UNL     1       8.562 -10.029  -2.865  0.00  0.00    +0.159 HD
ATOM      9  H   UNL     1      10.275 -10.019  -3.026  0.00  0.00    +0.159 HD
ENDROOT
BRANCH   1  10
ATOM     10  C   UNL     1       6.814  -8.715  -4.212  0.00  0.00    +0.151 C 
BRANCH  10  11
ATOM     11  C   UNL     1       6.263  -7.660  -3.293  0.00  0.00    -0.028 A 
ATOM     12  C   UNL     1       5.967  -7.965  -1.956  0.00  0.00    +0.005 A 
ATOM     13  C   UNL     1       6.039  -6.353  -3.751  0.00  0.00    +0.005 A 
ATOM     14  C   UNL     1       5.484  -6.978  -1.094  0.00  0.00    +0.000 A 
ATOM     15  C   UNL     1       5.555  -5.371  -2.888  0.00  0.00    +0.000 A 
ATOM     16  C   UNL     1       5.280  -5.682  -1.559  0.00  0.00    +0.000 A 
ENDBRANCH  10  11
ENDBRANCH   1  10
TORSDOF 2
ENDMDL
MODEL 4
REMARK VINA RESULT:    -5.166     21.148     22.340
REMARK INTER + INTRA:          -5.898
REMARK INTER:                  -5.757
REMARK INTRA:                  -0.141
REMARK UNBOUND:                -0.128
REMARK  Name = 1550473
REMARK  2 active torsions:
REMARK  status: ('A' for Active; 'I' for Inactive)
REMARK    1  A    between atoms: N_1  and  C_4
REMARK    2  A    between atoms: C_4  and  C_5
REMARK                            x       y       z     vdW  Elec       q    Type
REMARK                         _______ _______ _______ _____ _____    ______ ____
ROOT
ATOM      1  N   UNL     1       4.561  14.668   0.638  0.00  0.00    -0.354 N 
ATOM      2  N   UNL     1       6.713  14.647  -0.218  0.00  0.00    -0.372 N 
ATOM      3  N   UNL     1       6.348  15.585   1.844  0.00  0.00    -0.372 N 
ATOM      4  C   UNL     1       5.860  14.968   0.762  0.00  0.00    +0.166 C 
ATOM      5  H   UNL     1       4.249  14.227  -0.220  0.00  0.00    +0.163 HD
ATOM      6  H   UNL     1       7.699  14.859  -0.151  0.00  0.00    +0.159 HD
ATOM      7  H   UNL     1       6.406  14.166  -1.054  0.00  0.00    +0.159 HD
ATOM      8  H   UNL     1       5.756  15.860   2.617  0.00  0.00    +0.159 HD
ATOM      9  H   UNL     1       7.331  15.816   1.925  0.00  0.00    +0.159 HD
ENDROOT
BRANCH   1  10
ATOM     10  C   UNL     1       3.559  14.926   1.671  0.00  0.00    +0.151 C 
BRANCH  10  11
ATOM     11  C   UNL     1       2.881  13.633   2.031  0.00  0.00    -0.028 A 
ATOM     12  C   UNL     1       1.708  13.236   1.373  0.00  0.00    +0.005 A 
ATOM     13  C   UNL     1       3.410  12.797   3.027  0.00  0.00    +0.005 A 
ATOM     14  C   UNL     1       1.095  12.020   1.686  0.00  0.00    +0.000 A 
ATOM     15  C   UNL     1       2.794  11.585   3.338  0.00  0.00    +0.000 A 
ATOM     16  C   UNL     1       1.638  11.196   2.666  0.00  0.00    +0.000 A 
ENDBRANCH  10  11
ENDBRANCH   1  10
TORSDOF 2
ENDMDL
MODEL 5
REMARK VINA RESULT:    -5.082     12.617     13.323
REMARK INTER + INTRA:          -5.804
REMARK INTER:                  -5.680
REMARK INTRA:                  -0.124
REMARK UNBOUND:                -0.128
REMARK  Name = 1550473
REMARK  2 active torsions:
REMARK  status: ('A' for Active; 'I' for Inactive)
REMARK    1  A    between atoms: N_1  and  C_4
REMARK    2  A    between atoms: C_4  and  C_5
REMARK                            x       y       z     vdW  Elec       q    Type
REMARK                         _______ _______ _______ _____ _____    ______ ____
ROOT
ATOM      1  N   UNL     1      -2.338 -16.078  -7.693  0.00  0.00    -0.354 N 
ATOM      2  N   UNL     1      -2.020 -15.038  -9.737  0.00  0.00    -0.372 N 
ATOM      3  N   UNL     1      -0.183 -15.681  -8.522  0.00  0.00    -0.372 N 
ATOM      4  C   UNL     1      -1.513 -15.606  -8.636  0.00  0.00    +0.166 C 
ATOM      5  H   UNL     1      -3.337 -15.964  -7.825  0.00  0.00    +0.163 HD
ATOM      6  H   UNL     1      -1.422 -14.676 -10.468  0.00  0.00    +0.159 HD
ATOM      7  H   UNL     1      -3.019 -14.966  -9.888  0.00  0.00    +0.159 HD
ATOM      8  H   UNL     1       0.263 -16.093  -7.713  0.00  0.00    +0.159 HD
ATOM      9  H   UNL     1       0.432 -15.314  -9.237  0.00  0.00    +0.159 HD
ENDROOT
BRANCH   1  10
ATOM     10  C   UNL     1      -1.889 -16.763  -6.481  0.00  0.00    +0.151 C 
BRANCH  10  11
ATOM     11  C   UNL     1      -2.797 -16.392  -5.342  0.00  0.00    -0.028 A 
ATOM     12  C   UNL     1      -4.142 -16.072  -5.578  0.00  0.00    +0.005 A 
ATOM     13  C   UNL     1      -2.320 -16.363  -4.022  0.00  0.00    +0.005 A 
ATOM     14  C   UNL     1      -4.994 -15.757  -4.517  0.00  0.00    +0.000 A 
ATOM     15  C   UNL     1      -3.174 -16.047  -2.965  0.00  0.00    +0.000 A 
ATOM     16  C   UNL     1      -4.511 -15.746  -3.213  0.00  0.00    +0.000 A 
ENDBRANCH  10  11
ENDBRANCH   1  10
TORSDOF 2
ENDMDL
MODEL 6
REMARK VINA RESULT:    -5.018     14.479     15.380
REMARK INTER + INTRA:          -5.733
REMARK INTER:                  -5.599
REMARK INTRA:                  -0.134
REMARK UNBOUND:                -0.128
REMARK  Name = 1550473
REMARK  2 active torsions:
REMARK  status: ('A' for Active; 'I' for Inactive)
REMARK    1  A    between atoms: N_1  and  C_4
REMARK    2  A    between atoms: C_4  and  C_5
REMARK                            x       y       z     vdW  Elec       q    Type
REMARK                         _______ _______ _______ _____ _____    ______ ____
ROOT
ATOM      1  N   UNL     1      -4.966 -17.236  -9.144  0.00  0.00    -0.354 N 
ATOM      2  N   UNL     1      -6.827 -18.323  -9.993  0.00  0.00    -0.372 N 
ATOM      3  N   UNL     1      -6.739 -16.032 -10.094  0.00  0.00    -0.372 N 
ATOM      4  C   UNL     1      -6.166 -17.187  -9.738  0.00  0.00    +0.166 C 
ATOM      5  H   UNL     1      -4.600 -18.141  -8.872  0.00  0.00    +0.163 HD
ATOM      6  H   UNL     1      -7.732 -18.318 -10.443  0.00  0.00    +0.159 HD
ATOM      7  H   UNL     1      -6.438 -19.229  -9.761  0.00  0.00    +0.159 HD
ATOM      8  H   UNL     1      -6.294 -15.140  -9.924  0.00  0.00    +0.159 HD
ATOM      9  H   UNL     1      -7.649 -16.006 -10.535  0.00  0.00    +0.159 HD
ENDROOT
BRANCH   1  10
ATOM     10  C   UNL     1      -4.141 -16.061  -8.871  0.00  0.00    +0.151 C 
BRANCH  10  11
ATOM     11  C   UNL     1      -3.645 -16.127  -7.453  0.00  0.00    -0.028 A 
ATOM     12  C   UNL     1      -4.527 -15.930  -6.381  0.00  0.00    +0.005 A 
ATOM     13  C   UNL     1      -2.295 -16.393  -7.175  0.00  0.00    +0.005 A 
ATOM     14  C   UNL     1      -4.073 -16.022  -5.063  0.00  0.00    +0.000 A 
ATOM     15  C   UNL     1      -1.846 -16.483  -5.858  0.00  0.00    +0.000 A 
ATOM     16  C   UNL     1      -2.735 -16.299  -4.802  0.00  0.00    +0.000 A 
ENDBRANCH  10  11
ENDBRANCH   1  10
TORSDOF 2
ENDMDL
MODEL 7
REMARK VINA RESULT:    -5.013     23.402     25.065
REMARK INTER + INTRA:          -5.727
REMARK INTER:                  -5.564
REMARK INTRA:                  -0.163
REMARK UNBOUND:                -0.128
REMARK  Name = 1550473
REMARK  2 active torsions:
REMARK  status: ('A' for Active; 'I' for Inactive)
REMARK    1  A    between atoms: N_1  and  C_4
REMARK    2  A    between atoms: C_4  and  C_5
REMARK                            x       y       z     vdW  Elec       q    Type
REMARK                         _______ _______ _______ _____ _____    ______ ____
ROOT
ATOM      1  N   UNL     1     -11.546  -0.264  13.220  0.00  0.00    -0.354 N 
ATOM      2  N   UNL     1     -12.063   0.653  15.283  0.00  0.00    -0.372 N 
ATOM      3  N   UNL     1     -12.453   1.890  13.391  0.00  0.00    -0.372 N 
ATOM      4  C   UNL     1     -12.018   0.756  13.950  0.00  0.00    +0.166 C 
ATOM      5  H   UNL     1     -11.203  -1.084  13.706  0.00  0.00    +0.163 HD
ATOM      6  H   UNL     1     -12.417   1.405  15.860  0.00  0.00    +0.159 HD
ATOM      7  H   UNL     1     -11.762  -0.186  15.764  0.00  0.00    +0.159 HD
ATOM      8  H   UNL     1     -12.440   2.033  12.390  0.00  0.00    +0.159 HD
ATOM      9  H   UNL     1     -12.800   2.659  13.951  0.00  0.00    +0.159 HD
ENDROOT
BRANCH   1  10
ATOM     10  C   UNL     1     -11.504  -0.273  11.759  0.00  0.00    +0.151 C 
BRANCH  10  11
ATOM     11  C   UNL     1     -10.069  -0.309  11.309  0.00  0.00    -0.028 A 
ATOM     12  C   UNL     1      -9.250   0.820  11.455  0.00  0.00    +0.005 A 
ATOM     13  C   UNL     1      -9.522  -1.470  10.742  0.00  0.00    +0.005 A 
ATOM     14  C   UNL     1      -7.909   0.778  11.065  0.00  0.00    +0.000 A 
ATOM     15  C   UNL     1      -8.183  -1.507  10.353  0.00  0.00    +0.000 A 
ATOM     16  C   UNL     1      -7.376  -0.384  10.517  0.00  0.00    +0.000 A 
ENDBRANCH  10  11
ENDBRANCH   1  10
TORSDOF 2
ENDMDL
MODEL 8
REMARK VINA RESULT:    -4.846     12.647     13.503
REMARK INTER + INTRA:          -5.541
REMARK INTER:                  -5.376
REMARK INTRA:                  -0.165
REMARK UNBOUND:                -0.128
REMARK  Name = 1550473
REMARK  2 active torsions:
REMARK  status: ('A' for Active; 'I' for Inactive)
REMARK    1  A    between atoms: N_1  and  C_4
REMARK    2  A    between atoms: C_4  and  C_5
REMARK                            x       y       z     vdW  Elec       q    Type
REMARK                         _______ _______ _______ _____ _____    ______ ____
ROOT
ATOM      1  N   UNL     1       0.102 -17.496  -6.661  0.00  0.00    -0.354 N 
ATOM      2  N   UNL     1       1.048 -19.583  -6.325  0.00  0.00    -0.372 N 
ATOM      3  N   UNL     1      -0.476 -19.316  -8.019  0.00  0.00    -0.372 N 
ATOM      4  C   UNL     1       0.216 -18.785  -7.006  0.00  0.00    +0.166 C 
ATOM      5  H   UNL     1       0.632 -17.162  -5.864  0.00  0.00    +0.163 HD
ATOM      6  H   UNL     1       1.158 -20.560  -6.565  0.00  0.00    +0.159 HD
ATOM      7  H   UNL     1       1.611 -19.236  -5.558  0.00  0.00    +0.159 HD
ATOM      8  H   UNL     1      -1.125 -18.768  -8.569  0.00  0.00    +0.159 HD
ATOM      9  H   UNL     1      -0.389 -20.293  -8.267  0.00  0.00    +0.159 HD
ENDROOT
BRANCH   1  10
ATOM     10  C   UNL     1      -0.734 -16.530  -7.371  0.00  0.00    +0.151 C 
BRANCH  10  11
ATOM     11  C   UNL     1      -2.010 -16.326  -6.602  0.00  0.00    -0.028 A 
ATOM     12  C   UNL     1      -3.223 -16.124  -7.276  0.00  0.00    +0.005 A 
ATOM     13  C   UNL     1      -2.014 -16.339  -5.199  0.00  0.00    +0.005 A 
ATOM     14  C   UNL     1      -4.414 -15.964  -6.563  0.00  0.00    +0.000 A 
ATOM     15  C   UNL     1      -3.204 -16.178  -4.490  0.00  0.00    +0.000 A 
ATOM     16  C   UNL     1      -4.404 -15.993  -5.172  0.00  0.00    +0.000 A 
ENDBRANCH  10  11
ENDBRANCH   1  10
TORSDOF 2
ENDMDL
MODEL 9
REMARK VINA RESULT:    -4.807     21.626     22.647
REMARK INTER + INTRA:          -5.498
REMARK INTER:                  -5.369
REMARK INTRA:                  -0.129
REMARK UNBOUND:                -0.128
REMARK  Name = 1550473
REMARK  2 active torsions:
REMARK  status: ('A' for Active; 'I' for Inactive)
REMARK    1  A    between atoms: N_1  and  C_4
REMARK    2  A    between atoms: C_4  and  C_5
REMARK                            x       y       z     vdW  Elec       q    Type
REMARK                         _______ _______ _______ _____ _____    ______ ____
ROOT
ATOM      1  N   UNL     1       3.518  14.525   0.466  0.00  0.00    -0.354 N 
ATOM      2  N   UNL     1       5.494  15.453  -0.308  0.00  0.00    -0.372 N 
ATOM      3  N   UNL     1       3.685  16.823   0.034  0.00  0.00    -0.372 N 
ATOM      4  C   UNL     1       4.218  15.597   0.069  0.00  0.00    +0.166 C 
ATOM      5  H   UNL     1       3.971  13.619   0.441  0.00  0.00    +0.163 HD
ATOM      6  H   UNL     1       6.048  16.244  -0.609  0.00  0.00    +0.159 HD
ATOM      7  H   UNL     1       5.957  14.553  -0.289  0.00  0.00    +0.159 HD
ATOM      8  H   UNL     1       2.725  16.997   0.301  0.00  0.00    +0.159 HD
ATOM      9  H   UNL     1       4.219  17.625  -0.275  0.00  0.00    +0.159 HD
ENDROOT
BRANCH   1  10
ATOM     10  C   UNL     1       2.139  14.582   0.948  0.00  0.00    +0.151 C 
BRANCH  10  11
ATOM     11  C   UNL     1       1.905  13.443   1.901  0.00  0.00    -0.028 A 
ATOM     12  C   UNL     1       2.981  12.840   2.568  0.00  0.00    +0.005 A 
ATOM     13  C   UNL     1       0.608  12.966   2.147  0.00  0.00    +0.005 A 
ATOM     14  C   UNL     1       2.761  11.802   3.477  0.00  0.00    +0.000 A 
ATOM     15  C   UNL     1       0.392  11.929   3.054  0.00  0.00    +0.000 A 
ATOM     16  C   UNL     1       1.469  11.349   3.721  0.00  0.00    +0.000 A 
ENDBRANCH  10  11
ENDBRANCH   1  10
TORSDOF 2
ENDMDL
