MODEL 1
REMARK VINA RESULT:    -5.419      0.000      0.000
REMARK INTER + INTRA:          -6.145
REMARK INTER:                  -6.053
REMARK INTRA:                  -0.092
REMARK UNBOUND:                -0.092
REMARK  Name = 1550473
REMARK  2 active torsions:
REMARK  status: ('A' for Active; 'I' for Inactive)
REMARK    1  A    between atoms: N_1  and  C_4
REMARK    2  A    between atoms: C_4  and  C_5
REMARK                            x       y       z     vdW  Elec       q    Type
REMARK                         _______ _______ _______ _____ _____    ______ ____
ROOT
ATOM      1  N   UNL     1      -0.839 -22.686  -5.551  0.00  0.00    -0.354 N 
ATOM      2  N   UNL     1       1.285 -21.944  -6.099  0.00  0.00    -0.372 N 
ATOM      3  N   UNL     1      -0.532 -20.880  -7.012  0.00  0.00    -0.372 N 
ATOM      4  C   UNL     1      -0.044 -21.840  -6.219  0.00  0.00    +0.166 C 
ATOM      5  H   UNL     1      -0.407 -23.411  -4.990  0.00  0.00    +0.163 HD
ATOM      6  H   UNL     1       1.910 -21.317  -6.588  0.00  0.00    +0.159 HD
ATOM      7  H   UNL     1       1.713 -22.640  -5.501  0.00  0.00    +0.159 HD
ATOM      8  H   UNL     1      -1.525 -20.753  -7.150  0.00  0.00    +0.159 HD
ATOM      9  H   UNL     1       0.078 -20.251  -7.519  0.00  0.00    +0.159 HD
ENDROOT
BRANCH   1  10
ATOM     10  C   UNL     1      -2.300 -22.624  -5.570  0.00  0.00    +0.151 C 
BRANCH  10  11
ATOM     11  C   UNL     1      -2.854 -23.919  -5.044  0.00  0.00    -0.028 A 
ATOM     12  C   UNL     1      -2.969 -24.135  -3.662  0.00  0.00    +0.005 A 
ATOM     13  C   UNL     1      -3.271 -24.932  -5.920  0.00  0.00    +0.005 A 
ATOM     14  C   UNL     1      -3.511 -25.325  -3.173  0.00  0.00    +0.000 A 
ATOM     15  C   UNL     1      -3.811 -26.120  -5.428  0.00  0.00    +0.000 A 
ATOM     16  C   UNL     1      -3.933 -26.315  -4.054  0.00  0.00    +0.000 A 
ENDBRANCH  10  11
ENDBRANCH   1  10
TORSDOF 2
ENDMDL
MODEL 2
REMARK VINA RESULT:    -5.014     18.063     19.605
REMARK INTER + INTRA:          -5.693
REMARK INTER:                  -5.575
REMARK INTRA:                  -0.118
REMARK UNBOUND:                -0.092
REMARK  Name = 1550473
REMARK  2 active torsions:
REMARK  status: ('A' for Active; 'I' for Inactive)
REMARK    1  A    between atoms: N_1  and  C_4
REMARK    2  A    between atoms: C_4  and  C_5
REMARK                            x       y       z     vdW  Elec       q    Type
REMARK                         _______ _______ _______ _____ _____    ______ ____
ROOT
ATOM      1  N   UNL     1      14.311 -27.800   1.430  0.00  0.00    -0.354 N 
ATOM      2  N   UNL     1      12.724 -29.454   1.766  0.00  0.00    -0.372 N 
ATOM      3  N   UNL     1      14.477 -29.871   0.345  0.00  0.00    -0.372 N 
ATOM      4  C   UNL     1      13.849 -29.032   1.176  0.00  0.00    +0.166 C 
ATOM      5  H   UNL     1      13.773 -27.202   2.047  0.00  0.00    +0.163 HD
ATOM      6  H   UNL     1      12.353 -30.379   1.596  0.00  0.00    +0.159 HD
ATOM      7  H   UNL     1      12.213 -28.870   2.417  0.00  0.00    +0.159 HD
ATOM      8  H   UNL     1      15.327 -29.611  -0.137  0.00  0.00    +0.159 HD
ATOM      9  H   UNL     1      14.115 -30.797   0.153  0.00  0.00    +0.159 HD
ENDROOT
BRANCH   1  10
ATOM     10  C   UNL     1      15.555 -27.264   0.881  0.00  0.00    +0.151 C 
BRANCH  10  11
ATOM     11  C   UNL     1      15.922 -26.011   1.628  0.00  0.00    -0.028 A 
ATOM     12  C   UNL     1      14.932 -25.240   2.254  0.00  0.00    +0.005 A 
ATOM     13  C   UNL     1      17.258 -25.593   1.717  0.00  0.00    +0.005 A 
ATOM     14  C   UNL     1      15.275 -24.093   2.973  0.00  0.00    +0.000 A 
ATOM     15  C   UNL     1      17.597 -24.446   2.435  0.00  0.00    +0.000 A 
ATOM     16  C   UNL     1      16.606 -23.698   3.065  0.00  0.00    +0.000 A 
ENDBRANCH  10  11
ENDBRANCH   1  10
TORSDOF 2
ENDMDL
MODEL 3
REMARK VINA RESULT:    -5.004      1.620      2.386
REMARK INTER + INTRA:          -5.681
REMARK INTER:                  -5.536
REMARK INTRA:                  -0.145
REMARK UNBOUND:                -0.092
REMARK  Name = 1550473
REMARK  2 active torsions:
REMARK  status: ('A' for Active; 'I' for Inactive)
REMARK    1  A    between atoms: N_1  and  C_4
REMARK    2  A    between atoms: C_4  and  C_5
REMARK                            x       y       z     vdW  Elec       q    Type
REMARK                         _______ _______ _______ _____ _____    ______ ____
ROOT
ATOM      1  N   UNL     1      -1.700 -23.326  -5.122  0.00  0.00    -0.354 N 
ATOM      2  N   UNL     1      -1.066 -21.620  -6.554  0.00  0.00    -0.372 N 
ATOM      3  N   UNL     1      -3.231 -21.685  -5.796  0.00  0.00    -0.372 N 
ATOM      4  C   UNL     1      -2.006 -22.221  -5.814  0.00  0.00    +0.166 C 
ATOM      5  H   UNL     1      -0.761 -23.699  -5.202  0.00  0.00    +0.163 HD
ATOM      6  H   UNL     1      -1.266 -20.782  -7.084  0.00  0.00    +0.159 HD
ATOM      7  H   UNL     1      -0.116 -21.969  -6.595  0.00  0.00    +0.159 HD
ATOM      8  H   UNL     1      -3.986 -22.094  -5.263  0.00  0.00    +0.159 HD
ATOM      9  H   UNL     1      -3.454 -20.854  -6.330  0.00  0.00    +0.159 HD
ENDROOT
BRANCH   1  10
ATOM     10  C   UNL     1      -2.636 -24.026  -4.244  0.00  0.00    +0.151 C 
BRANCH  10  11
ATOM     11  C   UNL     1      -2.754 -25.457  -4.692  0.00  0.00    -0.028 A 
ATOM     12  C   UNL     1      -1.707 -26.071  -5.394  0.00  0.00    +0.005 A 
ATOM     13  C   UNL     1      -3.908 -26.205  -4.413  0.00  0.00    +0.005 A 
ATOM     14  C   UNL     1      -1.803 -27.409  -5.785  0.00  0.00    +0.000 A 
ATOM     15  C   UNL     1      -4.001 -27.540  -4.805  0.00  0.00    +0.000 A 
ATOM     16  C   UNL     1      -2.947 -28.142  -5.489  0.00  0.00    +0.000 A 
ENDBRANCH  10  11
ENDBRANCH   1  10
TORSDOF 2
ENDMDL
MODEL 4
REMARK VINA RESULT:    -4.960      4.244      5.854
REMARK INTER + INTRA:          -5.633
REMARK INTER:                  -5.516
REMARK INTRA:                  -0.117
REMARK UNBOUND:                -0.092
REMARK  Name = 1550473
REMARK  2 active torsions:
REMARK  status: ('A' for Active; 'I' for Inactive)
REMARK    1  A    between atoms: N_1  and  C_4
REMARK    2  A    between atoms: C_4  and  C_5
REMARK                            x       y       z     vdW  Elec       q    Type
REMARK                         _______ _______ _______ _____ _____    ______ ____
ROOT
ATOM      1  N   UNL     1      -4.485 -27.877  -6.355  0.00  0.00    -0.354 N 
ATOM      2  N   UNL     1      -6.015 -28.455  -7.995  0.00  0.00    -0.372 N 
ATOM      3  N   UNL     1      -6.306 -29.271  -5.870  0.00  0.00    -0.372 N 
ATOM      4  C   UNL     1      -5.593 -28.532  -6.727  0.00  0.00    +0.166 C 
ATOM      5  H   UNL     1      -3.973 -27.359  -7.059  0.00  0.00    +0.163 HD
ATOM      6  H   UNL     1      -6.849 -28.936  -8.304  0.00  0.00    +0.159 HD
ATOM      7  H   UNL     1      -5.526 -27.899  -8.686  0.00  0.00    +0.159 HD
ATOM      8  H   UNL     1      -6.037 -29.375  -4.901  0.00  0.00    +0.159 HD
ATOM      9  H   UNL     1      -7.137 -29.769  -6.163  0.00  0.00    +0.159 HD
ENDROOT
BRANCH   1  10
ATOM     10  C   UNL     1      -3.971 -27.852  -4.987  0.00  0.00    +0.151 C 
BRANCH  10  11
ATOM     11  C   UNL     1      -3.477 -26.467  -4.673  0.00  0.00    -0.028 A 
ATOM     12  C   UNL     1      -3.784 -25.862  -3.446  0.00  0.00    +0.005 A 
ATOM     13  C   UNL     1      -2.695 -25.756  -5.597  0.00  0.00    +0.005 A 
ATOM     14  C   UNL     1      -3.300 -24.587  -3.142  0.00  0.00    +0.000 A 
ATOM     15  C   UNL     1      -2.215 -24.483  -5.290  0.00  0.00    +0.000 A 
ATOM     16  C   UNL     1      -2.515 -23.900  -4.062  0.00  0.00    +0.000 A 
ENDBRANCH  10  11
ENDBRANCH   1  10
TORSDOF 2
ENDMDL
MODEL 5
REMARK VINA RESULT:    -4.913     18.589     19.885
REMARK INTER + INTRA:          -5.580
REMARK INTER:                  -5.441
REMARK INTRA:                  -0.139
REMARK UNBOUND:                -0.092
REMARK  Name = 1550473
REMARK  2 active torsions:
REMARK  status: ('A' for Active; 'I' for Inactive)
REMARK    1  A    between atoms: N_1  and  C_4
REMARK    2  A    between atoms: C_4  and  C_5
REMARK                            x       y       z     vdW  Elec       q    Type
REMARK                         _______ _______ _______ _____ _____    ______ ____
ROOT
ATOM      1  N   UNL     1      15.318 -28.700   0.646  0.00  0.00    -0.354 N 
ATOM      2  N   UNL     1      15.922 -30.927   0.446  0.00  0.00    -0.372 N 
ATOM      3  N   UNL     1      14.170 -30.373   1.819  0.00  0.00    -0.372 N 
ATOM      4  C   UNL     1      15.131 -29.986   0.974  0.00  0.00    +0.166 C 
ATOM      5  H   UNL     1      16.084 -28.469   0.023  0.00  0.00    +0.163 HD
ATOM      6  H   UNL     1      15.803 -31.905   0.672  0.00  0.00    +0.159 HD
ATOM      7  H   UNL     1      16.657 -30.698  -0.212  0.00  0.00    +0.159 HD
ATOM      8  H   UNL     1      13.543 -29.710   2.256  0.00  0.00    +0.159 HD
ATOM      9  H   UNL     1      14.042 -31.346   2.067  0.00  0.00    +0.159 HD
ENDROOT
BRANCH   1  10
ATOM     10  C   UNL     1      14.477 -27.604   1.123  0.00  0.00    +0.151 C 
BRANCH  10  11
ATOM     11  C   UNL     1      15.357 -26.472   1.577  0.00  0.00    -0.028 A 
ATOM     12  C   UNL     1      16.722 -26.458   1.255  0.00  0.00    +0.005 A 
ATOM     13  C   UNL     1      14.831 -25.407   2.325  0.00  0.00    +0.005 A 
ATOM     14  C   UNL     1      17.534 -25.392   1.651  0.00  0.00    +0.000 A 
ATOM     15  C   UNL     1      15.644 -24.345   2.719  0.00  0.00    +0.000 A 
ATOM     16  C   UNL     1      16.995 -24.336   2.380  0.00  0.00    +0.000 A 
ENDBRANCH  10  11
ENDBRANCH   1  10
TORSDOF 2
ENDMDL
MODEL 6
REMARK VINA RESULT:    -4.861      2.896      4.619
REMARK INTER + INTRA:          -5.522
REMARK INTER:                  -5.348
REMARK INTRA:                  -0.174
REMARK UNBOUND:                -0.092
REMARK  Name = 1550473
REMARK  2 active torsions:
REMARK  status: ('A' for Active; 'I' for Inactive)
REMARK    1  A    between atoms: N_1  and  C_4
REMARK    2  A    between atoms: C_4  and  C_5
REMARK                            x       y       z     vdW  Elec       q    Type
REMARK                         _______ _______ _______ _____ _____    ______ ____
ROOT
ATOM      1  N   UNL     1      -2.772 -24.235  -3.493  0.00  0.00    -0.354 N 
ATOM      2  N   UNL     1      -4.033 -24.809  -1.637  0.00  0.00    -0.372 N 
ATOM      3  N   UNL     1      -3.959 -26.254  -3.418  0.00  0.00    -0.372 N 
ATOM      4  C   UNL     1      -3.580 -25.098  -2.863  0.00  0.00    +0.166 C 
ATOM      5  H   UNL     1      -2.547 -23.362  -3.031  0.00  0.00    +0.163 HD
ATOM      6  H   UNL     1      -4.642 -25.443  -1.136  0.00  0.00    +0.159 HD
ATOM      7  H   UNL     1      -3.769 -23.957  -1.159  0.00  0.00    +0.159 HD
ATOM      8  H   UNL     1      -3.657 -26.528  -4.344  0.00  0.00    +0.159 HD
ATOM      9  H   UNL     1      -4.577 -26.896  -2.937  0.00  0.00    +0.159 HD
ENDROOT
BRANCH   1  10
ATOM     10  C   UNL     1      -2.181 -24.478  -4.808  0.00  0.00    +0.151 C 
BRANCH  10  11
ATOM     11  C   UNL     1      -3.034 -23.822  -5.858  0.00  0.00    -0.028 A 
ATOM     12  C   UNL     1      -3.084 -22.424  -5.963  0.00  0.00    +0.005 A 
ATOM     13  C   UNL     1      -3.789 -24.592  -6.756  0.00  0.00    +0.005 A 
ATOM     14  C   UNL     1      -3.852 -21.814  -6.958  0.00  0.00    +0.000 A 
ATOM     15  C   UNL     1      -4.555 -23.980  -7.748  0.00  0.00    +0.000 A 
ATOM     16  C   UNL     1      -4.585 -22.591  -7.850  0.00  0.00    +0.000 A 
ENDBRANCH  10  11
ENDBRANCH   1  10
TORSDOF 2
ENDMDL
MODEL 7
REMARK VINA RESULT:    -4.837     13.644     15.118
REMARK INTER + INTRA:          -5.494
REMARK INTER:                  -5.345
REMARK INTRA:                  -0.150
REMARK UNBOUND:                -0.092
REMARK  Name = 1550473
REMARK  2 active torsions:
REMARK  status: ('A' for Active; 'I' for Inactive)
REMARK    1  A    between atoms: N_1  and  C_4
REMARK    2  A    between atoms: C_4  and  C_5
REMARK                            x       y       z     vdW  Elec       q    Type
REMARK                         _______ _______ _______ _____ _____    ______ ____
ROOT
ATOM      1  N   UNL     1       8.320 -11.430  -2.466  0.00  0.00    -0.354 N 
ATOM      2  N   UNL     1      10.520 -12.120  -2.682  0.00  0.00    -0.372 N 
ATOM      3  N   UNL     1       9.103 -13.335  -1.348  0.00  0.00    -0.372 N 
ATOM      4  C   UNL     1       9.299 -12.292  -2.162  0.00  0.00    +0.166 C 
ATOM      5  H   UNL     1       8.540 -10.643  -3.065  0.00  0.00    +0.163 HD
ATOM      6  H   UNL     1      11.278 -12.756  -2.474  0.00  0.00    +0.159 HD
ATOM      7  H   UNL     1      10.726 -11.358  -3.317  0.00  0.00    +0.159 HD
ATOM      8  H   UNL     1       8.206 -13.517  -0.918  0.00  0.00    +0.159 HD
ATOM      9  H   UNL     1       9.852 -13.976  -1.118  0.00  0.00    +0.159 HD
ENDROOT
BRANCH   1  10
ATOM     10  C   UNL     1       6.942 -11.558  -1.996  0.00  0.00    +0.151 C 
BRANCH  10  11
ATOM     11  C   UNL     1       6.038 -11.777  -3.177  0.00  0.00    -0.028 A 
ATOM     12  C   UNL     1       6.356 -11.228  -4.428  0.00  0.00    +0.005 A 
ATOM     13  C   UNL     1       4.864 -12.537  -3.054  0.00  0.00    +0.005 A 
ATOM     14  C   UNL     1       5.532 -11.456  -5.533  0.00  0.00    +0.000 A 
ATOM     15  C   UNL     1       4.044 -12.761  -4.159  0.00  0.00    +0.000 A 
ATOM     16  C   UNL     1       4.379 -12.223  -5.399  0.00  0.00    +0.000 A 
ENDBRANCH  10  11
ENDBRANCH   1  10
TORSDOF 2
ENDMDL
MODEL 8
REMARK VINA RESULT:    -4.633      3.304      4.495
REMARK INTER + INTRA:          -5.267
REMARK INTER:                  -5.092
REMARK INTRA:                  -0.175
REMARK UNBOUND:                -0.092
REMARK  Name = 1550473
REMARK  2 active torsions:
REMARK  status: ('A' for Active; 'I' for Inactive)
REMARK    1  A    between atoms: N_1  and  C_4
REMARK    2  A    between atoms: C_4  and  C_5
REMARK                            x       y       z     vdW  Elec       q    Type
REMARK                         _______ _______ _______ _____ _____    ______ ____
ROOT
ATOM      1  N   UNL     1      -2.315 -26.804  -7.499  0.00  0.00    -0.354 N 
ATOM      2  N   UNL     1      -0.433 -28.048  -8.023  0.00  0.00    -0.372 N 
ATOM      3  N   UNL     1      -2.033 -28.975  -6.663  0.00  0.00    -0.372 N 
ATOM      4  C   UNL     1      -1.607 -27.936  -7.390  0.00  0.00    +0.166 C 
ATOM      5  H   UNL     1      -1.923 -26.042  -8.040  0.00  0.00    +0.163 HD
ATOM      6  H   UNL     1       0.122 -28.892  -7.961  0.00  0.00    +0.159 HD
ATOM      7  H   UNL     1      -0.066 -27.302  -8.600  0.00  0.00    +0.159 HD
ATOM      8  H   UNL     1      -2.907 -28.952  -6.156  0.00  0.00    +0.159 HD
ATOM      9  H   UNL     1      -1.486 -29.823  -6.580  0.00  0.00    +0.159 HD
ENDROOT
BRANCH   1  10
ATOM     10  C   UNL     1      -3.630 -26.600  -6.894  0.00  0.00    +0.151 C 
BRANCH  10  11
ATOM     11  C   UNL     1      -3.463 -25.867  -5.591  0.00  0.00    -0.028 A 
ATOM     12  C   UNL     1      -2.820 -24.621  -5.553  0.00  0.00    +0.005 A 
ATOM     13  C   UNL     1      -3.950 -26.410  -4.393  0.00  0.00    +0.005 A 
ATOM     14  C   UNL     1      -2.691 -23.925  -4.349  0.00  0.00    +0.000 A 
ATOM     15  C   UNL     1      -3.818 -25.713  -3.192  0.00  0.00    +0.000 A 
ATOM     16  C   UNL     1      -3.191 -24.470  -3.171  0.00  0.00    +0.000 A 
ENDBRANCH  10  11
ENDBRANCH   1  10
TORSDOF 2
ENDMDL
MODEL 9
REMARK VINA RESULT:    -4.609     18.607     19.853
REMARK INTER + INTRA:          -5.240
REMARK INTER:                  -5.086
REMARK INTRA:                  -0.154
REMARK UNBOUND:                -0.092
REMARK  Name = 1550473
REMARK  2 active torsions:
REMARK  status: ('A' for Active; 'I' for Inactive)
REMARK    1  A    between atoms: N_1  and  C_4
REMARK    2  A    between atoms: C_4  and  C_5
REMARK                            x       y       z     vdW  Elec       q    Type
REMARK                         _______ _______ _______ _____ _____    ______ ____
ROOT
ATOM      1  N   UNL     1      14.166 -24.519   4.739  0.00  0.00    -0.354 N 
ATOM      2  N   UNL     1      14.287 -23.670   6.890  0.00  0.00    -0.372 N 
ATOM      3  N   UNL     1      13.953 -22.220   5.143  0.00  0.00    -0.372 N 
ATOM      4  C   UNL     1      14.134 -23.473   5.575  0.00  0.00    +0.166 C 
ATOM      5  H   UNL     1      14.337 -25.439   5.126  0.00  0.00    +0.163 HD
ATOM      6  H   UNL     1      14.264 -22.900   7.546  0.00  0.00    +0.159 HD
ATOM      7  H   UNL     1      14.412 -24.597   7.279  0.00  0.00    +0.159 HD
ATOM      8  H   UNL     1      13.837 -22.003   4.162  0.00  0.00    +0.159 HD
ATOM      9  H   UNL     1      13.939 -21.436   5.783  0.00  0.00    +0.159 HD
ENDROOT
BRANCH   1  10
ATOM     10  C   UNL     1      13.956 -24.418   3.295  0.00  0.00    +0.151 C 
BRANCH  10  11
ATOM     11  C   UNL     1      15.173 -24.942   2.585  0.00  0.00    -0.028 A 
ATOM     12  C   UNL     1      15.080 -26.060   1.743  0.00  0.00    +0.005 A 
ATOM     13  C   UNL     1      16.422 -24.321   2.744  0.00  0.00    +0.005 A 
ATOM     14  C   UNL     1      16.204 -26.529   1.059  0.00  0.00    +0.000 A 
ATOM     15  C   UNL     1      17.542 -24.793   2.060  0.00  0.00    +0.000 A 
ATOM     16  C   UNL     1      17.432 -25.895   1.216  0.00  0.00    +0.000 A 
ENDBRANCH  10  11
ENDBRANCH   1  10
TORSDOF 2
ENDMDL
