MODEL 1
REMARK VINA RESULT:    -4.910      0.000      0.000
REMARK INTER + INTRA:          -5.666
REMARK INTER:                  -5.484
REMARK INTRA:                  -0.182
REMARK UNBOUND:                -0.182
REMARK  Name = 1550473
REMARK  2 active torsions:
REMARK  status: ('A' for Active; 'I' for Inactive)
REMARK    1  A    between atoms: N_1  and  C_4
REMARK    2  A    between atoms: C_4  and  C_5
REMARK                            x       y       z     vdW  Elec       q    Type
REMARK                         _______ _______ _______ _____ _____    ______ ____
ROOT
ATOM      1  N   UNL     1     -13.869   7.110 -16.340  0.00  0.00    -0.354 N 
ATOM      2  N   UNL     1     -14.182   9.361 -15.894  0.00  0.00    -0.372 N 
ATOM      3  N   UNL     1     -15.356   7.814 -14.672  0.00  0.00    -0.372 N 
ATOM      4  C   UNL     1     -14.469   8.079 -15.636  0.00  0.00    +0.166 C 
ATOM      5  H   UNL     1     -13.228   7.377 -17.079  0.00  0.00    +0.163 HD
ATOM      6  H   UNL     1     -14.616  10.113 -15.377  0.00  0.00    +0.159 HD
ATOM      7  H   UNL     1     -13.507   9.624 -16.601  0.00  0.00    +0.159 HD
ATOM      8  H   UNL     1     -15.620   6.868 -14.433  0.00  0.00    +0.159 HD
ATOM      9  H   UNL     1     -15.810   8.554 -14.151  0.00  0.00    +0.159 HD
ENDROOT
BRANCH   1  10
ATOM     10  C   UNL     1     -14.071   5.682 -16.102  0.00  0.00    +0.151 C 
BRANCH  10  11
ATOM     11  C   UNL     1     -15.022   5.141 -17.135  0.00  0.00    -0.028 A 
ATOM     12  C   UNL     1     -16.318   4.746 -16.772  0.00  0.00    +0.005 A 
ATOM     13  C   UNL     1     -14.635   5.028 -18.479  0.00  0.00    +0.005 A 
ATOM     14  C   UNL     1     -17.211   4.273 -17.735  0.00  0.00    +0.000 A 
ATOM     15  C   UNL     1     -15.530   4.554 -19.438  0.00  0.00    +0.000 A 
ATOM     16  C   UNL     1     -16.818   4.178 -19.066  0.00  0.00    +0.000 A 
ENDBRANCH  10  11
ENDBRANCH   1  10
TORSDOF 2
ENDMDL
MODEL 2
REMARK VINA RESULT:    -4.745     37.098     38.690
REMARK INTER + INTRA:          -5.481
REMARK INTER:                  -5.350
REMARK INTRA:                  -0.131
REMARK UNBOUND:                -0.182
REMARK  Name = 1550473
REMARK  2 active torsions:
REMARK  status: ('A' for Active; 'I' for Inactive)
REMARK    1  A    between atoms: N_1  and  C_4
REMARK    2  A    between atoms: C_4  and  C_5
REMARK                            x       y       z     vdW  Elec       q    Type
REMARK                         _______ _______ _______ _____ _____    ______ ____
ROOT
ATOM      1  N   UNL     1       7.168  -2.338  11.754  0.00  0.00    -0.354 N 
ATOM      2  N   UNL     1       5.840  -3.167  10.047  0.00  0.00    -0.372 N 
ATOM      3  N   UNL     1       7.336  -4.574  11.071  0.00  0.00    -0.372 N 
ATOM      4  C   UNL     1       6.792  -3.357  10.969  0.00  0.00    +0.166 C 
ATOM      5  H   UNL     1       6.738  -1.432  11.606  0.00  0.00    +0.163 HD
ATOM      6  H   UNL     1       5.533  -3.918   9.443  0.00  0.00    +0.159 HD
ATOM      7  H   UNL     1       5.379  -2.273   9.932  0.00  0.00    +0.159 HD
ATOM      8  H   UNL     1       8.063  -4.780  11.743  0.00  0.00    +0.159 HD
ATOM      9  H   UNL     1       7.051  -5.334  10.468  0.00  0.00    +0.159 HD
ENDROOT
BRANCH   1  10
ATOM     10  C   UNL     1       8.156  -2.453  12.824  0.00  0.00    +0.151 C 
BRANCH  10  11
ATOM     11  C   UNL     1       8.842  -1.126  13.003  0.00  0.00    -0.028 A 
ATOM     12  C   UNL     1       9.680  -0.901  14.106  0.00  0.00    +0.005 A 
ATOM     13  C   UNL     1       8.664  -0.093  12.071  0.00  0.00    +0.005 A 
ATOM     14  C   UNL     1      10.341   0.320  14.257  0.00  0.00    +0.000 A 
ATOM     15  C   UNL     1       9.325   1.125  12.225  0.00  0.00    +0.000 A 
ATOM     16  C   UNL     1      10.165   1.331  13.317  0.00  0.00    +0.000 A 
ENDBRANCH  10  11
ENDBRANCH   1  10
TORSDOF 2
ENDMDL
MODEL 3
REMARK VINA RESULT:    -4.568     22.315     23.342
REMARK INTER + INTRA:          -5.284
REMARK INTER:                  -5.103
REMARK INTRA:                  -0.181
REMARK UNBOUND:                -0.182
REMARK  Name = 1550473
REMARK  2 active torsions:
REMARK  status: ('A' for Active; 'I' for Inactive)
REMARK    1  A    between atoms: N_1  and  C_4
REMARK    2  A    between atoms: C_4  and  C_5
REMARK                            x       y       z     vdW  Elec       q    Type
REMARK                         _______ _______ _______ _____ _____    ______ ____
ROOT
ATOM      1  N   UNL     1       1.167 -11.649 -11.860  0.00  0.00    -0.354 N 
ATOM      2  N   UNL     1       0.794 -13.892 -11.420  0.00  0.00    -0.372 N 
ATOM      3  N   UNL     1       1.533 -13.279 -13.504  0.00  0.00    -0.372 N 
ATOM      4  C   UNL     1       1.168 -12.925 -12.267  0.00  0.00    +0.166 C 
ATOM      5  H   UNL     1       0.850 -11.444 -10.920  0.00  0.00    +0.163 HD
ATOM      6  H   UNL     1       0.788 -14.864 -11.697  0.00  0.00    +0.159 HD
ATOM      7  H   UNL     1       0.522 -13.688 -10.466  0.00  0.00    +0.159 HD
ATOM      8  H   UNL     1       1.820 -12.597 -14.193  0.00  0.00    +0.159 HD
ATOM      9  H   UNL     1       1.523 -14.246 -13.804  0.00  0.00    +0.159 HD
ENDROOT
BRANCH   1  10
ATOM     10  C   UNL     1       1.607 -10.527 -12.688  0.00  0.00    +0.151 C 
BRANCH  10  11
ATOM     11  C   UNL     1       0.400  -9.784 -13.190  0.00  0.00    -0.028 A 
ATOM     12  C   UNL     1       0.016  -9.877 -14.536  0.00  0.00    +0.005 A 
ATOM     13  C   UNL     1      -0.368  -8.990 -12.324  0.00  0.00    +0.005 A 
ATOM     14  C   UNL     1      -1.122  -9.211 -14.997  0.00  0.00    +0.000 A 
ATOM     15  C   UNL     1      -1.503  -8.326 -12.788  0.00  0.00    +0.000 A 
ATOM     16  C   UNL     1      -1.881  -8.439 -14.124  0.00  0.00    +0.000 A 
ENDBRANCH  10  11
ENDBRANCH   1  10
TORSDOF 2
ENDMDL
MODEL 4
REMARK VINA RESULT:    -4.359     39.981     41.458
REMARK INTER + INTRA:          -5.050
REMARK INTER:                  -4.937
REMARK INTRA:                  -0.114
REMARK UNBOUND:                -0.182
REMARK  Name = 1550473
REMARK  2 active torsions:
REMARK  status: ('A' for Active; 'I' for Inactive)
REMARK    1  A    between atoms: N_1  and  C_4
REMARK    2  A    between atoms: C_4  and  C_5
REMARK                            x       y       z     vdW  Elec       q    Type
REMARK                         _______ _______ _______ _____ _____    ______ ____
ROOT
ATOM      1  N   UNL     1       9.993  -0.968  16.702  0.00  0.00    -0.354 N 
ATOM      2  N   UNL     1       9.521  -1.978  18.733  0.00  0.00    -0.372 N 
ATOM      3  N   UNL     1      11.708  -1.541  18.193  0.00  0.00    -0.372 N 
ATOM      4  C   UNL     1      10.413  -1.489  17.863  0.00  0.00    +0.166 C 
ATOM      5  H   UNL     1       9.000  -0.986  16.498  0.00  0.00    +0.163 HD
ATOM      6  H   UNL     1       9.808  -2.374  19.618  0.00  0.00    +0.159 HD
ATOM      7  H   UNL     1       8.526  -1.952  18.546  0.00  0.00    +0.159 HD
ATOM      8  H   UNL     1      12.432  -1.194  17.578  0.00  0.00    +0.159 HD
ATOM      9  H   UNL     1      12.016  -1.944  19.069  0.00  0.00    +0.159 HD
ENDROOT
BRANCH   1  10
ATOM     10  C   UNL     1      10.878  -0.361  15.710  0.00  0.00    +0.151 C 
BRANCH  10  11
ATOM     11  C   UNL     1      10.118  -0.165  14.428  0.00  0.00    -0.028 A 
ATOM     12  C   UNL     1      10.269   1.014  13.684  0.00  0.00    +0.005 A 
ATOM     13  C   UNL     1       9.249  -1.157  13.949  0.00  0.00    +0.005 A 
ATOM     14  C   UNL     1       9.585   1.184  12.477  0.00  0.00    +0.000 A 
ATOM     15  C   UNL     1       8.567  -0.983  12.744  0.00  0.00    +0.000 A 
ATOM     16  C   UNL     1       8.738   0.187  12.007  0.00  0.00    +0.000 A 
ENDBRANCH  10  11
ENDBRANCH   1  10
TORSDOF 2
ENDMDL
MODEL 5
REMARK VINA RESULT:    -4.186     14.607     15.377
REMARK INTER + INTRA:          -4.857
REMARK INTER:                  -4.723
REMARK INTRA:                  -0.134
REMARK UNBOUND:                -0.182
REMARK  Name = 1550473
REMARK  2 active torsions:
REMARK  status: ('A' for Active; 'I' for Inactive)
REMARK    1  A    between atoms: N_1  and  C_4
REMARK    2  A    between atoms: C_4  and  C_5
REMARK                            x       y       z     vdW  Elec       q    Type
REMARK                         _______ _______ _______ _____ _____    ______ ____
ROOT
ATOM      1  N   UNL     1     -11.525  -6.417  -6.709  0.00  0.00    -0.354 N 
ATOM      2  N   UNL     1     -11.150  -8.566  -5.931  0.00  0.00    -0.372 N 
ATOM      3  N   UNL     1     -12.687  -7.249  -4.852  0.00  0.00    -0.372 N 
ATOM      4  C   UNL     1     -11.791  -7.396  -5.834  0.00  0.00    +0.166 C 
ATOM      5  H   UNL     1     -10.813  -6.581  -7.412  0.00  0.00    +0.163 HD
ATOM      6  H   UNL     1     -11.332  -9.324  -5.287  0.00  0.00    +0.159 HD
ATOM      7  H   UNL     1     -10.472  -8.743  -6.663  0.00  0.00    +0.159 HD
ATOM      8  H   UNL     1     -13.201  -6.388  -4.720  0.00  0.00    +0.159 HD
ATOM      9  H   UNL     1     -12.875  -7.991  -4.190  0.00  0.00    +0.159 HD
ENDROOT
BRANCH   1  10
ATOM     10  C   UNL     1     -12.207  -5.124  -6.723  0.00  0.00    +0.151 C 
BRANCH  10  11
ATOM     11  C   UNL     1     -12.429  -4.702  -8.149  0.00  0.00    -0.028 A 
ATOM     12  C   UNL     1     -12.533  -5.660  -9.168  0.00  0.00    +0.005 A 
ATOM     13  C   UNL     1     -12.542  -3.344  -8.487  0.00  0.00    +0.005 A 
ATOM     14  C   UNL     1     -12.769  -5.269 -10.488  0.00  0.00    +0.000 A 
ATOM     15  C   UNL     1     -12.777  -2.958  -9.807  0.00  0.00    +0.000 A 
ATOM     16  C   UNL     1     -12.893  -3.921 -10.806  0.00  0.00    +0.000 A 
ENDBRANCH  10  11
ENDBRANCH   1  10
TORSDOF 2
ENDMDL
MODEL 6
REMARK VINA RESULT:    -4.130     36.010     37.344
REMARK INTER + INTRA:          -4.795
REMARK INTER:                  -4.662
REMARK INTRA:                  -0.133
REMARK UNBOUND:                -0.182
REMARK  Name = 1550473
REMARK  2 active torsions:
REMARK  status: ('A' for Active; 'I' for Inactive)
REMARK    1  A    between atoms: N_1  and  C_4
REMARK    2  A    between atoms: C_4  and  C_5
REMARK                            x       y       z     vdW  Elec       q    Type
REMARK                         _______ _______ _______ _____ _____    ______ ____
ROOT
ATOM      1  N   UNL     1       7.407  -6.897  10.072  0.00  0.00    -0.354 N 
ATOM      2  N   UNL     1       8.877  -8.686  10.028  0.00  0.00    -0.372 N 
ATOM      3  N   UNL     1       7.888  -8.016   8.070  0.00  0.00    -0.372 N 
ATOM      4  C   UNL     1       8.047  -7.854   9.388  0.00  0.00    +0.166 C 
ATOM      5  H   UNL     1       7.548  -6.846  11.074  0.00  0.00    +0.163 HD
ATOM      6  H   UNL     1       9.377  -9.416   9.538  0.00  0.00    +0.159 HD
ATOM      7  H   UNL     1       9.051  -8.604  11.023  0.00  0.00    +0.159 HD
ATOM      8  H   UNL     1       7.271  -7.425   7.529  0.00  0.00    +0.159 HD
ATOM      9  H   UNL     1       8.370  -8.748   7.563  0.00  0.00    +0.159 HD
ENDROOT
BRANCH   1  10
ATOM     10  C   UNL     1       6.523  -5.906   9.460  0.00  0.00    +0.151 C 
BRANCH  10  11
ATOM     11  C   UNL     1       6.658  -4.604  10.200  0.00  0.00    -0.028 A 
ATOM     12  C   UNL     1       7.470  -4.513  11.340  0.00  0.00    +0.005 A 
ATOM     13  C   UNL     1       5.980  -3.456   9.763  0.00  0.00    +0.005 A 
ATOM     14  C   UNL     1       7.619  -3.297  12.010  0.00  0.00    +0.000 A 
ATOM     15  C   UNL     1       6.131  -2.243  10.435  0.00  0.00    +0.000 A 
ATOM     16  C   UNL     1       6.952  -2.163  11.557  0.00  0.00    +0.000 A 
ENDBRANCH  10  11
ENDBRANCH   1  10
TORSDOF 2
ENDMDL
MODEL 7
REMARK VINA RESULT:    -4.121     79.248     80.891
REMARK INTER + INTRA:          -4.785
REMARK INTER:                  -4.607
REMARK INTRA:                  -0.179
REMARK UNBOUND:                -0.182
REMARK  Name = 1550473
REMARK  2 active torsions:
REMARK  status: ('A' for Active; 'I' for Inactive)
REMARK    1  A    between atoms: N_1  and  C_4
REMARK    2  A    between atoms: C_4  and  C_5
REMARK                            x       y       z     vdW  Elec       q    Type
REMARK                         _______ _______ _______ _____ _____    ______ ____
ROOT
ATOM      1  N   UNL     1      29.090   3.595  49.217  0.00  0.00    -0.354 N 
ATOM      2  N   UNL     1      27.868   3.628  47.250  0.00  0.00    -0.372 N 
ATOM      3  N   UNL     1      28.358   5.617  48.285  0.00  0.00    -0.372 N 
ATOM      4  C   UNL     1      28.446   4.283  48.265  0.00  0.00    +0.166 C 
ATOM      5  H   UNL     1      29.095   2.583  49.160  0.00  0.00    +0.163 HD
ATOM      6  H   UNL     1      27.379   4.120  46.515  0.00  0.00    +0.159 HD
ATOM      7  H   UNL     1      27.914   2.620  47.171  0.00  0.00    +0.159 HD
ATOM      8  H   UNL     1      28.768   6.169  49.027  0.00  0.00    +0.159 HD
ATOM      9  H   UNL     1      27.862   6.126  47.565  0.00  0.00    +0.159 HD
ENDROOT
BRANCH   1  10
ATOM     10  C   UNL     1      29.799   4.215  50.335  0.00  0.00    +0.151 C 
BRANCH  10  11
ATOM     11  C   UNL     1      28.985   4.044  51.588  0.00  0.00    -0.028 A 
ATOM     12  C   UNL     1      29.021   2.837  52.302  0.00  0.00    +0.005 A 
ATOM     13  C   UNL     1      28.180   5.088  52.071  0.00  0.00    +0.005 A 
ATOM     14  C   UNL     1      28.289   2.689  53.482  0.00  0.00    +0.000 A 
ATOM     15  C   UNL     1      27.450   4.936  53.249  0.00  0.00    +0.000 A 
ATOM     16  C   UNL     1      27.506   3.737  53.956  0.00  0.00    +0.000 A 
ENDBRANCH  10  11
ENDBRANCH   1  10
TORSDOF 2
ENDMDL
MODEL 8
REMARK VINA RESULT:    -4.038     31.212     32.833
REMARK INTER + INTRA:          -4.692
REMARK INTER:                  -4.542
REMARK INTRA:                  -0.150
REMARK UNBOUND:                -0.182
REMARK  Name = 1550473
REMARK  2 active torsions:
REMARK  status: ('A' for Active; 'I' for Inactive)
REMARK    1  A    between atoms: N_1  and  C_4
REMARK    2  A    between atoms: C_4  and  C_5
REMARK                            x       y       z     vdW  Elec       q    Type
REMARK                         _______ _______ _______ _____ _____    ______ ____
ROOT
ATOM      1  N   UNL     1       0.771  -1.641   8.976  0.00  0.00    -0.354 N 
ATOM      2  N   UNL     1      -0.980  -0.522   7.954  0.00  0.00    -0.372 N 
ATOM      3  N   UNL     1       0.640  -1.481   6.642  0.00  0.00    -0.372 N 
ATOM      4  C   UNL     1       0.156  -1.223   7.861  0.00  0.00    +0.166 C 
ATOM      5  H   UNL     1       0.370  -1.387   9.871  0.00  0.00    +0.163 HD
ATOM      6  H   UNL     1      -1.468  -0.196   7.130  0.00  0.00    +0.159 HD
ATOM      7  H   UNL     1      -1.404  -0.308   8.849  0.00  0.00    +0.159 HD
ATOM      8  H   UNL     1       1.496  -2.000   6.504  0.00  0.00    +0.159 HD
ATOM      9  H   UNL     1       0.172  -1.153   5.806  0.00  0.00    +0.159 HD
ENDROOT
BRANCH   1  10
ATOM     10  C   UNL     1       1.984  -2.457   8.984  0.00  0.00    +0.151 C 
BRANCH  10  11
ATOM     11  C   UNL     1       3.083  -1.696   9.673  0.00  0.00    -0.028 A 
ATOM     12  C   UNL     1       4.418  -2.108   9.553  0.00  0.00    +0.005 A 
ATOM     13  C   UNL     1       2.796  -0.559  10.444  0.00  0.00    +0.005 A 
ATOM     14  C   UNL     1       5.442  -1.384  10.169  0.00  0.00    +0.000 A 
ATOM     15  C   UNL     1       3.821   0.161  11.058  0.00  0.00    +0.000 A 
ATOM     16  C   UNL     1       5.144  -0.251  10.918  0.00  0.00    +0.000 A 
ENDBRANCH  10  11
ENDBRANCH   1  10
TORSDOF 2
ENDMDL
MODEL 9
REMARK VINA RESULT:    -3.832     14.683     15.940
REMARK INTER + INTRA:          -4.462
REMARK INTER:                  -4.295
REMARK INTRA:                  -0.167
REMARK UNBOUND:                -0.182
REMARK  Name = 1550473
REMARK  2 active torsions:
REMARK  status: ('A' for Active; 'I' for Inactive)
REMARK    1  A    between atoms: N_1  and  C_4
REMARK    2  A    between atoms: C_4  and  C_5
REMARK                            x       y       z     vdW  Elec       q    Type
REMARK                         _______ _______ _______ _____ _____    ______ ____
ROOT
ATOM      1  N   UNL     1      -8.118  -6.300 -23.931  0.00  0.00    -0.354 N 
ATOM      2  N   UNL     1      -6.664  -6.028 -25.713  0.00  0.00    -0.372 N 
ATOM      3  N   UNL     1      -6.622  -7.998 -24.537  0.00  0.00    -0.372 N 
ATOM      4  C   UNL     1      -7.143  -6.780 -24.715  0.00  0.00    +0.166 C 
ATOM      5  H   UNL     1      -8.449  -5.356 -24.099  0.00  0.00    +0.163 HD
ATOM      6  H   UNL     1      -5.931  -6.365 -26.323  0.00  0.00    +0.159 HD
ATOM      7  H   UNL     1      -7.029  -5.104 -25.907  0.00  0.00    +0.159 HD
ATOM      8  H   UNL     1      -6.935  -8.613 -23.798  0.00  0.00    +0.159 HD
ATOM      9  H   UNL     1      -5.879  -8.349 -25.130  0.00  0.00    +0.159 HD
ENDROOT
BRANCH   1  10
ATOM     10  C   UNL     1      -8.746  -7.057 -22.850  0.00  0.00    +0.151 C 
BRANCH  10  11
ATOM     11  C   UNL     1      -8.306  -6.487 -21.530  0.00  0.00    -0.028 A 
ATOM     12  C   UNL     1      -9.156  -5.643 -20.800  0.00  0.00    +0.005 A 
ATOM     13  C   UNL     1      -7.042  -6.792 -21.001  0.00  0.00    +0.005 A 
ATOM     14  C   UNL     1      -8.759  -5.138 -19.560  0.00  0.00    +0.000 A 
ATOM     15  C   UNL     1      -6.649  -6.284 -19.763  0.00  0.00    +0.000 A 
ATOM     16  C   UNL     1      -7.509  -5.459 -19.041  0.00  0.00    +0.000 A 
ENDBRANCH  10  11
ENDBRANCH   1  10
TORSDOF 2
ENDMDL
