MODEL 1
REMARK VINA RESULT:    -6.656      0.000      0.000
REMARK INTER + INTRA:          -7.592
REMARK INTER:                  -7.434
REMARK INTRA:                  -0.158
REMARK UNBOUND:                -0.158
REMARK  Name = 1550473
REMARK  2 active torsions:
REMARK  status: ('A' for Active; 'I' for Inactive)
REMARK    1  A    between atoms: N_1  and  C_4
REMARK    2  A    between atoms: C_4  and  C_5
REMARK                            x       y       z     vdW  Elec       q    Type
REMARK                         _______ _______ _______ _____ _____    ______ ____
ROOT
ATOM      1  N   UNL     1       5.013   1.437   1.832  0.00  0.00    -0.354 N 
ATOM      2  N   UNL     1       5.366  -0.596   2.884  0.00  0.00    -0.372 N 
ATOM      3  N   UNL     1       5.839  -0.407   0.647  0.00  0.00    -0.372 N 
ATOM      4  C   UNL     1       5.404   0.157   1.778  0.00  0.00    +0.166 C 
ATOM      5  H   UNL     1       4.665   1.797   2.714  0.00  0.00    +0.163 HD
ATOM      6  H   UNL     1       5.659  -1.564   2.874  0.00  0.00    +0.159 HD
ATOM      7  H   UNL     1       5.061  -0.221   3.774  0.00  0.00    +0.159 HD
ATOM      8  H   UNL     1       5.887   0.105  -0.224  0.00  0.00    +0.159 HD
ATOM      9  H   UNL     1       6.125  -1.378   0.614  0.00  0.00    +0.159 HD
ENDROOT
BRANCH   1  10
ATOM     10  C   UNL     1       5.066   2.357   0.698  0.00  0.00    +0.151 C 
BRANCH  10  11
ATOM     11  C   UNL     1       3.752   2.312  -0.033  0.00  0.00    -0.028 A 
ATOM     12  C   UNL     1       3.697   1.898  -1.372  0.00  0.00    +0.005 A 
ATOM     13  C   UNL     1       2.559   2.677   0.609  0.00  0.00    +0.005 A 
ATOM     14  C   UNL     1       2.473   1.828  -2.043  0.00  0.00    +0.000 A 
ATOM     15  C   UNL     1       1.340   2.606  -0.064  0.00  0.00    +0.000 A 
ATOM     16  C   UNL     1       1.297   2.179  -1.389  0.00  0.00    +0.000 A 
ENDBRANCH  10  11
ENDBRANCH   1  10
TORSDOF 2
ENDMDL
MODEL 2
REMARK VINA RESULT:    -6.153      1.622      2.557
REMARK INTER + INTRA:          -7.030
REMARK INTER:                  -6.905
REMARK INTRA:                  -0.125
REMARK UNBOUND:                -0.158
REMARK  Name = 1550473
REMARK  2 active torsions:
REMARK  status: ('A' for Active; 'I' for Inactive)
REMARK    1  A    between atoms: N_1  and  C_4
REMARK    2  A    between atoms: C_4  and  C_5
REMARK                            x       y       z     vdW  Elec       q    Type
REMARK                         _______ _______ _______ _____ _____    ______ ____
ROOT
ATOM      1  N   UNL     1       6.106   1.205  -0.635  0.00  0.00    -0.354 N 
ATOM      2  N   UNL     1       8.097   0.325  -1.426  0.00  0.00    -0.372 N 
ATOM      3  N   UNL     1       7.769   0.463   0.840  0.00  0.00    -0.372 N 
ATOM      4  C   UNL     1       7.312   0.670  -0.399  0.00  0.00    +0.166 C 
ATOM      5  H   UNL     1       5.830   1.364  -1.597  0.00  0.00    +0.163 HD
ATOM      6  H   UNL     1       9.010  -0.084  -1.279  0.00  0.00    +0.159 HD
ATOM      7  H   UNL     1       7.800   0.443  -2.387  0.00  0.00    +0.159 HD
ATOM      8  H   UNL     1       7.228   0.708   1.659  0.00  0.00    +0.159 HD
ATOM      9  H   UNL     1       8.685   0.066   1.008  0.00  0.00    +0.159 HD
ENDROOT
BRANCH   1  10
ATOM     10  C   UNL     1       5.152   1.566   0.412  0.00  0.00    +0.151 C 
BRANCH  10  11
ATOM     11  C   UNL     1       3.801   1.787  -0.209  0.00  0.00    -0.028 A 
ATOM     12  C   UNL     1       2.753   2.336   0.544  0.00  0.00    +0.005 A 
ATOM     13  C   UNL     1       3.564   1.456  -1.552  0.00  0.00    +0.005 A 
ATOM     14  C   UNL     1       1.506   2.570  -0.042  0.00  0.00    +0.000 A 
ATOM     15  C   UNL     1       2.318   1.690  -2.132  0.00  0.00    +0.000 A 
ATOM     16  C   UNL     1       1.290   2.250  -1.377  0.00  0.00    +0.000 A 
ENDBRANCH  10  11
ENDBRANCH   1  10
TORSDOF 2
ENDMDL
MODEL 3
REMARK VINA RESULT:    -5.556      1.840      2.162
REMARK INTER + INTRA:          -6.363
REMARK INTER:                  -6.237
REMARK INTRA:                  -0.126
REMARK UNBOUND:                -0.158
REMARK  Name = 1550473
REMARK  2 active torsions:
REMARK  status: ('A' for Active; 'I' for Inactive)
REMARK    1  A    between atoms: N_1  and  C_4
REMARK    2  A    between atoms: C_4  and  C_5
REMARK                            x       y       z     vdW  Elec       q    Type
REMARK                         _______ _______ _______ _____ _____    ______ ____
ROOT
ATOM      1  N   UNL     1       6.017   2.561   0.552  0.00  0.00    -0.354 N 
ATOM      2  N   UNL     1       8.302   2.198   0.668  0.00  0.00    -0.372 N 
ATOM      3  N   UNL     1       7.164   2.726   2.589  0.00  0.00    -0.372 N 
ATOM      4  C   UNL     1       7.145   2.498   1.272  0.00  0.00    +0.166 C 
ATOM      5  H   UNL     1       6.075   2.408  -0.448  0.00  0.00    +0.163 HD
ATOM      6  H   UNL     1       9.168   2.140   1.186  0.00  0.00    +0.159 HD
ATOM      7  H   UNL     1       8.349   2.000  -0.324  0.00  0.00    +0.159 HD
ATOM      8  H   UNL     1       6.326   2.963   3.103  0.00  0.00    +0.159 HD
ATOM      9  H   UNL     1       8.023   2.684   3.123  0.00  0.00    +0.159 HD
ENDROOT
BRANCH   1  10
ATOM     10  C   UNL     1       4.698   2.827   1.122  0.00  0.00    +0.151 C 
BRANCH  10  11
ATOM     11  C   UNL     1       3.644   2.462   0.113  0.00  0.00    -0.028 A 
ATOM     12  C   UNL     1       4.005   1.910  -1.125  0.00  0.00    +0.005 A 
ATOM     13  C   UNL     1       2.283   2.659   0.391  0.00  0.00    +0.005 A 
ATOM     14  C   UNL     1       3.025   1.543  -2.051  0.00  0.00    +0.000 A 
ATOM     15  C   UNL     1       1.308   2.292  -0.537  0.00  0.00    +0.000 A 
ATOM     16  C   UNL     1       1.679   1.732  -1.756  0.00  0.00    +0.000 A 
ENDBRANCH  10  11
ENDBRANCH   1  10
TORSDOF 2
ENDMDL
MODEL 4
REMARK VINA RESULT:    -5.278     13.621     14.416
REMARK INTER + INTRA:          -6.053
REMARK INTER:                  -5.908
REMARK INTRA:                  -0.145
REMARK UNBOUND:                -0.158
REMARK  Name = 1550473
REMARK  2 active torsions:
REMARK  status: ('A' for Active; 'I' for Inactive)
REMARK    1  A    between atoms: N_1  and  C_4
REMARK    2  A    between atoms: C_4  and  C_5
REMARK                            x       y       z     vdW  Elec       q    Type
REMARK                         _______ _______ _______ _____ _____    ______ ____
ROOT
ATOM      1  N   UNL     1      -8.598   8.943  -0.299  0.00  0.00    -0.354 N 
ATOM      2  N   UNL     1      -8.480   8.257   1.910  0.00  0.00    -0.372 N 
ATOM      3  N   UNL     1      -6.542   8.824   0.820  0.00  0.00    -0.372 N 
ATOM      4  C   UNL     1      -7.871   8.680   0.795  0.00  0.00    +0.166 C 
ATOM      5  H   UNL     1      -9.598   8.785  -0.262  0.00  0.00    +0.163 HD
ATOM      6  H   UNL     1      -7.958   8.054   2.752  0.00  0.00    +0.159 HD
ATOM      7  H   UNL     1      -9.485   8.144   1.958  0.00  0.00    +0.159 HD
ATOM      8  H   UNL     1      -6.022   9.134   0.010  0.00  0.00    +0.159 HD
ATOM      9  H   UNL     1      -6.001   8.614   1.650  0.00  0.00    +0.159 HD
ENDROOT
BRANCH   1  10
ATOM     10  C   UNL     1      -8.039   9.459  -1.547  0.00  0.00    +0.151 C 
BRANCH  10  11
ATOM     11  C   UNL     1      -8.504   8.596  -2.687  0.00  0.00    -0.028 A 
ATOM     12  C   UNL     1      -9.438   7.573  -2.471  0.00  0.00    +0.005 A 
ATOM     13  C   UNL     1      -8.017   8.800  -3.988  0.00  0.00    +0.005 A 
ATOM     14  C   UNL     1      -9.893   6.791  -3.535  0.00  0.00    +0.000 A 
ATOM     15  C   UNL     1      -8.473   8.017  -5.048  0.00  0.00    +0.000 A 
ATOM     16  C   UNL     1      -9.413   7.014  -4.821  0.00  0.00    +0.000 A 
ENDBRANCH  10  11
ENDBRANCH   1  10
TORSDOF 2
ENDMDL
MODEL 5
REMARK VINA RESULT:    -5.069      2.839      4.802
REMARK INTER + INTRA:          -5.819
REMARK INTER:                  -5.697
REMARK INTRA:                  -0.123
REMARK UNBOUND:                -0.158
REMARK  Name = 1550473
REMARK  2 active torsions:
REMARK  status: ('A' for Active; 'I' for Inactive)
REMARK    1  A    between atoms: N_1  and  C_4
REMARK    2  A    between atoms: C_4  and  C_5
REMARK                            x       y       z     vdW  Elec       q    Type
REMARK                         _______ _______ _______ _____ _____    ______ ____
ROOT
ATOM      1  N   UNL     1       3.548   1.674  -1.064  0.00  0.00    -0.354 N 
ATOM      2  N   UNL     1       1.406   2.275  -1.711  0.00  0.00    -0.372 N 
ATOM      3  N   UNL     1       2.362   0.405  -2.638  0.00  0.00    -0.372 N 
ATOM      4  C   UNL     1       2.453   1.445  -1.802  0.00  0.00    +0.166 C 
ATOM      5  H   UNL     1       3.566   2.497  -0.472  0.00  0.00    +0.163 HD
ATOM      6  H   UNL     1       0.566   2.126  -2.253  0.00  0.00    +0.159 HD
ATOM      7  H   UNL     1       1.410   3.070  -1.085  0.00  0.00    +0.159 HD
ATOM      8  H   UNL     1       3.119  -0.254  -2.757  0.00  0.00    +0.159 HD
ATOM      9  H   UNL     1       1.533   0.246  -3.197  0.00  0.00    +0.159 HD
ENDROOT
BRANCH   1  10
ATOM     10  C   UNL     1       4.720   0.802  -1.049  0.00  0.00    +0.151 C 
BRANCH  10  11
ATOM     11  C   UNL     1       5.732   1.356  -0.084  0.00  0.00    -0.028 A 
ATOM     12  C   UNL     1       6.914   0.652   0.190  0.00  0.00    +0.005 A 
ATOM     13  C   UNL     1       5.518   2.587   0.554  0.00  0.00    +0.005 A 
ATOM     14  C   UNL     1       7.868   1.181   1.063  0.00  0.00    +0.000 A 
ATOM     15  C   UNL     1       6.472   3.111   1.426  0.00  0.00    +0.000 A 
ATOM     16  C   UNL     1       7.648   2.409   1.678  0.00  0.00    +0.000 A 
ENDBRANCH  10  11
ENDBRANCH   1  10
TORSDOF 2
ENDMDL
MODEL 6
REMARK VINA RESULT:    -4.825      8.004      9.348
REMARK INTER + INTRA:          -5.547
REMARK INTER:                  -5.472
REMARK INTRA:                  -0.075
REMARK UNBOUND:                -0.158
REMARK  Name = 1550473
REMARK  2 active torsions:
REMARK  status: ('A' for Active; 'I' for Inactive)
REMARK    1  A    between atoms: N_1  and  C_4
REMARK    2  A    between atoms: C_4  and  C_5
REMARK                            x       y       z     vdW  Elec       q    Type
REMARK                         _______ _______ _______ _____ _____    ______ ____
ROOT
ATOM      1  N   UNL     1       4.613  -1.730  -6.090  0.00  0.00    -0.354 N 
ATOM      2  N   UNL     1       2.354  -2.181  -5.850  0.00  0.00    -0.372 N 
ATOM      3  N   UNL     1       3.734  -3.827  -6.658  0.00  0.00    -0.372 N 
ATOM      4  C   UNL     1       3.583  -2.579  -6.202  0.00  0.00    +0.166 C 
ATOM      5  H   UNL     1       4.428  -0.788  -5.766  0.00  0.00    +0.163 HD
ATOM      6  H   UNL     1       1.558  -2.800  -5.920  0.00  0.00    +0.159 HD
ATOM      7  H   UNL     1       2.180  -1.253  -5.483  0.00  0.00    +0.159 HD
ATOM      8  H   UNL     1       4.634  -4.187  -6.946  0.00  0.00    +0.159 HD
ATOM      9  H   UNL     1       2.947  -4.458  -6.746  0.00  0.00    +0.159 HD
ENDROOT
BRANCH   1  10
ATOM     10  C   UNL     1       5.999  -2.082  -6.396  0.00  0.00    +0.151 C 
BRANCH  10  11
ATOM     11  C   UNL     1       6.396  -1.431  -7.692  0.00  0.00    -0.028 A 
ATOM     12  C   UNL     1       7.724  -1.487  -8.140  0.00  0.00    +0.005 A 
ATOM     13  C   UNL     1       5.448  -0.762  -8.481  0.00  0.00    +0.005 A 
ATOM     14  C   UNL     1       8.087  -0.909  -9.358  0.00  0.00    +0.000 A 
ATOM     15  C   UNL     1       5.815  -0.185  -9.697  0.00  0.00    +0.000 A 
ATOM     16  C   UNL     1       7.134  -0.261 -10.136  0.00  0.00    +0.000 A 
ENDBRANCH  10  11
ENDBRANCH   1  10
TORSDOF 2
ENDMDL
MODEL 7
REMARK VINA RESULT:    -4.803      6.223      7.345
REMARK INTER + INTRA:          -5.522
REMARK INTER:                  -5.386
REMARK INTRA:                  -0.136
REMARK UNBOUND:                -0.158
REMARK  Name = 1550473
REMARK  2 active torsions:
REMARK  status: ('A' for Active; 'I' for Inactive)
REMARK    1  A    between atoms: N_1  and  C_4
REMARK    2  A    between atoms: C_4  and  C_5
REMARK                            x       y       z     vdW  Elec       q    Type
REMARK                         _______ _______ _______ _____ _____    ______ ____
ROOT
ATOM      1  N   UNL     1       6.181  -2.466  -4.002  0.00  0.00    -0.354 N 
ATOM      2  N   UNL     1       6.291  -1.661  -1.833  0.00  0.00    -0.372 N 
ATOM      3  N   UNL     1       8.240  -1.946  -3.011  0.00  0.00    -0.372 N 
ATOM      4  C   UNL     1       6.906  -2.030  -2.963  0.00  0.00    +0.166 C 
ATOM      5  H   UNL     1       5.175  -2.535  -3.891  0.00  0.00    +0.163 HD
ATOM      6  H   UNL     1       6.812  -1.324  -1.034  0.00  0.00    +0.159 HD
ATOM      7  H   UNL     1       5.283  -1.687  -1.742  0.00  0.00    +0.159 HD
ATOM      8  H   UNL     1       8.764  -2.215  -3.833  0.00  0.00    +0.159 HD
ATOM      9  H   UNL     1       8.779  -1.623  -2.218  0.00  0.00    +0.159 HD
ENDROOT
BRANCH   1  10
ATOM     10  C   UNL     1       6.748  -2.841  -5.295  0.00  0.00    +0.151 C 
BRANCH  10  11
ATOM     11  C   UNL     1       6.063  -2.055  -6.379  0.00  0.00    -0.028 A 
ATOM     12  C   UNL     1       6.781  -1.612  -7.499  0.00  0.00    +0.005 A 
ATOM     13  C   UNL     1       4.695  -1.756  -6.294  0.00  0.00    +0.005 A 
ATOM     14  C   UNL     1       6.138  -0.907  -8.520  0.00  0.00    +0.000 A 
ATOM     15  C   UNL     1       4.057  -1.051  -7.315  0.00  0.00    +0.000 A 
ATOM     16  C   UNL     1       4.778  -0.630  -8.429  0.00  0.00    +0.000 A 
ENDBRANCH  10  11
ENDBRANCH   1  10
TORSDOF 2
ENDMDL
MODEL 8
REMARK VINA RESULT:    -4.635      5.830      6.857
REMARK INTER + INTRA:          -5.334
REMARK INTER:                  -5.206
REMARK INTRA:                  -0.128
REMARK UNBOUND:                -0.158
REMARK  Name = 1550473
REMARK  2 active torsions:
REMARK  status: ('A' for Active; 'I' for Inactive)
REMARK    1  A    between atoms: N_1  and  C_4
REMARK    2  A    between atoms: C_4  and  C_5
REMARK                            x       y       z     vdW  Elec       q    Type
REMARK                         _______ _______ _______ _____ _____    ______ ____
ROOT
ATOM      1  N   UNL     1       6.549  -1.939  -2.167  0.00  0.00    -0.354 N 
ATOM      2  N   UNL     1       6.006  -0.336  -0.587  0.00  0.00    -0.372 N 
ATOM      3  N   UNL     1       7.949  -0.100  -1.784  0.00  0.00    -0.372 N 
ATOM      4  C   UNL     1       6.841  -0.801  -1.524  0.00  0.00    +0.166 C 
ATOM      5  H   UNL     1       5.708  -2.440  -1.902  0.00  0.00    +0.163 HD
ATOM      6  H   UNL     1       6.198   0.522  -0.087  0.00  0.00    +0.159 HD
ATOM      7  H   UNL     1       5.144  -0.814  -0.356  0.00  0.00    +0.159 HD
ATOM      8  H   UNL     1       8.623  -0.400  -2.476  0.00  0.00    +0.159 HD
ATOM      9  H   UNL     1       8.165   0.755  -1.286  0.00  0.00    +0.159 HD
ENDROOT
BRANCH   1  10
ATOM     10  C   UNL     1       7.364  -2.503  -3.242  0.00  0.00    +0.151 C 
BRANCH  10  11
ATOM     11  C   UNL     1       6.458  -3.055  -4.308  0.00  0.00    -0.028 A 
ATOM     12  C   UNL     1       5.452  -2.256  -4.870  0.00  0.00    +0.005 A 
ATOM     13  C   UNL     1       6.604  -4.374  -4.763  0.00  0.00    +0.005 A 
ATOM     14  C   UNL     1       4.630  -2.758  -5.882  0.00  0.00    +0.000 A 
ATOM     15  C   UNL     1       5.780  -4.872  -5.773  0.00  0.00    +0.000 A 
ATOM     16  C   UNL     1       4.795  -4.064  -6.333  0.00  0.00    +0.000 A 
ENDBRANCH  10  11
ENDBRANCH   1  10
TORSDOF 2
ENDMDL
MODEL 9
REMARK VINA RESULT:    -4.499      5.344      6.844
REMARK INTER + INTRA:          -5.182
REMARK INTER:                  -5.047
REMARK INTRA:                  -0.136
REMARK UNBOUND:                -0.158
REMARK  Name = 1550473
REMARK  2 active torsions:
REMARK  status: ('A' for Active; 'I' for Inactive)
REMARK    1  A    between atoms: N_1  and  C_4
REMARK    2  A    between atoms: C_4  and  C_5
REMARK                            x       y       z     vdW  Elec       q    Type
REMARK                         _______ _______ _______ _____ _____    ______ ____
ROOT
ATOM      1  N   UNL     1      11.288   3.134   1.298  0.00  0.00    -0.354 N 
ATOM      2  N   UNL     1      13.430   3.190   0.417  0.00  0.00    -0.372 N 
ATOM      3  N   UNL     1      12.037   4.980   0.063  0.00  0.00    -0.372 N 
ATOM      4  C   UNL     1      12.237   3.770   0.597  0.00  0.00    +0.166 C 
ATOM      5  H   UNL     1      11.492   2.206   1.651  0.00  0.00    +0.163 HD
ATOM      6  H   UNL     1      14.166   3.647  -0.104  0.00  0.00    +0.159 HD
ATOM      7  H   UNL     1      13.646   2.282   0.810  0.00  0.00    +0.159 HD
ATOM      8  H   UNL     1      11.157   5.468   0.158  0.00  0.00    +0.159 HD
ATOM      9  H   UNL     1      12.758   5.448  -0.472  0.00  0.00    +0.159 HD
ENDROOT
BRANCH   1  10
ATOM     10  C   UNL     1       9.975   3.701   1.598  0.00  0.00    +0.151 C 
BRANCH  10  11
ATOM     11  C   UNL     1       8.940   2.613   1.513  0.00  0.00    -0.028 A 
ATOM     12  C   UNL     1       7.585   2.900   1.739  0.00  0.00    +0.005 A 
ATOM     13  C   UNL     1       9.306   1.295   1.202  0.00  0.00    +0.005 A 
ATOM     14  C   UNL     1       6.620   1.896   1.631  0.00  0.00    +0.000 A 
ATOM     15  C   UNL     1       8.339   0.295   1.096  0.00  0.00    +0.000 A 
ATOM     16  C   UNL     1       6.996   0.596   1.308  0.00  0.00    +0.000 A 
ENDBRANCH  10  11
ENDBRANCH   1  10
TORSDOF 2
ENDMDL
