MODEL 1
REMARK VINA RESULT:    -6.355      0.000      0.000
REMARK INTER + INTRA:          -7.268
REMARK INTER:                  -7.098
REMARK INTRA:                  -0.170
REMARK UNBOUND:                -0.170
REMARK  Name = 1550473
REMARK  2 active torsions:
REMARK  status: ('A' for Active; 'I' for Inactive)
REMARK    1  A    between atoms: N_1  and  C_4
REMARK    2  A    between atoms: C_4  and  C_5
REMARK                            x       y       z     vdW  Elec       q    Type
REMARK                         _______ _______ _______ _____ _____    ______ ____
ROOT
ATOM      1  N   UNL     1      -3.896  -4.800  -8.668  0.00  0.00    -0.354 N 
ATOM      2  N   UNL     1      -1.658  -4.497  -8.157  0.00  0.00    -0.372 N 
ATOM      3  N   UNL     1      -3.071  -2.692  -8.062  0.00  0.00    -0.372 N 
ATOM      4  C   UNL     1      -2.891  -3.996  -8.299  0.00  0.00    +0.166 C 
ATOM      5  H   UNL     1      -3.689  -5.772  -8.863  0.00  0.00    +0.163 HD
ATOM      6  H   UNL     1      -0.880  -3.916  -7.876  0.00  0.00    +0.159 HD
ATOM      7  H   UNL     1      -1.462  -5.480  -8.307  0.00  0.00    +0.159 HD
ATOM      8  H   UNL     1      -3.976  -2.250  -8.157  0.00  0.00    +0.159 HD
ATOM      9  H   UNL     1      -2.302  -2.091  -7.791  0.00  0.00    +0.159 HD
ENDROOT
BRANCH   1  10
ATOM     10  C   UNL     1      -5.286  -4.364  -8.799  0.00  0.00    +0.151 C 
BRANCH  10  11
ATOM     11  C   UNL     1      -6.066  -4.848  -7.608  0.00  0.00    -0.028 A 
ATOM     12  C   UNL     1      -6.017  -6.197  -7.226  0.00  0.00    +0.005 A 
ATOM     13  C   UNL     1      -6.853  -3.963  -6.856  0.00  0.00    +0.005 A 
ATOM     14  C   UNL     1      -6.718  -6.641  -6.102  0.00  0.00    +0.000 A 
ATOM     15  C   UNL     1      -7.552  -4.411  -5.735  0.00  0.00    +0.000 A 
ATOM     16  C   UNL     1      -7.483  -5.749  -5.357  0.00  0.00    +0.000 A 
ENDBRANCH  10  11
ENDBRANCH   1  10
TORSDOF 2
ENDMDL
MODEL 2
REMARK VINA RESULT:    -6.094      2.188      3.256
REMARK INTER + INTRA:          -6.976
REMARK INTER:                  -6.857
REMARK INTRA:                  -0.119
REMARK UNBOUND:                -0.170
REMARK  Name = 1550473
REMARK  2 active torsions:
REMARK  status: ('A' for Active; 'I' for Inactive)
REMARK    1  A    between atoms: N_1  and  C_4
REMARK    2  A    between atoms: C_4  and  C_5
REMARK                            x       y       z     vdW  Elec       q    Type
REMARK                         _______ _______ _______ _____ _____    ______ ____
ROOT
ATOM      1  N   UNL     1      -1.938  -3.900 -10.324  0.00  0.00    -0.354 N 
ATOM      2  N   UNL     1      -0.681  -3.059 -12.077  0.00  0.00    -0.372 N 
ATOM      3  N   UNL     1       0.335  -3.402 -10.049  0.00  0.00    -0.372 N 
ATOM      4  C   UNL     1      -0.768  -3.459 -10.803  0.00  0.00    +0.166 C 
ATOM      5  H   UNL     1      -2.744  -3.890 -10.938  0.00  0.00    +0.163 HD
ATOM      6  H   UNL     1       0.190  -2.725 -12.468  0.00  0.00    +0.159 HD
ATOM      7  H   UNL     1      -1.477  -3.093 -12.702  0.00  0.00    +0.159 HD
ATOM      8  H   UNL     1       0.335  -3.684  -9.077  0.00  0.00    +0.159 HD
ATOM      9  H   UNL     1       1.213  -3.060 -10.418  0.00  0.00    +0.159 HD
ENDROOT
BRANCH   1  10
ATOM     10  C   UNL     1      -2.127  -4.408  -8.966  0.00  0.00    +0.151 C 
BRANCH  10  11
ATOM     11  C   UNL     1      -3.592  -4.649  -8.731  0.00  0.00    -0.028 A 
ATOM     12  C   UNL     1      -4.016  -5.583  -7.775  0.00  0.00    +0.005 A 
ATOM     13  C   UNL     1      -4.563  -3.940  -9.456  0.00  0.00    +0.005 A 
ATOM     14  C   UNL     1      -5.378  -5.785  -7.534  0.00  0.00    +0.000 A 
ATOM     15  C   UNL     1      -5.921  -4.145  -9.213  0.00  0.00    +0.000 A 
ATOM     16  C   UNL     1      -6.328  -5.066  -8.251  0.00  0.00    +0.000 A 
ENDBRANCH  10  11
ENDBRANCH   1  10
TORSDOF 2
ENDMDL
MODEL 3
REMARK VINA RESULT:    -5.505     26.681     27.734
REMARK INTER + INTRA:          -6.319
REMARK INTER:                  -6.215
REMARK INTRA:                  -0.104
REMARK UNBOUND:                -0.170
REMARK  Name = 1550473
REMARK  2 active torsions:
REMARK  status: ('A' for Active; 'I' for Inactive)
REMARK    1  A    between atoms: N_1  and  C_4
REMARK    2  A    between atoms: C_4  and  C_5
REMARK                            x       y       z     vdW  Elec       q    Type
REMARK                         _______ _______ _______ _____ _____    ______ ____
ROOT
ATOM      1  N   UNL     1      -2.021   8.163  17.941  0.00  0.00    -0.354 N 
ATOM      2  N   UNL     1      -1.694  10.424  17.561  0.00  0.00    -0.372 N 
ATOM      3  N   UNL     1      -0.502   9.396  19.230  0.00  0.00    -0.372 N 
ATOM      4  C   UNL     1      -1.406   9.313  18.249  0.00  0.00    +0.166 C 
ATOM      5  H   UNL     1      -2.719   8.172  17.206  0.00  0.00    +0.163 HD
ATOM      6  H   UNL     1      -1.244  11.305  17.769  0.00  0.00    +0.159 HD
ATOM      7  H   UNL     1      -2.359  10.421  16.797  0.00  0.00    +0.159 HD
ATOM      8  H   UNL     1      -0.244   8.595  19.791  0.00  0.00    +0.159 HD
ATOM      9  H   UNL     1      -0.049  10.272  19.461  0.00  0.00    +0.159 HD
ENDROOT
BRANCH   1  10
ATOM     10  C   UNL     1      -1.740   6.885  18.593  0.00  0.00    +0.151 C 
BRANCH  10  11
ATOM     11  C   UNL     1      -2.351   5.775  17.783  0.00  0.00    -0.028 A 
ATOM     12  C   UNL     1      -1.602   4.636  17.457  0.00  0.00    +0.005 A 
ATOM     13  C   UNL     1      -3.682   5.855  17.344  0.00  0.00    +0.005 A 
ATOM     14  C   UNL     1      -2.179   3.591  16.731  0.00  0.00    +0.000 A 
ATOM     15  C   UNL     1      -4.254   4.810  16.619  0.00  0.00    +0.000 A 
ATOM     16  C   UNL     1      -3.503   3.678  16.314  0.00  0.00    +0.000 A 
ENDBRANCH  10  11
ENDBRANCH   1  10
TORSDOF 2
ENDMDL
MODEL 4
REMARK VINA RESULT:    -5.478      2.610      4.048
REMARK INTER + INTRA:          -6.289
REMARK INTER:                  -6.145
REMARK INTRA:                  -0.143
REMARK UNBOUND:                -0.170
REMARK  Name = 1550473
REMARK  2 active torsions:
REMARK  status: ('A' for Active; 'I' for Inactive)
REMARK    1  A    between atoms: N_1  and  C_4
REMARK    2  A    between atoms: C_4  and  C_5
REMARK                            x       y       z     vdW  Elec       q    Type
REMARK                         _______ _______ _______ _____ _____    ______ ____
ROOT
ATOM      1  N   UNL     1      -1.335  -4.570 -10.518  0.00  0.00    -0.354 N 
ATOM      2  N   UNL     1      -0.608  -3.375 -12.364  0.00  0.00    -0.372 N 
ATOM      3  N   UNL     1       0.522  -3.147 -10.381  0.00  0.00    -0.372 N 
ATOM      4  C   UNL     1      -0.477  -3.704 -11.073  0.00  0.00    +0.166 C 
ATOM      5  H   UNL     1      -2.089  -4.934 -11.089  0.00  0.00    +0.163 HD
ATOM      6  H   UNL     1       0.026  -2.728 -12.812  0.00  0.00    +0.159 HD
ATOM      7  H   UNL     1      -1.335  -3.776 -12.945  0.00  0.00    +0.159 HD
ATOM      8  H   UNL     1       0.672  -3.349  -9.401  0.00  0.00    +0.159 HD
ATOM      9  H   UNL     1       1.161  -2.488 -10.808  0.00  0.00    +0.159 HD
ENDROOT
BRANCH   1  10
ATOM     10  C   UNL     1      -1.247  -5.035  -9.135  0.00  0.00    +0.151 C 
BRANCH  10  11
ATOM     11  C   UNL     1      -2.464  -4.573  -8.382  0.00  0.00    -0.028 A 
ATOM     12  C   UNL     1      -2.779  -3.208  -8.307  0.00  0.00    +0.005 A 
ATOM     13  C   UNL     1      -3.309  -5.495  -7.747  0.00  0.00    +0.005 A 
ATOM     14  C   UNL     1      -3.926  -2.780  -7.634  0.00  0.00    +0.000 A 
ATOM     15  C   UNL     1      -4.453  -5.064  -7.074  0.00  0.00    +0.000 A 
ATOM     16  C   UNL     1      -4.762  -3.707  -7.020  0.00  0.00    +0.000 A 
ENDBRANCH  10  11
ENDBRANCH   1  10
TORSDOF 2
ENDMDL
MODEL 5
REMARK VINA RESULT:    -5.427     12.237     13.673
REMARK INTER + INTRA:          -6.231
REMARK INTER:                  -6.139
REMARK INTRA:                  -0.092
REMARK UNBOUND:                -0.170
REMARK  Name = 1550473
REMARK  2 active torsions:
REMARK  status: ('A' for Active; 'I' for Inactive)
REMARK    1  A    between atoms: N_1  and  C_4
REMARK    2  A    between atoms: C_4  and  C_5
REMARK                            x       y       z     vdW  Elec       q    Type
REMARK                         _______ _______ _______ _____ _____    ______ ____
ROOT
ATOM      1  N   UNL     1       7.802  -0.112  -4.756  0.00  0.00    -0.354 N 
ATOM      2  N   UNL     1       7.559   2.191  -4.713  0.00  0.00    -0.372 N 
ATOM      3  N   UNL     1       8.302   1.118  -2.825  0.00  0.00    -0.372 N 
ATOM      4  C   UNL     1       7.890   1.050  -4.096  0.00  0.00    +0.166 C 
ATOM      5  H   UNL     1       7.454  -0.100  -5.708  0.00  0.00    +0.163 HD
ATOM      6  H   UNL     1       7.618   3.083  -4.241  0.00  0.00    +0.159 HD
ATOM      7  H   UNL     1       7.255   2.205  -5.679  0.00  0.00    +0.159 HD
ATOM      8  H   UNL     1       8.560   0.293  -2.301  0.00  0.00    +0.159 HD
ATOM      9  H   UNL     1       8.356   2.001  -2.332  0.00  0.00    +0.159 HD
ENDROOT
BRANCH   1  10
ATOM     10  C   UNL     1       8.189  -1.404  -4.193  0.00  0.00    +0.151 C 
BRANCH  10  11
ATOM     11  C   UNL     1       7.623  -2.503  -5.049  0.00  0.00    -0.028 A 
ATOM     12  C   UNL     1       8.280  -2.901  -6.223  0.00  0.00    +0.005 A 
ATOM     13  C   UNL     1       6.433  -3.154  -4.689  0.00  0.00    +0.005 A 
ATOM     14  C   UNL     1       7.771  -3.942  -7.003  0.00  0.00    +0.000 A 
ATOM     15  C   UNL     1       5.928  -4.193  -5.471  0.00  0.00    +0.000 A 
ATOM     16  C   UNL     1       6.598  -4.588  -6.626  0.00  0.00    +0.000 A 
ENDBRANCH  10  11
ENDBRANCH   1  10
TORSDOF 2
ENDMDL
MODEL 6
REMARK VINA RESULT:    -5.378     25.727     26.786
REMARK INTER + INTRA:          -6.176
REMARK INTER:                  -6.034
REMARK INTRA:                  -0.142
REMARK UNBOUND:                -0.170
REMARK  Name = 1550473
REMARK  2 active torsions:
REMARK  status: ('A' for Active; 'I' for Inactive)
REMARK    1  A    between atoms: N_1  and  C_4
REMARK    2  A    between atoms: C_4  and  C_5
REMARK                            x       y       z     vdW  Elec       q    Type
REMARK                         _______ _______ _______ _____ _____    ______ ____
ROOT
ATOM      1  N   UNL     1      -1.924   6.537  17.450  0.00  0.00    -0.354 N 
ATOM      2  N   UNL     1      -1.554   8.524  18.581  0.00  0.00    -0.372 N 
ATOM      3  N   UNL     1      -1.188   6.540  19.675  0.00  0.00    -0.372 N 
ATOM      4  C   UNL     1      -1.557   7.186  18.563  0.00  0.00    +0.166 C 
ATOM      5  H   UNL     1      -2.222   7.085  16.650  0.00  0.00    +0.163 HD
ATOM      6  H   UNL     1      -1.279   9.040  19.406  0.00  0.00    +0.159 HD
ATOM      7  H   UNL     1      -1.808   9.069  17.766  0.00  0.00    +0.159 HD
ATOM      8  H   UNL     1      -1.174   5.530  19.728  0.00  0.00    +0.159 HD
ATOM      9  H   UNL     1      -0.920   7.039  20.514  0.00  0.00    +0.159 HD
ENDROOT
BRANCH   1  10
ATOM     10  C   UNL     1      -1.910   5.083  17.308  0.00  0.00    +0.151 C 
BRANCH  10  11
ATOM     11  C   UNL     1      -3.250   4.626  16.800  0.00  0.00    -0.028 A 
ATOM     12  C   UNL     1      -3.337   3.640  15.806  0.00  0.00    +0.005 A 
ATOM     13  C   UNL     1      -4.437   5.171  17.313  0.00  0.00    +0.005 A 
ATOM     14  C   UNL     1      -4.581   3.194  15.356  0.00  0.00    +0.000 A 
ATOM     15  C   UNL     1      -5.678   4.724  16.860  0.00  0.00    +0.000 A 
ATOM     16  C   UNL     1      -5.750   3.734  15.883  0.00  0.00    +0.000 A 
ENDBRANCH  10  11
ENDBRANCH   1  10
TORSDOF 2
ENDMDL
MODEL 7
REMARK VINA RESULT:    -5.080      7.716      8.632
REMARK INTER + INTRA:          -5.844
REMARK INTER:                  -5.749
REMARK INTRA:                  -0.096
REMARK UNBOUND:                -0.170
REMARK  Name = 1550473
REMARK  2 active torsions:
REMARK  status: ('A' for Active; 'I' for Inactive)
REMARK    1  A    between atoms: N_1  and  C_4
REMARK    2  A    between atoms: C_4  and  C_5
REMARK                            x       y       z     vdW  Elec       q    Type
REMARK                         _______ _______ _______ _____ _____    ______ ____
ROOT
ATOM      1  N   UNL     1       3.725  -4.045  -9.513  0.00  0.00    -0.354 N 
ATOM      2  N   UNL     1       5.913  -3.529  -8.955  0.00  0.00    -0.372 N 
ATOM      3  N   UNL     1       4.371  -3.783  -7.275  0.00  0.00    -0.372 N 
ATOM      4  C   UNL     1       4.654  -3.789  -8.582  0.00  0.00    +0.166 C 
ATOM      5  H   UNL     1       3.998  -4.004 -10.488  0.00  0.00    +0.163 HD
ATOM      6  H   UNL     1       6.636  -3.335  -8.275  0.00  0.00    +0.159 HD
ATOM      7  H   UNL     1       6.193  -3.534  -9.928  0.00  0.00    +0.159 HD
ATOM      8  H   UNL     1       3.439  -3.966  -6.929  0.00  0.00    +0.159 HD
ATOM      9  H   UNL     1       5.078  -3.580  -6.580  0.00  0.00    +0.159 HD
ENDROOT
BRANCH   1  10
ATOM     10  C   UNL     1       2.338  -4.393  -9.210  0.00  0.00    +0.151 C 
BRANCH  10  11
ATOM     11  C   UNL     1       1.555  -4.452 -10.492  0.00  0.00    -0.028 A 
ATOM     12  C   UNL     1       1.832  -5.437 -11.451  0.00  0.00    +0.005 A 
ATOM     13  C   UNL     1       0.531  -3.528 -10.752  0.00  0.00    +0.005 A 
ATOM     14  C   UNL     1       1.085  -5.511 -12.629  0.00  0.00    +0.000 A 
ATOM     15  C   UNL     1      -0.212  -3.604 -11.930  0.00  0.00    +0.000 A 
ATOM     16  C   UNL     1       0.063  -4.597 -12.867  0.00  0.00    +0.000 A 
ENDBRANCH  10  11
ENDBRANCH   1  10
TORSDOF 2
ENDMDL
MODEL 8
REMARK VINA RESULT:    -4.838     24.866     26.699
REMARK INTER + INTRA:          -5.574
REMARK INTER:                  -5.422
REMARK INTRA:                  -0.152
REMARK UNBOUND:                -0.170
REMARK  Name = 1550473
REMARK  2 active torsions:
REMARK  status: ('A' for Active; 'I' for Inactive)
REMARK    1  A    between atoms: N_1  and  C_4
REMARK    2  A    between atoms: C_4  and  C_5
REMARK                            x       y       z     vdW  Elec       q    Type
REMARK                         _______ _______ _______ _____ _____    ______ ____
ROOT
ATOM      1  N   UNL     1      20.914  -4.616   1.953  0.00  0.00    -0.354 N 
ATOM      2  N   UNL     1      22.737  -3.975   3.229  0.00  0.00    -0.372 N 
ATOM      3  N   UNL     1      22.995  -5.661   1.693  0.00  0.00    -0.372 N 
ATOM      4  C   UNL     1      22.205  -4.757   2.282  0.00  0.00    +0.166 C 
ATOM      5  H   UNL     1      20.360  -3.933   2.457  0.00  0.00    +0.163 HD
ATOM      6  H   UNL     1      23.709  -4.057   3.496  0.00  0.00    +0.159 HD
ATOM      7  H   UNL     1      22.193  -3.262   3.699  0.00  0.00    +0.159 HD
ATOM      8  H   UNL     1      22.653  -6.286   0.976  0.00  0.00    +0.159 HD
ATOM      9  H   UNL     1      23.967  -5.766   1.955  0.00  0.00    +0.159 HD
ENDROOT
BRANCH   1  10
ATOM     10  C   UNL     1      20.250  -5.381   0.898  0.00  0.00    +0.151 C 
BRANCH  10  11
ATOM     11  C   UNL     1      19.049  -6.075   1.476  0.00  0.00    -0.028 A 
ATOM     12  C   UNL     1      19.203  -7.077   2.446  0.00  0.00    +0.005 A 
ATOM     13  C   UNL     1      17.752  -5.732   1.063  0.00  0.00    +0.005 A 
ATOM     14  C   UNL     1      18.086  -7.701   3.005  0.00  0.00    +0.000 A 
ATOM     15  C   UNL     1      16.639  -6.359   1.623  0.00  0.00    +0.000 A 
ATOM     16  C   UNL     1      16.806  -7.341   2.596  0.00  0.00    +0.000 A 
ENDBRANCH  10  11
ENDBRANCH   1  10
TORSDOF 2
ENDMDL
MODEL 9
REMARK VINA RESULT:    -4.801     17.629     18.463
REMARK INTER + INTRA:          -5.532
REMARK INTER:                  -5.408
REMARK INTRA:                  -0.123
REMARK UNBOUND:                -0.170
REMARK  Name = 1550473
REMARK  2 active torsions:
REMARK  status: ('A' for Active; 'I' for Inactive)
REMARK    1  A    between atoms: N_1  and  C_4
REMARK    2  A    between atoms: C_4  and  C_5
REMARK                            x       y       z     vdW  Elec       q    Type
REMARK                         _______ _______ _______ _____ _____    ______ ____
ROOT
ATOM      1  N   UNL     1       4.354 -19.334  -0.534  0.00  0.00    -0.354 N 
ATOM      2  N   UNL     1       5.836 -18.879   1.186  0.00  0.00    -0.372 N 
ATOM      3  N   UNL     1       3.695 -19.520   1.707  0.00  0.00    -0.372 N 
ATOM      4  C   UNL     1       4.617 -19.248   0.777  0.00  0.00    +0.166 C 
ATOM      5  H   UNL     1       5.087 -19.085  -1.189  0.00  0.00    +0.163 HD
ATOM      6  H   UNL     1       6.065 -18.809   2.169  0.00  0.00    +0.159 HD
ATOM      7  H   UNL     1       6.580 -18.676   0.530  0.00  0.00    +0.159 HD
ATOM      8  H   UNL     1       2.754 -19.798   1.463  0.00  0.00    +0.159 HD
ATOM      9  H   UNL     1       3.902 -19.444   2.695  0.00  0.00    +0.159 HD
ENDROOT
BRANCH   1  10
ATOM     10  C   UNL     1       3.075 -19.778  -1.085  0.00  0.00    +0.151 C 
BRANCH  10  11
ATOM     11  C   UNL     1       3.123 -19.676  -2.584  0.00  0.00    -0.028 A 
ATOM     12  C   UNL     1       4.311 -19.312  -3.235  0.00  0.00    +0.005 A 
ATOM     13  C   UNL     1       1.986 -19.947  -3.360  0.00  0.00    +0.005 A 
ATOM     14  C   UNL     1       4.364 -19.247  -4.630  0.00  0.00    +0.000 A 
ATOM     15  C   UNL     1       2.043 -19.879  -4.752  0.00  0.00    +0.000 A 
ATOM     16  C   UNL     1       3.233 -19.531  -5.387  0.00  0.00    +0.000 A 
ENDBRANCH  10  11
ENDBRANCH   1  10
TORSDOF 2
ENDMDL
