MODEL 1
REMARK VINA RESULT:    -5.241      0.000      0.000
REMARK INTER + INTRA:          -5.975
REMARK INTER:                  -5.854
REMARK INTRA:                  -0.122
REMARK UNBOUND:                -0.122
REMARK  Name = 1550473
REMARK  2 active torsions:
REMARK  status: ('A' for Active; 'I' for Inactive)
REMARK    1  A    between atoms: N_1  and  C_4
REMARK    2  A    between atoms: C_4  and  C_5
REMARK                            x       y       z     vdW  Elec       q    Type
REMARK                         _______ _______ _______ _____ _____    ______ ____
ROOT
ATOM      1  N   UNL     1      -1.184  13.276  17.178  0.00  0.00    -0.354 N 
ATOM      2  N   UNL     1      -0.044  14.534  18.754  0.00  0.00    -0.372 N 
ATOM      3  N   UNL     1      -2.273  14.099  19.084  0.00  0.00    -0.372 N 
ATOM      4  C   UNL     1      -1.177  13.962  18.329  0.00  0.00    +0.166 C 
ATOM      5  H   UNL     1      -0.328  13.234  16.638  0.00  0.00    +0.163 HD
ATOM      6  H   UNL     1      -0.008  15.055  19.620  0.00  0.00    +0.159 HD
ATOM      7  H   UNL     1       0.821  14.452  18.234  0.00  0.00    +0.159 HD
ATOM      8  H   UNL     1      -3.161  13.696  18.816  0.00  0.00    +0.159 HD
ATOM      9  H   UNL     1      -2.259  14.626  19.948  0.00  0.00    +0.159 HD
ENDROOT
BRANCH   1  10
ATOM     10  C   UNL     1      -2.352  12.570  16.654  0.00  0.00    +0.151 C 
BRANCH  10  11
ATOM     11  C   UNL     1      -1.905  11.598  15.597  0.00  0.00    -0.028 A 
ATOM     12  C   UNL     1      -2.760  11.254  14.540  0.00  0.00    +0.005 A 
ATOM     13  C   UNL     1      -0.626  11.023  15.644  0.00  0.00    +0.005 A 
ATOM     14  C   UNL     1      -2.334  10.374  13.542  0.00  0.00    +0.000 A 
ATOM     15  C   UNL     1      -0.205  10.145  14.646  0.00  0.00    +0.000 A 
ATOM     16  C   UNL     1      -1.059   9.823  13.593  0.00  0.00    +0.000 A 
ENDBRANCH  10  11
ENDBRANCH   1  10
TORSDOF 2
ENDMDL
MODEL 2
REMARK VINA RESULT:    -5.209      3.112      4.098
REMARK INTER + INTRA:          -5.940
REMARK INTER:                  -5.813
REMARK INTRA:                  -0.127
REMARK UNBOUND:                -0.122
REMARK  Name = 1550473
REMARK  2 active torsions:
REMARK  status: ('A' for Active; 'I' for Inactive)
REMARK    1  A    between atoms: N_1  and  C_4
REMARK    2  A    between atoms: C_4  and  C_5
REMARK                            x       y       z     vdW  Elec       q    Type
REMARK                         _______ _______ _______ _____ _____    ______ ____
ROOT
ATOM      1  N   UNL     1      -4.826  12.617  14.843  0.00  0.00    -0.354 N 
ATOM      2  N   UNL     1      -6.339  13.991  15.933  0.00  0.00    -0.372 N 
ATOM      3  N   UNL     1      -7.132  12.223  14.705  0.00  0.00    -0.372 N 
ATOM      4  C   UNL     1      -6.091  12.933  15.152  0.00  0.00    +0.166 C 
ATOM      5  H   UNL     1      -4.083  13.214  15.189  0.00  0.00    +0.163 HD
ATOM      6  H   UNL     1      -7.282  14.252  16.186  0.00  0.00    +0.159 HD
ATOM      7  H   UNL     1      -5.591  14.558  16.315  0.00  0.00    +0.159 HD
ATOM      8  H   UNL     1      -7.013  11.416  14.107  0.00  0.00    +0.159 HD
ATOM      9  H   UNL     1      -8.085  12.475  14.938  0.00  0.00    +0.159 HD
ENDROOT
BRANCH   1  10
ATOM     10  C   UNL     1      -4.446  11.454  14.044  0.00  0.00    +0.151 C 
BRANCH  10  11
ATOM     11  C   UNL     1      -3.020  11.089  14.355  0.00  0.00    -0.028 A 
ATOM     12  C   UNL     1      -2.408  11.548  15.530  0.00  0.00    +0.005 A 
ATOM     13  C   UNL     1      -2.278  10.279  13.481  0.00  0.00    +0.005 A 
ATOM     14  C   UNL     1      -1.094  11.185  15.834  0.00  0.00    +0.000 A 
ATOM     15  C   UNL     1      -0.966   9.920  13.788  0.00  0.00    +0.000 A 
ATOM     16  C   UNL     1      -0.375  10.371  14.966  0.00  0.00    +0.000 A 
ENDBRANCH  10  11
ENDBRANCH   1  10
TORSDOF 2
ENDMDL
MODEL 3
REMARK VINA RESULT:    -5.063      3.809      4.459
REMARK INTER + INTRA:          -5.776
REMARK INTER:                  -5.653
REMARK INTRA:                  -0.124
REMARK UNBOUND:                -0.122
REMARK  Name = 1550473
REMARK  2 active torsions:
REMARK  status: ('A' for Active; 'I' for Inactive)
REMARK    1  A    between atoms: N_1  and  C_4
REMARK    2  A    between atoms: C_4  and  C_5
REMARK                            x       y       z     vdW  Elec       q    Type
REMARK                         _______ _______ _______ _____ _____    ______ ____
ROOT
ATOM      1  N   UNL     1      -6.238  13.015  15.087  0.00  0.00    -0.354 N 
ATOM      2  N   UNL     1      -8.319  13.969  14.738  0.00  0.00    -0.372 N 
ATOM      3  N   UNL     1      -7.091  14.625  16.561  0.00  0.00    -0.372 N 
ATOM      4  C   UNL     1      -7.202  13.865  15.467  0.00  0.00    +0.166 C 
ATOM      5  H   UNL     1      -6.396  12.445  14.265  0.00  0.00    +0.163 HD
ATOM      6  H   UNL     1      -9.062  14.604  14.998  0.00  0.00    +0.159 HD
ATOM      7  H   UNL     1      -8.455  13.431  13.891  0.00  0.00    +0.159 HD
ATOM      8  H   UNL     1      -6.275  14.589  17.158  0.00  0.00    +0.159 HD
ATOM      9  H   UNL     1      -7.828  15.258  16.844  0.00  0.00    +0.159 HD
ENDROOT
BRANCH   1  10
ATOM     10  C   UNL     1      -4.960  12.865  15.781  0.00  0.00    +0.151 C 
BRANCH  10  11
ATOM     11  C   UNL     1      -4.085  11.924  15.000  0.00  0.00    -0.028 A 
ATOM     12  C   UNL     1      -4.486  11.459  13.740  0.00  0.00    +0.005 A 
ATOM     13  C   UNL     1      -2.850  11.499  15.513  0.00  0.00    +0.005 A 
ATOM     14  C   UNL     1      -3.660  10.609  13.001  0.00  0.00    +0.000 A 
ATOM     15  C   UNL     1      -2.028  10.649  14.773  0.00  0.00    +0.000 A 
ATOM     16  C   UNL     1      -2.432  10.206  13.516  0.00  0.00    +0.000 A 
ENDBRANCH  10  11
ENDBRANCH   1  10
TORSDOF 2
ENDMDL
MODEL 4
REMARK VINA RESULT:    -4.989     28.777     30.182
REMARK INTER + INTRA:          -5.694
REMARK INTER:                  -5.559
REMARK INTRA:                  -0.136
REMARK UNBOUND:                -0.122
REMARK  Name = 1550473
REMARK  2 active torsions:
REMARK  status: ('A' for Active; 'I' for Inactive)
REMARK    1  A    between atoms: N_1  and  C_4
REMARK    2  A    between atoms: C_4  and  C_5
REMARK                            x       y       z     vdW  Elec       q    Type
REMARK                         _______ _______ _______ _____ _____    ______ ____
ROOT
ATOM      1  N   UNL     1       0.089  -5.184  -9.860  0.00  0.00    -0.354 N 
ATOM      2  N   UNL     1      -0.760  -7.335  -9.989  0.00  0.00    -0.372 N 
ATOM      3  N   UNL     1       0.947  -6.902  -8.517  0.00  0.00    -0.372 N 
ATOM      4  C   UNL     1       0.100  -6.460  -9.453  0.00  0.00    +0.166 C 
ATOM      5  H   UNL     1      -0.557  -4.918 -10.595  0.00  0.00    +0.163 HD
ATOM      6  H   UNL     1      -0.777  -8.303  -9.699  0.00  0.00    +0.159 HD
ATOM      7  H   UNL     1      -1.435  -7.056 -10.690  0.00  0.00    +0.159 HD
ATOM      8  H   UNL     1       1.624  -6.293  -8.078  0.00  0.00    +0.159 HD
ATOM      9  H   UNL     1       0.952  -7.870  -8.222  0.00  0.00    +0.159 HD
ENDROOT
BRANCH   1  10
ATOM     10  C   UNL     1       0.947  -4.140  -9.302  0.00  0.00    +0.151 C 
BRANCH  10  11
ATOM     11  C   UNL     1       0.139  -2.884  -9.121  0.00  0.00    -0.028 A 
ATOM     12  C   UNL     1      -1.128  -2.762  -9.710  0.00  0.00    +0.005 A 
ATOM     13  C   UNL     1       0.632  -1.816  -8.357  0.00  0.00    +0.005 A 
ATOM     14  C   UNL     1      -1.892  -1.609  -9.518  0.00  0.00    +0.000 A 
ATOM     15  C   UNL     1      -0.133  -0.665  -8.168  0.00  0.00    +0.000 A 
ATOM     16  C   UNL     1      -1.396  -0.563  -8.747  0.00  0.00    +0.000 A 
ENDBRANCH  10  11
ENDBRANCH   1  10
TORSDOF 2
ENDMDL
MODEL 5
REMARK VINA RESULT:    -4.905      1.493      2.051
REMARK INTER + INTRA:          -5.600
REMARK INTER:                  -5.429
REMARK INTRA:                  -0.172
REMARK UNBOUND:                -0.122
REMARK  Name = 1550473
REMARK  2 active torsions:
REMARK  status: ('A' for Active; 'I' for Inactive)
REMARK    1  A    between atoms: N_1  and  C_4
REMARK    2  A    between atoms: C_4  and  C_5
REMARK                            x       y       z     vdW  Elec       q    Type
REMARK                         _______ _______ _______ _____ _____    ______ ____
ROOT
ATOM      1  N   UNL     1      -3.120  13.011  17.072  0.00  0.00    -0.354 N 
ATOM      2  N   UNL     1      -1.446  14.485  17.695  0.00  0.00    -0.372 N 
ATOM      3  N   UNL     1      -1.145  12.241  18.071  0.00  0.00    -0.372 N 
ATOM      4  C   UNL     1      -1.914  13.234  17.609  0.00  0.00    +0.166 C 
ATOM      5  H   UNL     1      -3.666  13.809  16.768  0.00  0.00    +0.163 HD
ATOM      6  H   UNL     1      -0.537  14.683  18.092  0.00  0.00    +0.159 HD
ATOM      7  H   UNL     1      -1.974  15.276  17.348  0.00  0.00    +0.159 HD
ATOM      8  H   UNL     1      -1.443  11.275  18.041  0.00  0.00    +0.159 HD
ATOM      9  H   UNL     1      -0.238  12.421  18.483  0.00  0.00    +0.159 HD
ENDROOT
BRANCH   1  10
ATOM     10  C   UNL     1      -3.699  11.682  16.883  0.00  0.00    +0.151 C 
BRANCH  10  11
ATOM     11  C   UNL     1      -3.603  11.306  15.430  0.00  0.00    -0.028 A 
ATOM     12  C   UNL     1      -4.679  11.542  14.561  0.00  0.00    +0.005 A 
ATOM     13  C   UNL     1      -2.438  10.718  14.915  0.00  0.00    +0.005 A 
ATOM     14  C   UNL     1      -4.580  11.221  13.206  0.00  0.00    +0.000 A 
ATOM     15  C   UNL     1      -2.343  10.398  13.560  0.00  0.00    +0.000 A 
ATOM     16  C   UNL     1      -3.413  10.652  12.706  0.00  0.00    +0.000 A 
ENDBRANCH  10  11
ENDBRANCH   1  10
TORSDOF 2
ENDMDL
MODEL 6
REMARK VINA RESULT:    -4.900      2.204      2.714
REMARK INTER + INTRA:          -5.595
REMARK INTER:                  -5.469
REMARK INTRA:                  -0.126
REMARK UNBOUND:                -0.122
REMARK  Name = 1550473
REMARK  2 active torsions:
REMARK  status: ('A' for Active; 'I' for Inactive)
REMARK    1  A    between atoms: N_1  and  C_4
REMARK    2  A    between atoms: C_4  and  C_5
REMARK                            x       y       z     vdW  Elec       q    Type
REMARK                         _______ _______ _______ _____ _____    ______ ____
ROOT
ATOM      1  N   UNL     1      -3.909  12.870  16.546  0.00  0.00    -0.354 N 
ATOM      2  N   UNL     1      -4.813  13.686  18.516  0.00  0.00    -0.372 N 
ATOM      3  N   UNL     1      -6.224  13.148  16.788  0.00  0.00    -0.372 N 
ATOM      4  C   UNL     1      -4.979  13.229  17.269  0.00  0.00    +0.166 C 
ATOM      5  H   UNL     1      -2.990  12.983  16.957  0.00  0.00    +0.163 HD
ATOM      6  H   UNL     1      -5.601  13.961  19.086  0.00  0.00    +0.159 HD
ATOM      7  H   UNL     1      -3.897  13.755  18.941  0.00  0.00    +0.159 HD
ATOM      8  H   UNL     1      -6.416  12.817  15.852  0.00  0.00    +0.159 HD
ATOM      9  H   UNL     1      -7.024  13.430  17.339  0.00  0.00    +0.159 HD
ENDROOT
BRANCH   1  10
ATOM     10  C   UNL     1      -3.985  12.309  15.198  0.00  0.00    +0.151 C 
BRANCH  10  11
ATOM     11  C   UNL     1      -2.762  11.471  14.945  0.00  0.00    -0.028 A 
ATOM     12  C   UNL     1      -2.678  10.661  13.804  0.00  0.00    +0.005 A 
ATOM     13  C   UNL     1      -1.682  11.488  15.841  0.00  0.00    +0.005 A 
ATOM     14  C   UNL     1      -1.530   9.905  13.553  0.00  0.00    +0.000 A 
ATOM     15  C   UNL     1      -0.538  10.731  15.588  0.00  0.00    +0.000 A 
ATOM     16  C   UNL     1      -0.461   9.942  14.443  0.00  0.00    +0.000 A 
ENDBRANCH  10  11
ENDBRANCH   1  10
TORSDOF 2
ENDMDL
MODEL 7
REMARK VINA RESULT:    -4.888     29.293     30.509
REMARK INTER + INTRA:          -5.581
REMARK INTER:                  -5.428
REMARK INTRA:                  -0.153
REMARK UNBOUND:                -0.122
REMARK  Name = 1550473
REMARK  2 active torsions:
REMARK  status: ('A' for Active; 'I' for Inactive)
REMARK    1  A    between atoms: N_1  and  C_4
REMARK    2  A    between atoms: C_4  and  C_5
REMARK                            x       y       z     vdW  Elec       q    Type
REMARK                         _______ _______ _______ _____ _____    ______ ____
ROOT
ATOM      1  N   UNL     1      -2.999   4.106 -12.623  0.00  0.00    -0.354 N 
ATOM      2  N   UNL     1      -3.647   5.927 -13.899  0.00  0.00    -0.372 N 
ATOM      3  N   UNL     1      -2.360   4.295 -14.870  0.00  0.00    -0.372 N 
ATOM      4  C   UNL     1      -2.996   4.763 -13.791  0.00  0.00    +0.166 C 
ATOM      5  H   UNL     1      -3.475   4.529 -11.834  0.00  0.00    +0.163 HD
ATOM      6  H   UNL     1      -3.666   6.444 -14.768  0.00  0.00    +0.159 HD
ATOM      7  H   UNL     1      -4.160   6.325 -13.121  0.00  0.00    +0.159 HD
ATOM      8  H   UNL     1      -1.846   3.424 -14.853  0.00  0.00    +0.159 HD
ATOM      9  H   UNL     1      -2.357   4.803 -15.745  0.00  0.00    +0.159 HD
ENDROOT
BRANCH   1  10
ATOM     10  C   UNL     1      -2.367   2.804 -12.416  0.00  0.00    +0.151 C 
BRANCH  10  11
ATOM     11  C   UNL     1      -3.422   1.798 -12.048  0.00  0.00    -0.028 A 
ATOM     12  C   UNL     1      -4.053   1.033 -13.040  0.00  0.00    +0.005 A 
ATOM     13  C   UNL     1      -3.791   1.601 -10.708  0.00  0.00    +0.005 A 
ATOM     14  C   UNL     1      -5.011   0.077 -12.696  0.00  0.00    +0.000 A 
ATOM     15  C   UNL     1      -4.750   0.646 -10.369  0.00  0.00    +0.000 A 
ATOM     16  C   UNL     1      -5.358  -0.117 -11.363  0.00  0.00    +0.000 A 
ENDBRANCH  10  11
ENDBRANCH   1  10
TORSDOF 2
ENDMDL
MODEL 8
REMARK VINA RESULT:    -4.808     26.162     27.762
REMARK INTER + INTRA:          -5.492
REMARK INTER:                  -5.392
REMARK INTRA:                  -0.100
REMARK UNBOUND:                -0.122
REMARK  Name = 1550473
REMARK  2 active torsions:
REMARK  status: ('A' for Active; 'I' for Inactive)
REMARK    1  A    between atoms: N_1  and  C_4
REMARK    2  A    between atoms: C_4  and  C_5
REMARK                            x       y       z     vdW  Elec       q    Type
REMARK                         _______ _______ _______ _____ _____    ______ ____
ROOT
ATOM      1  N   UNL     1      11.787   2.853  -6.976  0.00  0.00    -0.354 N 
ATOM      2  N   UNL     1      10.475   3.689  -8.691  0.00  0.00    -0.372 N 
ATOM      3  N   UNL     1      12.680   3.214  -9.112  0.00  0.00    -0.372 N 
ATOM      4  C   UNL     1      11.659   3.247  -8.250  0.00  0.00    +0.166 C 
ATOM      5  H   UNL     1      10.983   2.931  -6.365  0.00  0.00    +0.163 HD
ATOM      6  H   UNL     1      10.347   3.990  -9.648  0.00  0.00    +0.159 HD
ATOM      7  H   UNL     1       9.661   3.722  -8.090  0.00  0.00    +0.159 HD
ATOM      8  H   UNL     1      13.601   2.896  -8.840  0.00  0.00    +0.159 HD
ATOM      9  H   UNL     1      12.575   3.522 -10.071  0.00  0.00    +0.159 HD
ENDROOT
BRANCH   1  10
ATOM     10  C   UNL     1      13.019   2.304  -6.410  0.00  0.00    +0.151 C 
BRANCH  10  11
ATOM     11  C   UNL     1      12.949   2.388  -4.910  0.00  0.00    -0.028 A 
ATOM     12  C   UNL     1      13.102   3.620  -4.257  0.00  0.00    +0.005 A 
ATOM     13  C   UNL     1      12.725   1.239  -4.136  0.00  0.00    +0.005 A 
ATOM     14  C   UNL     1      13.008   3.702  -2.866  0.00  0.00    +0.000 A 
ATOM     15  C   UNL     1      12.633   1.325  -2.747  0.00  0.00    +0.000 A 
ATOM     16  C   UNL     1      12.772   2.557  -2.113  0.00  0.00    +0.000 A 
ENDBRANCH  10  11
ENDBRANCH   1  10
TORSDOF 2
ENDMDL
MODEL 9
REMARK VINA RESULT:    -4.792     32.505     34.033
REMARK INTER + INTRA:          -5.474
REMARK INTER:                  -5.358
REMARK INTRA:                  -0.115
REMARK UNBOUND:                -0.122
REMARK  Name = 1550473
REMARK  2 active torsions:
REMARK  status: ('A' for Active; 'I' for Inactive)
REMARK    1  A    between atoms: N_1  and  C_4
REMARK    2  A    between atoms: C_4  and  C_5
REMARK                            x       y       z     vdW  Elec       q    Type
REMARK                         _______ _______ _______ _____ _____    ______ ____
ROOT
ATOM      1  N   UNL     1      -5.173   4.761 -17.959  0.00  0.00    -0.354 N 
ATOM      2  N   UNL     1      -7.221   3.906 -18.621  0.00  0.00    -0.372 N 
ATOM      3  N   UNL     1      -6.900   6.178 -18.668  0.00  0.00    -0.372 N 
ATOM      4  C   UNL     1      -6.418   4.957 -18.412  0.00  0.00    +0.166 C 
ATOM      5  H   UNL     1      -4.878   3.813 -17.756  0.00  0.00    +0.163 HD
ATOM      6  H   UNL     1      -8.164   4.022 -18.966  0.00  0.00    +0.159 HD
ATOM      7  H   UNL     1      -6.908   2.957 -18.461  0.00  0.00    +0.159 HD
ATOM      8  H   UNL     1      -6.347   7.012 -18.526  0.00  0.00    +0.159 HD
ATOM      9  H   UNL     1      -7.845   6.315 -19.003  0.00  0.00    +0.159 HD
ENDROOT
BRANCH   1  10
ATOM     10  C   UNL     1      -4.201   5.833 -17.750  0.00  0.00    +0.151 C 
BRANCH  10  11
ATOM     11  C   UNL     1      -3.306   5.467 -16.598  0.00  0.00    -0.028 A 
ATOM     12  C   UNL     1      -3.823   5.371 -15.298  0.00  0.00    +0.005 A 
ATOM     13  C   UNL     1      -1.942   5.210 -16.801  0.00  0.00    +0.005 A 
ATOM     14  C   UNL     1      -2.999   5.001 -14.232  0.00  0.00    +0.000 A 
ATOM     15  C   UNL     1      -1.122   4.842 -15.734  0.00  0.00    +0.000 A 
ATOM     16  C   UNL     1      -1.651   4.735 -14.451  0.00  0.00    +0.000 A 
ENDBRANCH  10  11
ENDBRANCH   1  10
TORSDOF 2
ENDMDL
