MODEL 1
REMARK VINA RESULT:    -5.258      0.000      0.000
REMARK INTER + INTRA:          -6.002
REMARK INTER:                  -5.873
REMARK INTRA:                  -0.129
REMARK UNBOUND:                -0.129
REMARK  Name = 1550473
REMARK  2 active torsions:
REMARK  status: ('A' for Active; 'I' for Inactive)
REMARK    1  A    between atoms: N_1  and  C_4
REMARK    2  A    between atoms: C_4  and  C_5
REMARK                            x       y       z     vdW  Elec       q    Type
REMARK                         _______ _______ _______ _____ _____    ______ ____
ROOT
ATOM      1  N   UNL     1      -2.229   6.812   1.992  0.00  0.00    -0.354 N 
ATOM      2  N   UNL     1       0.037   6.407   2.245  0.00  0.00    -0.372 N 
ATOM      3  N   UNL     1      -1.367   5.995   4.012  0.00  0.00    -0.372 N 
ATOM      4  C   UNL     1      -1.202   6.407   2.751  0.00  0.00    +0.166 C 
ATOM      5  H   UNL     1      -2.034   7.141   1.054  0.00  0.00    +0.163 HD
ATOM      6  H   UNL     1       0.831   6.104   2.793  0.00  0.00    +0.159 HD
ATOM      7  H   UNL     1       0.223   6.693   1.292  0.00  0.00    +0.159 HD
ATOM      8  H   UNL     1      -2.276   5.976   4.455  0.00  0.00    +0.159 HD
ATOM      9  H   UNL     1      -0.583   5.698   4.580  0.00  0.00    +0.159 HD
ENDROOT
BRANCH   1  10
ATOM     10  C   UNL     1      -3.624   6.799   2.429  0.00  0.00    +0.151 C 
BRANCH  10  11
ATOM     11  C   UNL     1      -4.490   6.322   1.296  0.00  0.00    -0.028 A 
ATOM     12  C   UNL     1      -5.589   7.083   0.871  0.00  0.00    +0.005 A 
ATOM     13  C   UNL     1      -4.213   5.113   0.639  0.00  0.00    +0.005 A 
ATOM     14  C   UNL     1      -6.375   6.655  -0.202  0.00  0.00    +0.000 A 
ATOM     15  C   UNL     1      -5.002   4.689  -0.430  0.00  0.00    +0.000 A 
ATOM     16  C   UNL     1      -6.081   5.462  -0.852  0.00  0.00    +0.000 A 
ENDBRANCH  10  11
ENDBRANCH   1  10
TORSDOF 2
ENDMDL
MODEL 2
REMARK VINA RESULT:    -4.886      1.862      2.650
REMARK INTER + INTRA:          -5.587
REMARK INTER:                  -5.456
REMARK INTRA:                  -0.131
REMARK UNBOUND:                -0.129
REMARK  Name = 1550473
REMARK  2 active torsions:
REMARK  status: ('A' for Active; 'I' for Inactive)
REMARK    1  A    between atoms: N_1  and  C_4
REMARK    2  A    between atoms: C_4  and  C_5
REMARK                            x       y       z     vdW  Elec       q    Type
REMARK                         _______ _______ _______ _____ _____    ______ ____
ROOT
ATOM      1  N   UNL     1      -2.929   5.808  -0.087  0.00  0.00    -0.354 N 
ATOM      2  N   UNL     1      -0.756   6.025   0.684  0.00  0.00    -0.372 N 
ATOM      3  N   UNL     1      -1.632   3.922   0.415  0.00  0.00    -0.372 N 
ATOM      4  C   UNL     1      -1.787   5.247   0.333  0.00  0.00    +0.166 C 
ATOM      5  H   UNL     1      -2.993   6.819  -0.098  0.00  0.00    +0.163 HD
ATOM      6  H   UNL     1       0.119   5.631   1.001  0.00  0.00    +0.159 HD
ATOM      7  H   UNL     1      -0.807   7.035   0.628  0.00  0.00    +0.159 HD
ATOM      8  H   UNL     1      -2.374   3.279   0.170  0.00  0.00    +0.159 HD
ATOM      9  H   UNL     1      -0.767   3.508   0.741  0.00  0.00    +0.159 HD
ENDROOT
BRANCH   1  10
ATOM     10  C   UNL     1      -4.093   5.049  -0.543  0.00  0.00    +0.151 C 
BRANCH  10  11
ATOM     11  C   UNL     1      -5.339   5.837  -0.248  0.00  0.00    -0.028 A 
ATOM     12  C   UNL     1      -5.344   6.811   0.762  0.00  0.00    +0.005 A 
ATOM     13  C   UNL     1      -6.517   5.619  -0.979  0.00  0.00    +0.005 A 
ATOM     14  C   UNL     1      -6.493   7.564   1.016  0.00  0.00    +0.000 A 
ATOM     15  C   UNL     1      -7.663   6.372  -0.721  0.00  0.00    +0.000 A 
ATOM     16  C   UNL     1      -7.649   7.346   0.275  0.00  0.00    +0.000 A 
ENDBRANCH  10  11
ENDBRANCH   1  10
TORSDOF 2
ENDMDL
MODEL 3
REMARK VINA RESULT:    -4.817     23.275     24.708
REMARK INTER + INTRA:          -5.509
REMARK INTER:                  -5.388
REMARK INTRA:                  -0.121
REMARK UNBOUND:                -0.129
REMARK  Name = 1550473
REMARK  2 active torsions:
REMARK  status: ('A' for Active; 'I' for Inactive)
REMARK    1  A    between atoms: N_1  and  C_4
REMARK    2  A    between atoms: C_4  and  C_5
REMARK                            x       y       z     vdW  Elec       q    Type
REMARK                         _______ _______ _______ _____ _____    ______ ____
ROOT
ATOM      1  N   UNL     1     -10.356 -13.093  -9.891  0.00  0.00    -0.354 N 
ATOM      2  N   UNL     1      -8.825 -12.739  -8.189  0.00  0.00    -0.372 N 
ATOM      3  N   UNL     1     -10.967 -11.957  -7.935  0.00  0.00    -0.372 N 
ATOM      4  C   UNL     1     -10.062 -12.597  -8.682  0.00  0.00    +0.166 C 
ATOM      5  H   UNL     1      -9.616 -13.541 -10.420  0.00  0.00    +0.163 HD
ATOM      6  H   UNL     1      -8.575 -12.379  -7.278  0.00  0.00    +0.159 HD
ATOM      7  H   UNL     1      -8.101 -13.228  -8.700  0.00  0.00    +0.159 HD
ATOM      8  H   UNL     1     -11.916 -11.811  -8.252  0.00  0.00    +0.159 HD
ATOM      9  H   UNL     1     -10.733 -11.578  -7.026  0.00  0.00    +0.159 HD
ENDROOT
BRANCH   1  10
ATOM     10  C   UNL     1     -11.685 -13.039 -10.496  0.00  0.00    +0.151 C 
BRANCH  10  11
ATOM     11  C   UNL     1     -11.676 -13.831 -11.774  0.00  0.00    -0.028 A 
ATOM     12  C   UNL     1     -12.880 -14.173 -12.408  0.00  0.00    +0.005 A 
ATOM     13  C   UNL     1     -10.467 -14.238 -12.359  0.00  0.00    +0.005 A 
ATOM     14  C   UNL     1     -12.871 -14.883 -13.611  0.00  0.00    +0.000 A 
ATOM     15  C   UNL     1     -10.463 -14.948 -13.560  0.00  0.00    +0.000 A 
ATOM     16  C   UNL     1     -11.665 -15.268 -14.187  0.00  0.00    +0.000 A 
ENDBRANCH  10  11
ENDBRANCH   1  10
TORSDOF 2
ENDMDL
MODEL 4
REMARK VINA RESULT:    -4.559     26.062     26.819
REMARK INTER + INTRA:          -5.221
REMARK INTER:                  -5.106
REMARK INTRA:                  -0.115
REMARK UNBOUND:                -0.129
REMARK  Name = 1550473
REMARK  2 active torsions:
REMARK  status: ('A' for Active; 'I' for Inactive)
REMARK    1  A    between atoms: N_1  and  C_4
REMARK    2  A    between atoms: C_4  and  C_5
REMARK                            x       y       z     vdW  Elec       q    Type
REMARK                         _______ _______ _______ _____ _____    ______ ____
ROOT
ATOM      1  N   UNL     1      19.341  -3.244  -6.269  0.00  0.00    -0.354 N 
ATOM      2  N   UNL     1      18.034  -4.770  -7.421  0.00  0.00    -0.372 N 
ATOM      3  N   UNL     1      18.913  -2.981  -8.558  0.00  0.00    -0.372 N 
ATOM      4  C   UNL     1      18.772  -3.653  -7.410  0.00  0.00    +0.166 C 
ATOM      5  H   UNL     1      19.171  -3.781  -5.426  0.00  0.00    +0.163 HD
ATOM      6  H   UNL     1      17.595  -5.106  -8.268  0.00  0.00    +0.159 HD
ATOM      7  H   UNL     1      17.904  -5.330  -6.587  0.00  0.00    +0.159 HD
ATOM      8  H   UNL     1      19.452  -2.128  -8.616  0.00  0.00    +0.159 HD
ATOM      9  H   UNL     1      18.472  -3.295  -9.414  0.00  0.00    +0.159 HD
ENDROOT
BRANCH   1  10
ATOM     10  C   UNL     1      20.207  -2.071  -6.162  0.00  0.00    +0.151 C 
BRANCH  10  11
ATOM     11  C   UNL     1      20.795  -2.019  -4.779  0.00  0.00    -0.028 A 
ATOM     12  C   UNL     1      21.161  -3.200  -4.116  0.00  0.00    +0.005 A 
ATOM     13  C   UNL     1      20.994  -0.792  -4.128  0.00  0.00    +0.005 A 
ATOM     14  C   UNL     1      21.735  -3.150  -2.843  0.00  0.00    +0.000 A 
ATOM     15  C   UNL     1      21.566  -0.747  -2.857  0.00  0.00    +0.000 A 
ATOM     16  C   UNL     1      21.939  -1.926  -2.216  0.00  0.00    +0.000 A 
ENDBRANCH  10  11
ENDBRANCH   1  10
TORSDOF 2
ENDMDL
MODEL 5
REMARK VINA RESULT:    -4.455     24.420     25.475
REMARK INTER + INTRA:          -5.105
REMARK INTER:                  -4.982
REMARK INTRA:                  -0.123
REMARK UNBOUND:                -0.129
REMARK  Name = 1550473
REMARK  2 active torsions:
REMARK  status: ('A' for Active; 'I' for Inactive)
REMARK    1  A    between atoms: N_1  and  C_4
REMARK    2  A    between atoms: C_4  and  C_5
REMARK                            x       y       z     vdW  Elec       q    Type
REMARK                         _______ _______ _______ _____ _____    ______ ____
ROOT
ATOM      1  N   UNL     1      -7.980 -14.341 -12.139  0.00  0.00    -0.354 N 
ATOM      2  N   UNL     1      -5.911 -13.932 -11.182  0.00  0.00    -0.372 N 
ATOM      3  N   UNL     1      -6.007 -15.067 -13.174  0.00  0.00    -0.372 N 
ATOM      4  C   UNL     1      -6.646 -14.451 -12.173  0.00  0.00    +0.166 C 
ATOM      5  H   UNL     1      -8.405 -13.888 -11.338  0.00  0.00    +0.163 HD
ATOM      6  H   UNL     1      -4.902 -13.996 -11.182  0.00  0.00    +0.159 HD
ATOM      7  H   UNL     1      -6.336 -13.440 -10.405  0.00  0.00    +0.159 HD
ATOM      8  H   UNL     1      -6.504 -15.485 -13.949  0.00  0.00    +0.159 HD
ATOM      9  H   UNL     1      -4.998 -15.152 -13.186  0.00  0.00    +0.159 HD
ENDROOT
BRANCH   1  10
ATOM     10  C   UNL     1      -8.868 -14.824 -13.195  0.00  0.00    +0.151 C 
BRANCH  10  11
ATOM     11  C   UNL     1     -10.290 -14.500 -12.828  0.00  0.00    -0.028 A 
ATOM     12  C   UNL     1     -10.573 -13.722 -11.696  0.00  0.00    +0.005 A 
ATOM     13  C   UNL     1     -11.358 -14.964 -13.611  0.00  0.00    +0.005 A 
ATOM     14  C   UNL     1     -11.892 -13.396 -11.371  0.00  0.00    +0.000 A 
ATOM     15  C   UNL     1     -12.674 -14.637 -13.283  0.00  0.00    +0.000 A 
ATOM     16  C   UNL     1     -12.940 -13.851 -12.165  0.00  0.00    +0.000 A 
ENDBRANCH  10  11
ENDBRANCH   1  10
TORSDOF 2
ENDMDL
MODEL 6
REMARK VINA RESULT:    -4.435     21.536     22.359
REMARK INTER + INTRA:          -5.083
REMARK INTER:                  -4.912
REMARK INTRA:                  -0.171
REMARK UNBOUND:                -0.129
REMARK  Name = 1550473
REMARK  2 active torsions:
REMARK  status: ('A' for Active; 'I' for Inactive)
REMARK    1  A    between atoms: N_1  and  C_4
REMARK    2  A    between atoms: C_4  and  C_5
REMARK                            x       y       z     vdW  Elec       q    Type
REMARK                         _______ _______ _______ _____ _____    ______ ____
ROOT
ATOM      1  N   UNL     1      14.163  -5.782   8.583  0.00  0.00    -0.354 N 
ATOM      2  N   UNL     1      13.364  -4.312  10.184  0.00  0.00    -0.372 N 
ATOM      3  N   UNL     1      13.342  -6.562  10.635  0.00  0.00    -0.372 N 
ATOM      4  C   UNL     1      13.628  -5.564   9.791  0.00  0.00    +0.166 C 
ATOM      5  H   UNL     1      14.328  -4.985   7.979  0.00  0.00    +0.163 HD
ATOM      6  H   UNL     1      12.964  -4.117  11.092  0.00  0.00    +0.159 HD
ATOM      7  H   UNL     1      13.573  -3.514   9.597  0.00  0.00    +0.159 HD
ATOM      8  H   UNL     1      13.512  -7.530  10.396  0.00  0.00    +0.159 HD
ATOM      9  H   UNL     1      12.930  -6.387  11.543  0.00  0.00    +0.159 HD
ENDROOT
BRANCH   1  10
ATOM     10  C   UNL     1      14.537  -7.103   8.080  0.00  0.00    +0.151 C 
BRANCH  10  11
ATOM     11  C   UNL     1      13.455  -7.606   7.165  0.00  0.00    -0.028 A 
ATOM     12  C   UNL     1      12.443  -8.445   7.653  0.00  0.00    +0.005 A 
ATOM     13  C   UNL     1      13.433  -7.242   5.810  0.00  0.00    +0.005 A 
ATOM     14  C   UNL     1      11.420  -8.887   6.810  0.00  0.00    +0.000 A 
ATOM     15  C   UNL     1      12.411  -7.687   4.971  0.00  0.00    +0.000 A 
ATOM     16  C   UNL     1      11.404  -8.507   5.473  0.00  0.00    +0.000 A 
ENDBRANCH  10  11
ENDBRANCH   1  10
TORSDOF 2
ENDMDL
MODEL 7
REMARK VINA RESULT:    -4.410     28.711     29.706
REMARK INTER + INTRA:          -5.055
REMARK INTER:                  -4.883
REMARK INTRA:                  -0.172
REMARK UNBOUND:                -0.129
REMARK  Name = 1550473
REMARK  2 active torsions:
REMARK  status: ('A' for Active; 'I' for Inactive)
REMARK    1  A    between atoms: N_1  and  C_4
REMARK    2  A    between atoms: C_4  and  C_5
REMARK                            x       y       z     vdW  Elec       q    Type
REMARK                         _______ _______ _______ _____ _____    ______ ____
ROOT
ATOM      1  N   UNL     1      11.388 -17.005 -11.705  0.00  0.00    -0.354 N 
ATOM      2  N   UNL     1      12.530 -18.372 -10.225  0.00  0.00    -0.372 N 
ATOM      3  N   UNL     1      11.160 -16.732  -9.388  0.00  0.00    -0.372 N 
ATOM      4  C   UNL     1      11.684 -17.359 -10.447  0.00  0.00    +0.166 C 
ATOM      5  H   UNL     1      11.841 -17.500 -12.464  0.00  0.00    +0.163 HD
ATOM      6  H   UNL     1      12.769 -18.664  -9.287  0.00  0.00    +0.159 HD
ATOM      7  H   UNL     1      12.946 -18.895 -10.985  0.00  0.00    +0.159 HD
ATOM      8  H   UNL     1      10.520 -15.956  -9.488  0.00  0.00    +0.159 HD
ATOM      9  H   UNL     1      11.397 -17.002  -8.442  0.00  0.00    +0.159 HD
ENDROOT
BRANCH   1  10
ATOM     10  C   UNL     1      10.437 -15.951 -12.055  0.00  0.00    +0.151 C 
BRANCH  10  11
ATOM     11  C   UNL     1      11.192 -14.772 -12.604  0.00  0.00    -0.028 A 
ATOM     12  C   UNL     1      11.293 -14.574 -13.989  0.00  0.00    +0.005 A 
ATOM     13  C   UNL     1      11.802 -13.845 -11.745  0.00  0.00    +0.005 A 
ATOM     14  C   UNL     1      11.969 -13.462 -14.499  0.00  0.00    +0.000 A 
ATOM     15  C   UNL     1      12.476 -12.737 -12.258  0.00  0.00    +0.000 A 
ATOM     16  C   UNL     1      12.557 -12.545 -13.635  0.00  0.00    +0.000 A 
ENDBRANCH  10  11
ENDBRANCH   1  10
TORSDOF 2
ENDMDL
MODEL 8
REMARK VINA RESULT:    -4.310     23.921     25.251
REMARK INTER + INTRA:          -4.944
REMARK INTER:                  -4.810
REMARK INTRA:                  -0.134
REMARK UNBOUND:                -0.129
REMARK  Name = 1550473
REMARK  2 active torsions:
REMARK  status: ('A' for Active; 'I' for Inactive)
REMARK    1  A    between atoms: N_1  and  C_4
REMARK    2  A    between atoms: C_4  and  C_5
REMARK                            x       y       z     vdW  Elec       q    Type
REMARK                         _______ _______ _______ _____ _____    ______ ____
ROOT
ATOM      1  N   UNL     1       4.389   6.219  25.104  0.00  0.00    -0.354 N 
ATOM      2  N   UNL     1       5.916   7.171  23.645  0.00  0.00    -0.372 N 
ATOM      3  N   UNL     1       5.829   7.929  25.809  0.00  0.00    -0.372 N 
ATOM      4  C   UNL     1       5.368   7.102  24.864  0.00  0.00    +0.166 C 
ATOM      5  H   UNL     1       4.064   5.641  24.337  0.00  0.00    +0.163 HD
ATOM      6  H   UNL     1       6.659   7.824  23.436  0.00  0.00    +0.159 HD
ATOM      7  H   UNL     1       5.621   6.560  22.893  0.00  0.00    +0.159 HD
ATOM      8  H   UNL     1       5.454   7.930  26.748  0.00  0.00    +0.159 HD
ATOM      9  H   UNL     1       6.564   8.598  25.616  0.00  0.00    +0.159 HD
ENDROOT
BRANCH   1  10
ATOM     10  C   UNL     1       3.763   6.027  26.411  0.00  0.00    +0.151 C 
BRANCH  10  11
ATOM     11  C   UNL     1       2.309   5.697  26.215  0.00  0.00    -0.028 A 
ATOM     12  C   UNL     1       1.511   5.323  27.306  0.00  0.00    +0.005 A 
ATOM     13  C   UNL     1       1.722   5.763  24.942  0.00  0.00    +0.005 A 
ATOM     14  C   UNL     1       0.153   5.046  27.130  0.00  0.00    +0.000 A 
ATOM     15  C   UNL     1       0.366   5.485  24.770  0.00  0.00    +0.000 A 
ATOM     16  C   UNL     1      -0.419   5.129  25.864  0.00  0.00    +0.000 A 
ENDBRANCH  10  11
ENDBRANCH   1  10
TORSDOF 2
ENDMDL
MODEL 9
REMARK VINA RESULT:    -4.266     21.953     23.748
REMARK INTER + INTRA:          -4.895
REMARK INTER:                  -4.721
REMARK INTRA:                  -0.174
REMARK UNBOUND:                -0.129
REMARK  Name = 1550473
REMARK  2 active torsions:
REMARK  status: ('A' for Active; 'I' for Inactive)
REMARK    1  A    between atoms: N_1  and  C_4
REMARK    2  A    between atoms: C_4  and  C_5
REMARK                            x       y       z     vdW  Elec       q    Type
REMARK                         _______ _______ _______ _____ _____    ______ ____
ROOT
ATOM      1  N   UNL     1     -11.435  -2.776 -19.911  0.00  0.00    -0.354 N 
ATOM      2  N   UNL     1     -13.038  -4.444 -20.013  0.00  0.00    -0.372 N 
ATOM      3  N   UNL     1     -13.325  -2.551 -21.278  0.00  0.00    -0.372 N 
ATOM      4  C   UNL     1     -12.590  -3.244 -20.401  0.00  0.00    +0.166 C 
ATOM      5  H   UNL     1     -10.940  -3.336 -19.227  0.00  0.00    +0.163 HD
ATOM      6  H   UNL     1     -13.904  -4.826 -20.369  0.00  0.00    +0.159 HD
ATOM      7  H   UNL     1     -12.518  -5.023 -19.365  0.00  0.00    +0.159 HD
ATOM      8  H   UNL     1     -13.046  -1.637 -21.606  0.00  0.00    +0.159 HD
ATOM      9  H   UNL     1     -14.201  -2.911 -21.636  0.00  0.00    +0.159 HD
ENDROOT
BRANCH   1  10
ATOM     10  C   UNL     1     -10.833  -1.505 -20.309  0.00  0.00    +0.151 C 
BRANCH  10  11
ATOM     11  C   UNL     1     -11.224  -0.443 -19.318  0.00  0.00    -0.028 A 
ATOM     12  C   UNL     1     -12.112   0.579 -19.683  0.00  0.00    +0.005 A 
ATOM     13  C   UNL     1     -10.714  -0.458 -18.011  0.00  0.00    +0.005 A 
ATOM     14  C   UNL     1     -12.499   1.548 -18.754  0.00  0.00    +0.000 A 
ATOM     15  C   UNL     1     -11.102   0.512 -17.086  0.00  0.00    +0.000 A 
ATOM     16  C   UNL     1     -11.997   1.513 -17.457  0.00  0.00    +0.000 A 
ENDBRANCH  10  11
ENDBRANCH   1  10
TORSDOF 2
ENDMDL
