MODEL 1
REMARK VINA RESULT:    -6.257      0.000      0.000
REMARK INTER + INTRA:          -7.128
REMARK INTER:                  -6.989
REMARK INTRA:                  -0.140
REMARK UNBOUND:                -0.140
REMARK  Name = 1550473
REMARK  2 active torsions:
REMARK  status: ('A' for Active; 'I' for Inactive)
REMARK    1  A    between atoms: N_1  and  C_4
REMARK    2  A    between atoms: C_4  and  C_5
REMARK                            x       y       z     vdW  Elec       q    Type
REMARK                         _______ _______ _______ _____ _____    ______ ____
ROOT
ATOM      1  N   UNL     1       5.630   6.743  -3.011  0.00  0.00    -0.354 N 
ATOM      2  N   UNL     1       5.855   4.617  -3.903  0.00  0.00    -0.372 N 
ATOM      3  N   UNL     1       6.128   6.432  -5.280  0.00  0.00    -0.372 N 
ATOM      4  C   UNL     1       5.870   5.946  -4.061  0.00  0.00    +0.166 C 
ATOM      5  H   UNL     1       5.411   6.312  -2.120  0.00  0.00    +0.163 HD
ATOM      6  H   UNL     1       6.035   3.991  -4.676  0.00  0.00    +0.159 HD
ATOM      7  H   UNL     1       5.681   4.190  -3.001  0.00  0.00    +0.159 HD
ATOM      8  H   UNL     1       6.148   7.426  -5.467  0.00  0.00    +0.159 HD
ATOM      9  H   UNL     1       6.300   5.821  -6.068  0.00  0.00    +0.159 HD
ENDROOT
BRANCH   1  10
ATOM     10  C   UNL     1       5.676   8.203  -3.065  0.00  0.00    +0.151 C 
BRANCH  10  11
ATOM     11  C   UNL     1       4.504   8.760  -2.305  0.00  0.00    -0.028 A 
ATOM     12  C   UNL     1       4.400  10.138  -2.067  0.00  0.00    +0.005 A 
ATOM     13  C   UNL     1       3.492   7.915  -1.823  0.00  0.00    +0.005 A 
ATOM     14  C   UNL     1       3.296  10.659  -1.387  0.00  0.00    +0.000 A 
ATOM     15  C   UNL     1       2.393   8.439  -1.144  0.00  0.00    +0.000 A 
ATOM     16  C   UNL     1       2.294   9.811  -0.928  0.00  0.00    +0.000 A 
ENDBRANCH  10  11
ENDBRANCH   1  10
TORSDOF 2
ENDMDL
MODEL 2
REMARK VINA RESULT:    -5.747     16.705     17.493
REMARK INTER + INTRA:          -6.559
REMARK INTER:                  -6.387
REMARK INTRA:                  -0.172
REMARK UNBOUND:                -0.140
REMARK  Name = 1550473
REMARK  2 active torsions:
REMARK  status: ('A' for Active; 'I' for Inactive)
REMARK    1  A    between atoms: N_1  and  C_4
REMARK    2  A    between atoms: C_4  and  C_5
REMARK                            x       y       z     vdW  Elec       q    Type
REMARK                         _______ _______ _______ _____ _____    ______ ____
ROOT
ATOM      1  N   UNL     1      14.646   9.610  11.609  0.00  0.00    -0.354 N 
ATOM      2  N   UNL     1      12.684  10.832  11.473  0.00  0.00    -0.372 N 
ATOM      3  N   UNL     1      14.447  11.413  10.125  0.00  0.00    -0.372 N 
ATOM      4  C   UNL     1      13.940  10.612  11.068  0.00  0.00    +0.166 C 
ATOM      5  H   UNL     1      14.215   9.058  12.341  0.00  0.00    +0.163 HD
ATOM      6  H   UNL     1      12.125  11.578  11.081  0.00  0.00    +0.159 HD
ATOM      7  H   UNL     1      12.239  10.250  12.173  0.00  0.00    +0.159 HD
ATOM      8  H   UNL     1      15.391  11.304   9.780  0.00  0.00    +0.159 HD
ATOM      9  H   UNL     1      13.908  12.173   9.729  0.00  0.00    +0.159 HD
ENDROOT
BRANCH   1  10
ATOM     10  C   UNL     1      16.004   9.253  11.200  0.00  0.00    +0.151 C 
BRANCH  10  11
ATOM     11  C   UNL     1      15.964   7.948  10.454  0.00  0.00    -0.028 A 
ATOM     12  C   UNL     1      15.748   7.927   9.068  0.00  0.00    +0.005 A 
ATOM     13  C   UNL     1      16.148   6.730  11.126  0.00  0.00    +0.005 A 
ATOM     14  C   UNL     1      15.742   6.717   8.370  0.00  0.00    +0.000 A 
ATOM     15  C   UNL     1      16.140   5.524  10.425  0.00  0.00    +0.000 A 
ATOM     16  C   UNL     1      15.939   5.518   9.047  0.00  0.00    +0.000 A 
ENDBRANCH  10  11
ENDBRANCH   1  10
TORSDOF 2
ENDMDL
MODEL 3
REMARK VINA RESULT:    -5.194      4.147      6.388
REMARK INTER + INTRA:          -5.940
REMARK INTER:                  -5.808
REMARK INTRA:                  -0.133
REMARK UNBOUND:                -0.140
REMARK  Name = 1550473
REMARK  2 active torsions:
REMARK  status: ('A' for Active; 'I' for Inactive)
REMARK    1  A    between atoms: N_1  and  C_4
REMARK    2  A    between atoms: C_4  and  C_5
REMARK                            x       y       z     vdW  Elec       q    Type
REMARK                         _______ _______ _______ _____ _____    ______ ____
ROOT
ATOM      1  N   UNL     1       8.404   7.603  -3.488  0.00  0.00    -0.354 N 
ATOM      2  N   UNL     1       8.370   9.835  -4.106  0.00  0.00    -0.372 N 
ATOM      3  N   UNL     1       6.503   8.927  -3.129  0.00  0.00    -0.372 N 
ATOM      4  C   UNL     1       7.757   8.774  -3.570  0.00  0.00    +0.166 C 
ATOM      5  H   UNL     1       9.342   7.545  -3.867  0.00  0.00    +0.163 HD
ATOM      6  H   UNL     1       7.909  10.732  -4.178  0.00  0.00    +0.159 HD
ATOM      7  H   UNL     1       9.324   9.785  -4.443  0.00  0.00    +0.159 HD
ATOM      8  H   UNL     1       5.983   8.163  -2.719  0.00  0.00    +0.159 HD
ATOM      9  H   UNL     1       6.020   9.813  -3.203  0.00  0.00    +0.159 HD
ENDROOT
BRANCH   1  10
ATOM     10  C   UNL     1       7.845   6.401  -2.873  0.00  0.00    +0.151 C 
BRANCH  10  11
ATOM     11  C   UNL     1       7.892   5.273  -3.866  0.00  0.00    -0.028 A 
ATOM     12  C   UNL     1       6.759   4.481  -4.098  0.00  0.00    +0.005 A 
ATOM     13  C   UNL     1       9.067   4.995  -4.583  0.00  0.00    +0.005 A 
ATOM     14  C   UNL     1       6.794   3.452  -5.043  0.00  0.00    +0.000 A 
ATOM     15  C   UNL     1       9.098   3.967  -5.524  0.00  0.00    +0.000 A 
ATOM     16  C   UNL     1       7.960   3.197  -5.756  0.00  0.00    +0.000 A 
ENDBRANCH  10  11
ENDBRANCH   1  10
TORSDOF 2
ENDMDL
MODEL 4
REMARK VINA RESULT:    -5.188      2.821      4.397
REMARK INTER + INTRA:          -5.934
REMARK INTER:                  -5.811
REMARK INTRA:                  -0.123
REMARK UNBOUND:                -0.140
REMARK  Name = 1550473
REMARK  2 active torsions:
REMARK  status: ('A' for Active; 'I' for Inactive)
REMARK    1  A    between atoms: N_1  and  C_4
REMARK    2  A    between atoms: C_4  and  C_5
REMARK                            x       y       z     vdW  Elec       q    Type
REMARK                         _______ _______ _______ _____ _____    ______ ____
ROOT
ATOM      1  N   UNL     1       6.719   3.528  -5.064  0.00  0.00    -0.354 N 
ATOM      2  N   UNL     1       6.122   1.784  -6.467  0.00  0.00    -0.372 N 
ATOM      3  N   UNL     1       8.215   2.702  -6.667  0.00  0.00    -0.372 N 
ATOM      4  C   UNL     1       7.025   2.683  -6.058  0.00  0.00    +0.166 C 
ATOM      5  H   UNL     1       5.789   3.483  -4.663  0.00  0.00    +0.163 HD
ATOM      6  H   UNL     1       6.325   1.132  -7.212  0.00  0.00    +0.159 HD
ATOM      7  H   UNL     1       5.209   1.711  -6.034  0.00  0.00    +0.159 HD
ATOM      8  H   UNL     1       8.939   3.360  -6.409  0.00  0.00    +0.159 HD
ATOM      9  H   UNL     1       8.434   2.065  -7.423  0.00  0.00    +0.159 HD
ENDROOT
BRANCH   1  10
ATOM     10  C   UNL     1       7.649   4.508  -4.507  0.00  0.00    +0.151 C 
BRANCH  10  11
ATOM     11  C   UNL     1       6.869   5.671  -3.959  0.00  0.00    -0.028 A 
ATOM     12  C   UNL     1       5.530   5.510  -3.572  0.00  0.00    +0.005 A 
ATOM     13  C   UNL     1       7.464   6.934  -3.819  0.00  0.00    +0.005 A 
ATOM     14  C   UNL     1       4.814   6.582  -3.034  0.00  0.00    +0.000 A 
ATOM     15  C   UNL     1       6.745   8.002  -3.283  0.00  0.00    +0.000 A 
ATOM     16  C   UNL     1       5.421   7.825  -2.889  0.00  0.00    +0.000 A 
ENDBRANCH  10  11
ENDBRANCH   1  10
TORSDOF 2
ENDMDL
MODEL 5
REMARK VINA RESULT:    -5.175     16.152     17.399
REMARK INTER + INTRA:          -5.920
REMARK INTER:                  -5.787
REMARK INTRA:                  -0.133
REMARK UNBOUND:                -0.140
REMARK  Name = 1550473
REMARK  2 active torsions:
REMARK  status: ('A' for Active; 'I' for Inactive)
REMARK    1  A    between atoms: N_1  and  C_4
REMARK    2  A    between atoms: C_4  and  C_5
REMARK                            x       y       z     vdW  Elec       q    Type
REMARK                         _______ _______ _______ _____ _____    ______ ____
ROOT
ATOM      1  N   UNL     1      -9.308  -0.907  -3.722  0.00  0.00    -0.354 N 
ATOM      2  N   UNL     1      -7.509  -1.978  -4.713  0.00  0.00    -0.372 N 
ATOM      3  N   UNL     1      -7.141  -0.030  -3.558  0.00  0.00    -0.372 N 
ATOM      4  C   UNL     1      -7.996  -0.962  -3.990  0.00  0.00    +0.166 C 
ATOM      5  H   UNL     1      -9.908  -1.628  -4.104  0.00  0.00    +0.163 HD
ATOM      6  H   UNL     1      -6.524  -2.049  -4.928  0.00  0.00    +0.159 HD
ATOM      7  H   UNL     1      -8.104  -2.723  -5.054  0.00  0.00    +0.159 HD
ATOM      8  H   UNL     1      -7.446   0.766  -3.013  0.00  0.00    +0.159 HD
ATOM      9  H   UNL     1      -6.153  -0.076  -3.773  0.00  0.00    +0.159 HD
ENDROOT
BRANCH   1  10
ATOM     10  C   UNL     1      -9.931   0.128  -2.900  0.00  0.00    +0.151 C 
BRANCH  10  11
ATOM     11  C   UNL     1     -10.899  -0.518  -1.947  0.00  0.00    -0.028 A 
ATOM     12  C   UNL     1     -10.477  -1.547  -1.093  0.00  0.00    +0.005 A 
ATOM     13  C   UNL     1     -12.238  -0.102  -1.890  0.00  0.00    +0.005 A 
ATOM     14  C   UNL     1     -11.368  -2.127  -0.187  0.00  0.00    +0.000 A 
ATOM     15  C   UNL     1     -13.125  -0.684  -0.985  0.00  0.00    +0.000 A 
ATOM     16  C   UNL     1     -12.689  -1.695  -0.132  0.00  0.00    +0.000 A 
ENDBRANCH  10  11
ENDBRANCH   1  10
TORSDOF 2
ENDMDL
MODEL 6
REMARK VINA RESULT:    -5.104      4.211      7.984
REMARK INTER + INTRA:          -5.841
REMARK INTER:                  -5.718
REMARK INTRA:                  -0.123
REMARK UNBOUND:                -0.140
REMARK  Name = 1550473
REMARK  2 active torsions:
REMARK  status: ('A' for Active; 'I' for Inactive)
REMARK    1  A    between atoms: N_1  and  C_4
REMARK    2  A    between atoms: C_4  and  C_5
REMARK                            x       y       z     vdW  Elec       q    Type
REMARK                         _______ _______ _______ _____ _____    ______ ____
ROOT
ATOM      1  N   UNL     1       6.465   4.526  -4.992  0.00  0.00    -0.354 N 
ATOM      2  N   UNL     1       6.070   6.801  -5.183  0.00  0.00    -0.372 N 
ATOM      3  N   UNL     1       5.335   5.701  -3.308  0.00  0.00    -0.372 N 
ATOM      4  C   UNL     1       5.958   5.661  -4.490  0.00  0.00    +0.166 C 
ATOM      5  H   UNL     1       6.898   4.556  -5.907  0.00  0.00    +0.163 HD
ATOM      6  H   UNL     1       5.700   7.673  -4.828  0.00  0.00    +0.159 HD
ATOM      7  H   UNL     1       6.544   6.836  -6.077  0.00  0.00    +0.159 HD
ATOM      8  H   UNL     1       5.212   4.874  -2.739  0.00  0.00    +0.159 HD
ATOM      9  H   UNL     1       4.948   6.562  -2.941  0.00  0.00    +0.159 HD
ENDROOT
BRANCH   1  10
ATOM     10  C   UNL     1       6.443   3.242  -4.294  0.00  0.00    +0.151 C 
BRANCH  10  11
ATOM     11  C   UNL     1       7.437   2.316  -4.938  0.00  0.00    -0.028 A 
ATOM     12  C   UNL     1       7.795   1.111  -4.315  0.00  0.00    +0.005 A 
ATOM     13  C   UNL     1       8.020   2.635  -6.174  0.00  0.00    +0.005 A 
ATOM     14  C   UNL     1       8.696   0.236  -4.928  0.00  0.00    +0.000 A 
ATOM     15  C   UNL     1       8.920   1.759  -6.782  0.00  0.00    +0.000 A 
ATOM     16  C   UNL     1       9.255   0.559  -6.160  0.00  0.00    +0.000 A 
ENDBRANCH  10  11
ENDBRANCH   1  10
TORSDOF 2
ENDMDL
MODEL 7
REMARK VINA RESULT:    -5.103      4.233      5.461
REMARK INTER + INTRA:          -5.839
REMARK INTER:                  -5.677
REMARK INTRA:                  -0.161
REMARK UNBOUND:                -0.140
REMARK  Name = 1550473
REMARK  2 active torsions:
REMARK  status: ('A' for Active; 'I' for Inactive)
REMARK    1  A    between atoms: N_1  and  C_4
REMARK    2  A    between atoms: C_4  and  C_5
REMARK                            x       y       z     vdW  Elec       q    Type
REMARK                         _______ _______ _______ _____ _____    ______ ____
ROOT
ATOM      1  N   UNL     1       8.198   2.512  -5.284  0.00  0.00    -0.354 N 
ATOM      2  N   UNL     1       7.447   0.321  -5.241  0.00  0.00    -0.372 N 
ATOM      3  N   UNL     1       6.278   1.870  -6.465  0.00  0.00    -0.372 N 
ATOM      4  C   UNL     1       7.311   1.583  -5.665  0.00  0.00    +0.166 C 
ATOM      5  H   UNL     1       8.941   2.237  -4.652  0.00  0.00    +0.163 HD
ATOM      6  H   UNL     1       6.795  -0.402  -5.514  0.00  0.00    +0.159 HD
ATOM      7  H   UNL     1       8.217   0.039  -4.646  0.00  0.00    +0.159 HD
ATOM      8  H   UNL     1       6.116   2.805  -6.815  0.00  0.00    +0.159 HD
ATOM      9  H   UNL     1       5.609   1.163  -6.741  0.00  0.00    +0.159 HD
ENDROOT
BRANCH   1  10
ATOM     10  C   UNL     1       8.171   3.902  -5.734  0.00  0.00    +0.151 C 
BRANCH  10  11
ATOM     11  C   UNL     1       7.661   4.770  -4.616  0.00  0.00    -0.028 A 
ATOM     12  C   UNL     1       8.554   5.500  -3.818  0.00  0.00    +0.005 A 
ATOM     13  C   UNL     1       6.287   4.870  -4.353  0.00  0.00    +0.005 A 
ATOM     14  C   UNL     1       8.080   6.330  -2.799  0.00  0.00    +0.000 A 
ATOM     15  C   UNL     1       5.817   5.698  -3.333  0.00  0.00    +0.000 A 
ATOM     16  C   UNL     1       6.714   6.430  -2.559  0.00  0.00    +0.000 A 
ENDBRANCH  10  11
ENDBRANCH   1  10
TORSDOF 2
ENDMDL
MODEL 8
REMARK VINA RESULT:    -5.004     23.025     24.447
REMARK INTER + INTRA:          -5.728
REMARK INTER:                  -5.608
REMARK INTRA:                  -0.121
REMARK UNBOUND:                -0.140
REMARK  Name = 1550473
REMARK  2 active torsions:
REMARK  status: ('A' for Active; 'I' for Inactive)
REMARK    1  A    between atoms: N_1  and  C_4
REMARK    2  A    between atoms: C_4  and  C_5
REMARK                            x       y       z     vdW  Elec       q    Type
REMARK                         _______ _______ _______ _____ _____    ______ ____
ROOT
ATOM      1  N   UNL     1     -10.164 -10.404  -6.293  0.00  0.00    -0.354 N 
ATOM      2  N   UNL     1     -12.362  -9.826  -5.848  0.00  0.00    -0.372 N 
ATOM      3  N   UNL     1     -10.901  -8.191  -6.523  0.00  0.00    -0.372 N 
ATOM      4  C   UNL     1     -11.127  -9.475  -6.225  0.00  0.00    +0.166 C 
ATOM      5  H   UNL     1     -10.392 -11.354  -6.025  0.00  0.00    +0.163 HD
ATOM      6  H   UNL     1     -13.110  -9.148  -5.791  0.00  0.00    +0.159 HD
ATOM      7  H   UNL     1     -12.599 -10.785  -5.625  0.00  0.00    +0.159 HD
ATOM      8  H   UNL     1      -9.989  -7.860  -6.808  0.00  0.00    +0.159 HD
ATOM      9  H   UNL     1     -11.633  -7.495  -6.460  0.00  0.00    +0.159 HD
ENDROOT
BRANCH   1  10
ATOM     10  C   UNL     1      -8.799 -10.135  -6.744  0.00  0.00    +0.151 C 
BRANCH  10  11
ATOM     11  C   UNL     1      -8.320 -11.292  -7.576  0.00  0.00    -0.028 A 
ATOM     12  C   UNL     1      -8.903 -11.561  -8.824  0.00  0.00    +0.005 A 
ATOM     13  C   UNL     1      -7.280 -12.120  -7.126  0.00  0.00    +0.005 A 
ATOM     14  C   UNL     1      -8.438 -12.618  -9.611  0.00  0.00    +0.000 A 
ATOM     15  C   UNL     1      -6.820 -13.174  -7.915  0.00  0.00    +0.000 A 
ATOM     16  C   UNL     1      -7.397 -13.421  -9.158  0.00  0.00    +0.000 A 
ENDBRANCH  10  11
ENDBRANCH   1  10
TORSDOF 2
ENDMDL
MODEL 9
REMARK VINA RESULT:    -4.838     17.942     18.422
REMARK INTER + INTRA:          -5.544
REMARK INTER:                  -5.427
REMARK INTRA:                  -0.117
REMARK UNBOUND:                -0.140
REMARK  Name = 1550473
REMARK  2 active torsions:
REMARK  status: ('A' for Active; 'I' for Inactive)
REMARK    1  A    between atoms: N_1  and  C_4
REMARK    2  A    between atoms: C_4  and  C_5
REMARK                            x       y       z     vdW  Elec       q    Type
REMARK                         _______ _______ _______ _____ _____    ______ ____
ROOT
ATOM      1  N   UNL     1      16.072   3.943  11.482  0.00  0.00    -0.354 N 
ATOM      2  N   UNL     1      16.081   2.244  13.056  0.00  0.00    -0.372 N 
ATOM      3  N   UNL     1      17.199   1.928  11.077  0.00  0.00    -0.372 N 
ATOM      4  C   UNL     1      16.452   2.715  11.859  0.00  0.00    +0.166 C 
ATOM      5  H   UNL     1      15.481   4.478  12.108  0.00  0.00    +0.163 HD
ATOM      6  H   UNL     1      16.355   1.323  13.369  0.00  0.00    +0.159 HD
ATOM      7  H   UNL     1      15.529   2.799  13.699  0.00  0.00    +0.159 HD
ATOM      8  H   UNL     1      17.506   2.222  10.160  0.00  0.00    +0.159 HD
ATOM      9  H   UNL     1      17.473   0.998  11.368  0.00  0.00    +0.159 HD
ENDROOT
BRANCH   1  10
ATOM     10  C   UNL     1      16.467   4.570  10.222  0.00  0.00    +0.151 C 
BRANCH  10  11
ATOM     11  C   UNL     1      16.373   6.064  10.366  0.00  0.00    -0.028 A 
ATOM     12  C   UNL     1      16.916   6.707  11.488  0.00  0.00    +0.005 A 
ATOM     13  C   UNL     1      15.747   6.843   9.381  0.00  0.00    +0.005 A 
ATOM     14  C   UNL     1      16.855   8.097  11.608  0.00  0.00    +0.000 A 
ATOM     15  C   UNL     1      15.688   8.231   9.504  0.00  0.00    +0.000 A 
ATOM     16  C   UNL     1      16.244   8.858  10.617  0.00  0.00    +0.000 A 
ENDBRANCH  10  11
ENDBRANCH   1  10
TORSDOF 2
ENDMDL
