MODEL 1
REMARK VINA RESULT:    -6.783      0.000      0.000
REMARK INTER + INTRA:          -7.704
REMARK INTER:                  -7.576
REMARK INTRA:                  -0.128
REMARK UNBOUND:                -0.128
REMARK  Name = 1550473
REMARK  2 active torsions:
REMARK  status: ('A' for Active; 'I' for Inactive)
REMARK    1  A    between atoms: N_1  and  C_4
REMARK    2  A    between atoms: C_4  and  C_5
REMARK                            x       y       z     vdW  Elec       q    Type
REMARK                         _______ _______ _______ _____ _____    ______ ____
ROOT
ATOM      1  N   UNL     1      -1.075   2.229  -0.211  0.00  0.00    -0.354 N 
ATOM      2  N   UNL     1       0.767   2.368  -1.608  0.00  0.00    -0.372 N 
ATOM      3  N   UNL     1      -0.708   0.632  -1.888  0.00  0.00    -0.372 N 
ATOM      4  C   UNL     1      -0.352   1.740  -1.228  0.00  0.00    +0.166 C 
ATOM      5  H   UNL     1      -0.735   3.055   0.268  0.00  0.00    +0.163 HD
ATOM      6  H   UNL     1       1.331   2.025  -2.374  0.00  0.00    +0.159 HD
ATOM      7  H   UNL     1       1.080   3.219  -1.158  0.00  0.00    +0.159 HD
ATOM      8  H   UNL     1      -1.538   0.108  -1.645  0.00  0.00    +0.159 HD
ATOM      9  H   UNL     1      -0.150   0.267  -2.649  0.00  0.00    +0.159 HD
ENDROOT
BRANCH   1  10
ATOM     10  C   UNL     1      -2.337   1.650   0.247  0.00  0.00    +0.151 C 
BRANCH  10  11
ATOM     11  C   UNL     1      -3.267   2.760   0.654  0.00  0.00    -0.028 A 
ATOM     12  C   UNL     1      -3.978   2.686   1.861  0.00  0.00    +0.005 A 
ATOM     13  C   UNL     1      -3.436   3.891  -0.158  0.00  0.00    +0.005 A 
ATOM     14  C   UNL     1      -4.819   3.730   2.254  0.00  0.00    +0.000 A 
ATOM     15  C   UNL     1      -4.276   4.931   0.238  0.00  0.00    +0.000 A 
ATOM     16  C   UNL     1      -4.966   4.851   1.445  0.00  0.00    +0.000 A 
ENDBRANCH  10  11
ENDBRANCH   1  10
TORSDOF 2
ENDMDL
MODEL 2
REMARK VINA RESULT:    -6.562      3.505      4.871
REMARK INTER + INTRA:          -7.457
REMARK INTER:                  -7.332
REMARK INTRA:                  -0.125
REMARK UNBOUND:                -0.128
REMARK  Name = 1550473
REMARK  2 active torsions:
REMARK  status: ('A' for Active; 'I' for Inactive)
REMARK    1  A    between atoms: N_1  and  C_4
REMARK    2  A    between atoms: C_4  and  C_5
REMARK                            x       y       z     vdW  Elec       q    Type
REMARK                         _______ _______ _______ _____ _____    ______ ____
ROOT
ATOM      1  N   UNL     1      -4.732   0.277   2.298  0.00  0.00    -0.354 N 
ATOM      2  N   UNL     1      -6.013  -1.640   2.079  0.00  0.00    -0.372 N 
ATOM      3  N   UNL     1      -7.070   0.367   2.423  0.00  0.00    -0.372 N 
ATOM      4  C   UNL     1      -5.932  -0.318   2.268  0.00  0.00    +0.166 C 
ATOM      5  H   UNL     1      -3.905  -0.303   2.205  0.00  0.00    +0.163 HD
ATOM      6  H   UNL     1      -6.905  -2.116   2.049  0.00  0.00    +0.159 HD
ATOM      7  H   UNL     1      -5.188  -2.210   1.940  0.00  0.00    +0.159 HD
ATOM      8  H   UNL     1      -7.077   1.367   2.575  0.00  0.00    +0.159 HD
ATOM      9  H   UNL     1      -7.972  -0.093   2.407  0.00  0.00    +0.159 HD
ENDROOT
BRANCH   1  10
ATOM     10  C   UNL     1      -4.536   1.718   2.444  0.00  0.00    +0.151 C 
BRANCH  10  11
ATOM     11  C   UNL     1      -3.600   2.199   1.370  0.00  0.00    -0.028 A 
ATOM     12  C   UNL     1      -2.398   1.521   1.118  0.00  0.00    +0.005 A 
ATOM     13  C   UNL     1      -3.911   3.328   0.598  0.00  0.00    +0.005 A 
ATOM     14  C   UNL     1      -1.542   1.949   0.100  0.00  0.00    +0.000 A 
ATOM     15  C   UNL     1      -3.054   3.753  -0.417  0.00  0.00    +0.000 A 
ATOM     16  C   UNL     1      -1.871   3.062  -0.667  0.00  0.00    +0.000 A 
ENDBRANCH  10  11
ENDBRANCH   1  10
TORSDOF 2
ENDMDL
MODEL 3
REMARK VINA RESULT:    -5.435     19.006     20.324
REMARK INTER + INTRA:          -6.198
REMARK INTER:                  -6.072
REMARK INTRA:                  -0.126
REMARK UNBOUND:                -0.128
REMARK  Name = 1550473
REMARK  2 active torsions:
REMARK  status: ('A' for Active; 'I' for Inactive)
REMARK    1  A    between atoms: N_1  and  C_4
REMARK    2  A    between atoms: C_4  and  C_5
REMARK                            x       y       z     vdW  Elec       q    Type
REMARK                         _______ _______ _______ _____ _____    ______ ____
ROOT
ATOM      1  N   UNL     1      -6.210  -8.890  15.041  0.00  0.00    -0.354 N 
ATOM      2  N   UNL     1      -7.737  -7.155  14.895  0.00  0.00    -0.372 N 
ATOM      3  N   UNL     1      -7.456  -8.541  13.088  0.00  0.00    -0.372 N 
ATOM      4  C   UNL     1      -7.124  -8.208  14.340  0.00  0.00    +0.166 C 
ATOM      5  H   UNL     1      -5.981  -8.569  15.975  0.00  0.00    +0.163 HD
ATOM      6  H   UNL     1      -8.433  -6.623  14.391  0.00  0.00    +0.159 HD
ATOM      7  H   UNL     1      -7.539  -6.864  15.844  0.00  0.00    +0.159 HD
ATOM      8  H   UNL     1      -7.026  -9.322  12.610  0.00  0.00    +0.159 HD
ATOM      9  H   UNL     1      -8.143  -8.014  12.563  0.00  0.00    +0.159 HD
ENDROOT
BRANCH   1  10
ATOM     10  C   UNL     1      -5.525 -10.084  14.548  0.00  0.00    +0.151 C 
BRANCH  10  11
ATOM     11  C   UNL     1      -4.289 -10.317  15.373  0.00  0.00    -0.028 A 
ATOM     12  C   UNL     1      -3.583 -11.525  15.273  0.00  0.00    +0.005 A 
ATOM     13  C   UNL     1      -3.815  -9.331  16.252  0.00  0.00    +0.005 A 
ATOM     14  C   UNL     1      -2.418 -11.729  16.016  0.00  0.00    +0.000 A 
ATOM     15  C   UNL     1      -2.652  -9.540  16.994  0.00  0.00    +0.000 A 
ATOM     16  C   UNL     1      -1.953 -10.738  16.874  0.00  0.00    +0.000 A 
ENDBRANCH  10  11
ENDBRANCH   1  10
TORSDOF 2
ENDMDL
MODEL 4
REMARK VINA RESULT:    -5.411     22.918     24.531
REMARK INTER + INTRA:          -6.172
REMARK INTER:                  -6.032
REMARK INTRA:                  -0.140
REMARK UNBOUND:                -0.128
REMARK  Name = 1550473
REMARK  2 active torsions:
REMARK  status: ('A' for Active; 'I' for Inactive)
REMARK    1  A    between atoms: N_1  and  C_4
REMARK    2  A    between atoms: C_4  and  C_5
REMARK                            x       y       z     vdW  Elec       q    Type
REMARK                         _______ _______ _______ _____ _____    ______ ____
ROOT
ATOM      1  N   UNL     1       2.636 -15.550 -17.166  0.00  0.00    -0.354 N 
ATOM      2  N   UNL     1       0.814 -16.917 -17.589  0.00  0.00    -0.372 N 
ATOM      3  N   UNL     1       1.358 -15.290 -19.113  0.00  0.00    -0.372 N 
ATOM      4  C   UNL     1       1.614 -15.908 -17.955  0.00  0.00    +0.166 C 
ATOM      5  H   UNL     1       2.759 -16.039 -16.287  0.00  0.00    +0.163 HD
ATOM      6  H   UNL     1       0.038 -17.211 -18.165  0.00  0.00    +0.159 HD
ATOM      7  H   UNL     1       0.967 -17.434 -16.731  0.00  0.00    +0.159 HD
ATOM      8  H   UNL     1       1.921 -14.517 -19.444  0.00  0.00    +0.159 HD
ATOM      9  H   UNL     1       0.578 -15.563 -19.698  0.00  0.00    +0.159 HD
ENDROOT
BRANCH   1  10
ATOM     10  C   UNL     1       3.598 -14.501 -17.499  0.00  0.00    +0.151 C 
BRANCH  10  11
ATOM     11  C   UNL     1       3.076 -13.181 -17.003  0.00  0.00    -0.028 A 
ATOM     12  C   UNL     1       2.720 -13.017 -15.656  0.00  0.00    +0.005 A 
ATOM     13  C   UNL     1       2.941 -12.088 -17.873  0.00  0.00    +0.005 A 
ATOM     14  C   UNL     1       2.264 -11.782 -15.188  0.00  0.00    +0.000 A 
ATOM     15  C   UNL     1       2.484 -10.858 -17.402  0.00  0.00    +0.000 A 
ATOM     16  C   UNL     1       2.148 -10.704 -16.059  0.00  0.00    +0.000 A 
ENDBRANCH  10  11
ENDBRANCH   1  10
TORSDOF 2
ENDMDL
MODEL 5
REMARK VINA RESULT:    -5.085     23.725     24.964
REMARK INTER + INTRA:          -5.807
REMARK INTER:                  -5.666
REMARK INTRA:                  -0.141
REMARK UNBOUND:                -0.128
REMARK  Name = 1550473
REMARK  2 active torsions:
REMARK  status: ('A' for Active; 'I' for Inactive)
REMARK    1  A    between atoms: N_1  and  C_4
REMARK    2  A    between atoms: C_4  and  C_5
REMARK                            x       y       z     vdW  Elec       q    Type
REMARK                         _______ _______ _______ _____ _____    ______ ____
ROOT
ATOM      1  N   UNL     1       2.468 -13.376 -17.879  0.00  0.00    -0.354 N 
ATOM      2  N   UNL     1       2.384 -15.641 -17.403  0.00  0.00    -0.372 N 
ATOM      3  N   UNL     1       3.037 -14.184 -15.754  0.00  0.00    -0.372 N 
ATOM      4  C   UNL     1       2.632 -14.385 -17.013  0.00  0.00    +0.166 C 
ATOM      5  H   UNL     1       2.188 -13.597 -18.828  0.00  0.00    +0.163 HD
ATOM      6  H   UNL     1       2.495 -16.422 -16.770  0.00  0.00    +0.159 HD
ATOM      7  H   UNL     1       2.060 -15.854 -18.338  0.00  0.00    +0.159 HD
ATOM      8  H   UNL     1       3.246 -13.261 -15.399  0.00  0.00    +0.159 HD
ATOM      9  H   UNL     1       3.165 -14.954 -15.110  0.00  0.00    +0.159 HD
ENDROOT
BRANCH   1  10
ATOM     10  C   UNL     1       2.659 -11.967 -17.539  0.00  0.00    +0.151 C 
BRANCH  10  11
ATOM     11  C   UNL     1       3.834 -11.430 -18.309  0.00  0.00    -0.028 A 
ATOM     12  C   UNL     1       4.358 -10.163 -18.016  0.00  0.00    +0.005 A 
ATOM     13  C   UNL     1       4.431 -12.187 -19.328  0.00  0.00    +0.005 A 
ATOM     14  C   UNL     1       5.468  -9.676 -18.711  0.00  0.00    +0.000 A 
ATOM     15  C   UNL     1       5.539 -11.697 -20.020  0.00  0.00    +0.000 A 
ATOM     16  C   UNL     1       6.058 -10.443 -19.709  0.00  0.00    +0.000 A 
ENDBRANCH  10  11
ENDBRANCH   1  10
TORSDOF 2
ENDMDL
MODEL 6
REMARK VINA RESULT:    -5.030     23.658     24.652
REMARK INTER + INTRA:          -5.746
REMARK INTER:                  -5.637
REMARK INTRA:                  -0.109
REMARK UNBOUND:                -0.128
REMARK  Name = 1550473
REMARK  2 active torsions:
REMARK  status: ('A' for Active; 'I' for Inactive)
REMARK    1  A    between atoms: N_1  and  C_4
REMARK    2  A    between atoms: C_4  and  C_5
REMARK                            x       y       z     vdW  Elec       q    Type
REMARK                         _______ _______ _______ _____ _____    ______ ____
ROOT
ATOM      1  N   UNL     1      20.306  10.925  -1.435  0.00  0.00    -0.354 N 
ATOM      2  N   UNL     1      21.418   9.106  -0.531  0.00  0.00    -0.372 N 
ATOM      3  N   UNL     1      19.686   8.734  -1.989  0.00  0.00    -0.372 N 
ATOM      4  C   UNL     1      20.461   9.599  -1.326  0.00  0.00    +0.166 C 
ATOM      5  H   UNL     1      20.906  11.527  -0.882  0.00  0.00    +0.163 HD
ATOM      6  H   UNL     1      21.561   8.110  -0.431  0.00  0.00    +0.159 HD
ATOM      7  H   UNL     1      22.046   9.710  -0.015  0.00  0.00    +0.159 HD
ATOM      8  H   UNL     1      18.942   9.042  -2.601  0.00  0.00    +0.159 HD
ATOM      9  H   UNL     1      19.806   7.734  -1.893  0.00  0.00    +0.159 HD
ENDROOT
BRANCH   1  10
ATOM     10  C   UNL     1      19.329  11.565  -2.315  0.00  0.00    +0.151 C 
BRANCH  10  11
ATOM     11  C   UNL     1      19.468  13.058  -2.200  0.00  0.00    -0.028 A 
ATOM     12  C   UNL     1      19.601  13.666  -0.943  0.00  0.00    +0.005 A 
ATOM     13  C   UNL     1      19.473  13.870  -3.344  0.00  0.00    +0.005 A 
ATOM     14  C   UNL     1      19.760  15.049  -0.837  0.00  0.00    +0.000 A 
ATOM     15  C   UNL     1      19.631  15.251  -3.234  0.00  0.00    +0.000 A 
ATOM     16  C   UNL     1      19.777  15.840  -1.981  0.00  0.00    +0.000 A 
ENDBRANCH  10  11
ENDBRANCH   1  10
TORSDOF 2
ENDMDL
MODEL 7
REMARK VINA RESULT:    -4.925     11.381     13.247
REMARK INTER + INTRA:          -5.628
REMARK INTER:                  -5.491
REMARK INTRA:                  -0.138
REMARK UNBOUND:                -0.128
REMARK  Name = 1550473
REMARK  2 active torsions:
REMARK  status: ('A' for Active; 'I' for Inactive)
REMARK    1  A    between atoms: N_1  and  C_4
REMARK    2  A    between atoms: C_4  and  C_5
REMARK                            x       y       z     vdW  Elec       q    Type
REMARK                         _______ _______ _______ _____ _____    ______ ____
ROOT
ATOM      1  N   UNL     1       0.730 -11.056  -1.042  0.00  0.00    -0.354 N 
ATOM      2  N   UNL     1       1.964 -12.924  -1.634  0.00  0.00    -0.372 N 
ATOM      3  N   UNL     1      -0.325 -13.076  -1.587  0.00  0.00    -0.372 N 
ATOM      4  C   UNL     1       0.779 -12.341  -1.417  0.00  0.00    +0.166 C 
ATOM      5  H   UNL     1       1.603 -10.561  -0.901  0.00  0.00    +0.163 HD
ATOM      6  H   UNL     1       2.033 -13.891  -1.921  0.00  0.00    +0.159 HD
ATOM      7  H   UNL     1       2.834 -12.414  -1.537  0.00  0.00    +0.159 HD
ATOM      8  H   UNL     1      -1.250 -12.697  -1.434  0.00  0.00    +0.159 HD
ATOM      9  H   UNL     1      -0.276 -14.049  -1.863  0.00  0.00    +0.159 HD
ENDROOT
BRANCH   1  10
ATOM     10  C   UNL     1      -0.511 -10.312  -0.832  0.00  0.00    +0.151 C 
BRANCH  10  11
ATOM     11  C   UNL     1      -0.427  -9.000  -1.562  0.00  0.00    -0.028 A 
ATOM     12  C   UNL     1       0.281  -8.900  -2.769  0.00  0.00    +0.005 A 
ATOM     13  C   UNL     1      -1.057  -7.853  -1.055  0.00  0.00    +0.005 A 
ATOM     14  C   UNL     1       0.335  -7.689  -3.462  0.00  0.00    +0.000 A 
ATOM     15  C   UNL     1      -1.000  -6.645  -1.750  0.00  0.00    +0.000 A 
ATOM     16  C   UNL     1      -0.307  -6.564  -2.954  0.00  0.00    +0.000 A 
ENDBRANCH  10  11
ENDBRANCH   1  10
TORSDOF 2
ENDMDL
MODEL 8
REMARK VINA RESULT:    -4.878     23.533     25.057
REMARK INTER + INTRA:          -5.576
REMARK INTER:                  -5.424
REMARK INTRA:                  -0.152
REMARK UNBOUND:                -0.128
REMARK  Name = 1550473
REMARK  2 active torsions:
REMARK  status: ('A' for Active; 'I' for Inactive)
REMARK    1  A    between atoms: N_1  and  C_4
REMARK    2  A    between atoms: C_4  and  C_5
REMARK                            x       y       z     vdW  Elec       q    Type
REMARK                         _______ _______ _______ _____ _____    ______ ____
ROOT
ATOM      1  N   UNL     1       4.838 -13.664 -19.643  0.00  0.00    -0.354 N 
ATOM      2  N   UNL     1       4.701 -13.212 -21.910  0.00  0.00    -0.372 N 
ATOM      3  N   UNL     1       5.920 -11.804 -20.571  0.00  0.00    -0.372 N 
ATOM      4  C   UNL     1       5.156 -12.894 -20.692  0.00  0.00    +0.166 C 
ATOM      5  H   UNL     1       4.230 -14.460 -19.796  0.00  0.00    +0.163 HD
ATOM      6  H   UNL     1       4.927 -12.652 -22.721  0.00  0.00    +0.159 HD
ATOM      7  H   UNL     1       4.131 -14.034 -22.068  0.00  0.00    +0.159 HD
ATOM      8  H   UNL     1       6.290 -11.506 -19.678  0.00  0.00    +0.159 HD
ATOM      9  H   UNL     1       6.148 -11.224 -21.369  0.00  0.00    +0.159 HD
ENDROOT
BRANCH   1  10
ATOM     10  C   UNL     1       5.326 -13.435 -18.284  0.00  0.00    +0.151 C 
BRANCH  10  11
ATOM     11  C   UNL     1       4.204 -12.886 -17.445  0.00  0.00    -0.028 A 
ATOM     12  C   UNL     1       3.560 -13.697 -16.499  0.00  0.00    +0.005 A 
ATOM     13  C   UNL     1       3.784 -11.555 -17.589  0.00  0.00    +0.005 A 
ATOM     14  C   UNL     1       2.539 -13.179 -15.699  0.00  0.00    +0.000 A 
ATOM     15  C   UNL     1       2.763 -11.042 -16.789  0.00  0.00    +0.000 A 
ATOM     16  C   UNL     1       2.142 -11.853 -15.843  0.00  0.00    +0.000 A 
ENDBRANCH  10  11
ENDBRANCH   1  10
TORSDOF 2
ENDMDL
MODEL 9
REMARK VINA RESULT:    -4.876     21.128     22.228
REMARK INTER + INTRA:          -5.574
REMARK INTER:                  -5.411
REMARK INTRA:                  -0.163
REMARK UNBOUND:                -0.128
REMARK  Name = 1550473
REMARK  2 active torsions:
REMARK  status: ('A' for Active; 'I' for Inactive)
REMARK    1  A    between atoms: N_1  and  C_4
REMARK    2  A    between atoms: C_4  and  C_5
REMARK                            x       y       z     vdW  Elec       q    Type
REMARK                         _______ _______ _______ _____ _____    ______ ____
ROOT
ATOM      1  N   UNL     1       5.423 -12.860  12.694  0.00  0.00    -0.354 N 
ATOM      2  N   UNL     1       7.645 -13.318  12.232  0.00  0.00    -0.372 N 
ATOM      3  N   UNL     1       6.656 -14.332  14.037  0.00  0.00    -0.372 N 
ATOM      4  C   UNL     1       6.560 -13.502  12.993  0.00  0.00    +0.166 C 
ATOM      5  H   UNL     1       5.423 -12.221  11.907  0.00  0.00    +0.163 HD
ATOM      6  H   UNL     1       8.516 -13.791  12.431  0.00  0.00    +0.159 HD
ATOM      7  H   UNL     1       7.630 -12.714  11.419  0.00  0.00    +0.159 HD
ATOM      8  H   UNL     1       5.875 -14.509  14.654  0.00  0.00    +0.159 HD
ATOM      9  H   UNL     1       7.523 -14.806  14.259  0.00  0.00    +0.159 HD
ENDROOT
BRANCH   1  10
ATOM     10  C   UNL     1       4.170 -13.032  13.427  0.00  0.00    +0.151 C 
BRANCH  10  11
ATOM     11  C   UNL     1       3.260 -13.935  12.640  0.00  0.00    -0.028 A 
ATOM     12  C   UNL     1       2.283 -13.395  11.790  0.00  0.00    +0.005 A 
ATOM     13  C   UNL     1       3.374 -15.330  12.735  0.00  0.00    +0.005 A 
ATOM     14  C   UNL     1       1.458 -14.233  11.036  0.00  0.00    +0.000 A 
ATOM     15  C   UNL     1       2.548 -16.163  11.981  0.00  0.00    +0.000 A 
ATOM     16  C   UNL     1       1.592 -15.615  11.130  0.00  0.00    +0.000 A 
ENDBRANCH  10  11
ENDBRANCH   1  10
TORSDOF 2
ENDMDL
