MODEL 1
REMARK VINA RESULT:    -5.060      0.000      0.000
REMARK INTER + INTRA:          -5.813
REMARK INTER:                  -5.651
REMARK INTRA:                  -0.162
REMARK UNBOUND:                -0.162
REMARK  Name = 1550473
REMARK  2 active torsions:
REMARK  status: ('A' for Active; 'I' for Inactive)
REMARK    1  A    between atoms: N_1  and  C_4
REMARK    2  A    between atoms: C_4  and  C_5
REMARK                            x       y       z     vdW  Elec       q    Type
REMARK                         _______ _______ _______ _____ _____    ______ ____
ROOT
ATOM      1  N   UNL     1       0.024   7.771   4.352  0.00  0.00    -0.354 N 
ATOM      2  N   UNL     1       1.571   6.212   3.618  0.00  0.00    -0.372 N 
ATOM      3  N   UNL     1       2.318   8.086   4.710  0.00  0.00    -0.372 N 
ATOM      4  C   UNL     1       1.296   7.369   4.233  0.00  0.00    +0.166 C 
ATOM      5  H   UNL     1      -0.703   7.196   3.942  0.00  0.00    +0.163 HD
ATOM      6  H   UNL     1       2.521   5.881   3.516  0.00  0.00    +0.159 HD
ATOM      7  H   UNL     1       0.839   5.617   3.250  0.00  0.00    +0.159 HD
ATOM      8  H   UNL     1       2.179   8.971   5.179  0.00  0.00    +0.159 HD
ATOM      9  H   UNL     1       3.277   7.777   4.607  0.00  0.00    +0.159 HD
ENDROOT
BRANCH   1  10
ATOM     10  C   UNL     1      -0.386   8.988   5.051  0.00  0.00    +0.151 C 
BRANCH  10  11
ATOM     11  C   UNL     1      -1.191   8.610   6.264  0.00  0.00    -0.028 A 
ATOM     12  C   UNL     1      -2.588   8.507   6.188  0.00  0.00    +0.005 A 
ATOM     13  C   UNL     1      -0.562   8.349   7.491  0.00  0.00    +0.005 A 
ATOM     14  C   UNL     1      -3.333   8.127   7.307  0.00  0.00    +0.000 A 
ATOM     15  C   UNL     1      -1.310   7.971   8.606  0.00  0.00    +0.000 A 
ATOM     16  C   UNL     1      -2.695   7.857   8.513  0.00  0.00    +0.000 A 
ENDBRANCH  10  11
ENDBRANCH   1  10
TORSDOF 2
ENDMDL
MODEL 2
REMARK VINA RESULT:    -4.822     18.316     19.461
REMARK INTER + INTRA:          -5.547
REMARK INTER:                  -5.424
REMARK INTRA:                  -0.123
REMARK UNBOUND:                -0.162
REMARK  Name = 1550473
REMARK  2 active torsions:
REMARK  status: ('A' for Active; 'I' for Inactive)
REMARK    1  A    between atoms: N_1  and  C_4
REMARK    2  A    between atoms: C_4  and  C_5
REMARK                            x       y       z     vdW  Elec       q    Type
REMARK                         _______ _______ _______ _____ _____    ______ ____
ROOT
ATOM      1  N   UNL     1      10.154  -2.606  20.152  0.00  0.00    -0.354 N 
ATOM      2  N   UNL     1      10.119  -4.751  21.025  0.00  0.00    -0.372 N 
ATOM      3  N   UNL     1      10.218  -2.968  22.467  0.00  0.00    -0.372 N 
ATOM      4  C   UNL     1      10.164  -3.426  21.211  0.00  0.00    +0.166 C 
ATOM      5  H   UNL     1      10.143  -3.017  19.226  0.00  0.00    +0.163 HD
ATOM      6  H   UNL     1      10.122  -5.395  21.805  0.00  0.00    +0.159 HD
ATOM      7  H   UNL     1      10.062  -5.157  20.100  0.00  0.00    +0.159 HD
ATOM      8  H   UNL     1      10.259  -1.979  22.674  0.00  0.00    +0.159 HD
ATOM      9  H   UNL     1      10.234  -3.597  23.260  0.00  0.00    +0.159 HD
ENDROOT
BRANCH   1  10
ATOM     10  C   UNL     1      10.146  -1.148  20.247  0.00  0.00    +0.151 C 
BRANCH  10  11
ATOM     11  C   UNL     1       9.113  -0.599  19.302  0.00  0.00    -0.028 A 
ATOM     12  C   UNL     1       8.280   0.460  19.693  0.00  0.00    +0.005 A 
ATOM     13  C   UNL     1       8.966  -1.131  18.011  0.00  0.00    +0.005 A 
ATOM     14  C   UNL     1       7.341   0.989  18.804  0.00  0.00    +0.000 A 
ATOM     15  C   UNL     1       8.026  -0.600  17.128  0.00  0.00    +0.000 A 
ATOM     16  C   UNL     1       7.216   0.462  17.523  0.00  0.00    +0.000 A 
ENDBRANCH  10  11
ENDBRANCH   1  10
TORSDOF 2
ENDMDL
MODEL 3
REMARK VINA RESULT:    -4.676     41.604     42.963
REMARK INTER + INTRA:          -5.384
REMARK INTER:                  -5.287
REMARK INTRA:                  -0.097
REMARK UNBOUND:                -0.162
REMARK  Name = 1550473
REMARK  2 active torsions:
REMARK  status: ('A' for Active; 'I' for Inactive)
REMARK    1  A    between atoms: N_1  and  C_4
REMARK    2  A    between atoms: C_4  and  C_5
REMARK                            x       y       z     vdW  Elec       q    Type
REMARK                         _______ _______ _______ _____ _____    ______ ____
ROOT
ATOM      1  N   UNL     1       2.323  -8.708  46.992  0.00  0.00    -0.354 N 
ATOM      2  N   UNL     1       1.322 -10.782  46.749  0.00  0.00    -0.372 N 
ATOM      3  N   UNL     1       0.019  -8.899  46.608  0.00  0.00    -0.372 N 
ATOM      4  C   UNL     1       1.226  -9.448  46.784  0.00  0.00    +0.166 C 
ATOM      5  H   UNL     1       3.203  -9.186  47.149  0.00  0.00    +0.163 HD
ATOM      6  H   UNL     1       0.512 -11.366  46.590  0.00  0.00    +0.159 HD
ATOM      7  H   UNL     1       2.211 -11.255  46.860  0.00  0.00    +0.159 HD
ATOM      8  H   UNL     1      -0.122  -7.898  46.630  0.00  0.00    +0.159 HD
ATOM      9  H   UNL     1      -0.805  -9.467  46.460  0.00  0.00    +0.159 HD
ENDROOT
BRANCH   1  10
ATOM     10  C   UNL     1       2.335  -7.246  46.996  0.00  0.00    +0.151 C 
BRANCH  10  11
ATOM     11  C   UNL     1       3.149  -6.759  45.829  0.00  0.00    -0.028 A 
ATOM     12  C   UNL     1       3.832  -5.535  45.899  0.00  0.00    +0.005 A 
ATOM     13  C   UNL     1       3.247  -7.518  44.653  0.00  0.00    +0.005 A 
ATOM     14  C   UNL     1       4.613  -5.096  44.827  0.00  0.00    +0.000 A 
ATOM     15  C   UNL     1       4.026  -7.076  43.585  0.00  0.00    +0.000 A 
ATOM     16  C   UNL     1       4.711  -5.866  43.673  0.00  0.00    +0.000 A 
ENDBRANCH  10  11
ENDBRANCH   1  10
TORSDOF 2
ENDMDL
MODEL 4
REMARK VINA RESULT:    -4.588      2.507      3.379
REMARK INTER + INTRA:          -5.286
REMARK INTER:                  -5.125
REMARK INTRA:                  -0.161
REMARK UNBOUND:                -0.162
REMARK  Name = 1550473
REMARK  2 active torsions:
REMARK  status: ('A' for Active; 'I' for Inactive)
REMARK    1  A    between atoms: N_1  and  C_4
REMARK    2  A    between atoms: C_4  and  C_5
REMARK                            x       y       z     vdW  Elec       q    Type
REMARK                         _______ _______ _______ _____ _____    ______ ____
ROOT
ATOM      1  N   UNL     1       1.211   9.537   7.399  0.00  0.00    -0.354 N 
ATOM      2  N   UNL     1       2.452  11.144   8.513  0.00  0.00    -0.372 N 
ATOM      3  N   UNL     1       2.391   9.010   9.355  0.00  0.00    -0.372 N 
ATOM      4  C   UNL     1       2.010   9.884   8.417  0.00  0.00    +0.166 C 
ATOM      5  H   UNL     1       0.934  10.253   6.738  0.00  0.00    +0.163 HD
ATOM      6  H   UNL     1       3.058  11.435   9.268  0.00  0.00    +0.159 HD
ATOM      7  H   UNL     1       2.211  11.847   7.825  0.00  0.00    +0.159 HD
ATOM      8  H   UNL     1       2.087   8.046   9.343  0.00  0.00    +0.159 HD
ATOM      9  H   UNL     1       2.988   9.285  10.124  0.00  0.00    +0.159 HD
ENDROOT
BRANCH   1  10
ATOM     10  C   UNL     1       0.719   8.179   7.173  0.00  0.00    +0.151 C 
BRANCH  10  11
ATOM     11  C   UNL     1      -0.779   8.171   7.304  0.00  0.00    -0.028 A 
ATOM     12  C   UNL     1      -1.593   8.351   6.176  0.00  0.00    +0.005 A 
ATOM     13  C   UNL     1      -1.391   7.980   8.552  0.00  0.00    +0.005 A 
ATOM     14  C   UNL     1      -2.985   8.314   6.292  0.00  0.00    +0.000 A 
ATOM     15  C   UNL     1      -2.781   7.944   8.664  0.00  0.00    +0.000 A 
ATOM     16  C   UNL     1      -3.578   8.109   7.533  0.00  0.00    +0.000 A 
ENDBRANCH  10  11
ENDBRANCH   1  10
TORSDOF 2
ENDMDL
MODEL 5
REMARK VINA RESULT:    -4.564     28.737     30.070
REMARK INTER + INTRA:          -5.259
REMARK INTER:                  -5.120
REMARK INTRA:                  -0.139
REMARK UNBOUND:                -0.162
REMARK  Name = 1550473
REMARK  2 active torsions:
REMARK  status: ('A' for Active; 'I' for Inactive)
REMARK    1  A    between atoms: N_1  and  C_4
REMARK    2  A    between atoms: C_4  and  C_5
REMARK                            x       y       z     vdW  Elec       q    Type
REMARK                         _______ _______ _______ _____ _____    ______ ____
ROOT
ATOM      1  N   UNL     1       2.002  -8.256  32.702  0.00  0.00    -0.354 N 
ATOM      2  N   UNL     1       1.640 -10.541  32.591  0.00  0.00    -0.372 N 
ATOM      3  N   UNL     1      -0.170  -9.135  32.699  0.00  0.00    -0.372 N 
ATOM      4  C   UNL     1       1.157  -9.295  32.665  0.00  0.00    +0.166 C 
ATOM      5  H   UNL     1       2.998  -8.446  32.704  0.00  0.00    +0.163 HD
ATOM      6  H   UNL     1       1.026 -11.344  32.559  0.00  0.00    +0.159 HD
ATOM      7  H   UNL     1       2.635 -10.725  32.547  0.00  0.00    +0.159 HD
ATOM      8  H   UNL     1      -0.598  -8.220  32.761  0.00  0.00    +0.159 HD
ATOM      9  H   UNL     1      -0.800  -9.927  32.679  0.00  0.00    +0.159 HD
ENDROOT
BRANCH   1  10
ATOM     10  C   UNL     1       1.579  -6.857  32.729  0.00  0.00    +0.151 C 
BRANCH  10  11
ATOM     11  C   UNL     1       2.356  -6.089  31.696  0.00  0.00    -0.028 A 
ATOM     12  C   UNL     1       2.445  -4.691  31.767  0.00  0.00    +0.005 A 
ATOM     13  C   UNL     1       3.012  -6.753  30.648  0.00  0.00    +0.005 A 
ATOM     14  C   UNL     1       3.192  -3.979  30.825  0.00  0.00    +0.000 A 
ATOM     15  C   UNL     1       3.756  -6.039  29.710  0.00  0.00    +0.000 A 
ATOM     16  C   UNL     1       3.848  -4.652  29.800  0.00  0.00    +0.000 A 
ENDBRANCH  10  11
ENDBRANCH   1  10
TORSDOF 2
ENDMDL
MODEL 6
REMARK VINA RESULT:    -4.402     41.545     43.016
REMARK INTER + INTRA:          -5.078
REMARK INTER:                  -4.959
REMARK INTRA:                  -0.119
REMARK UNBOUND:                -0.162
REMARK  Name = 1550473
REMARK  2 active torsions:
REMARK  status: ('A' for Active; 'I' for Inactive)
REMARK    1  A    between atoms: N_1  and  C_4
REMARK    2  A    between atoms: C_4  and  C_5
REMARK                            x       y       z     vdW  Elec       q    Type
REMARK                         _______ _______ _______ _____ _____    ______ ____
ROOT
ATOM      1  N   UNL     1       3.314  -4.095  48.370  0.00  0.00    -0.354 N 
ATOM      2  N   UNL     1       3.634  -4.700  50.583  0.00  0.00    -0.372 N 
ATOM      3  N   UNL     1       1.845  -3.367  50.045  0.00  0.00    -0.372 N 
ATOM      4  C   UNL     1       2.926  -4.048  49.652  0.00  0.00    +0.166 C 
ATOM      5  H   UNL     1       4.160  -4.604  48.141  0.00  0.00    +0.163 HD
ATOM      6  H   UNL     1       3.364  -4.686  51.557  0.00  0.00    +0.159 HD
ATOM      7  H   UNL     1       4.453  -5.245  50.345  0.00  0.00    +0.159 HD
ATOM      8  H   UNL     1       1.271  -2.850  49.392  0.00  0.00    +0.159 HD
ATOM      9  H   UNL     1       1.565  -3.332  51.017  0.00  0.00    +0.159 HD
ENDROOT
BRANCH   1  10
ATOM     10  C   UNL     1       2.583  -3.465  47.272  0.00  0.00    +0.151 C 
BRANCH  10  11
ATOM     11  C   UNL     1       2.858  -4.221  46.001  0.00  0.00    -0.028 A 
ATOM     12  C   UNL     1       1.908  -4.249  44.970  0.00  0.00    +0.005 A 
ATOM     13  C   UNL     1       4.068  -4.908  45.821  0.00  0.00    +0.005 A 
ATOM     14  C   UNL     1       2.175  -4.927  43.778  0.00  0.00    +0.000 A 
ATOM     15  C   UNL     1       4.331  -5.584  44.630  0.00  0.00    +0.000 A 
ATOM     16  C   UNL     1       3.385  -5.591  43.607  0.00  0.00    +0.000 A 
ENDBRANCH  10  11
ENDBRANCH   1  10
TORSDOF 2
ENDMDL
MODEL 7
REMARK VINA RESULT:    -4.239     34.444     35.668
REMARK INTER + INTRA:          -4.896
REMARK INTER:                  -4.773
REMARK INTRA:                  -0.123
REMARK UNBOUND:                -0.162
REMARK  Name = 1550473
REMARK  2 active torsions:
REMARK  status: ('A' for Active; 'I' for Inactive)
REMARK    1  A    between atoms: N_1  and  C_4
REMARK    2  A    between atoms: C_4  and  C_5
REMARK                            x       y       z     vdW  Elec       q    Type
REMARK                         _______ _______ _______ _____ _____    ______ ____
ROOT
ATOM      1  N   UNL     1       8.242 -13.982  34.018  0.00  0.00    -0.354 N 
ATOM      2  N   UNL     1       8.246 -14.015  36.334  0.00  0.00    -0.372 N 
ATOM      3  N   UNL     1       9.166 -15.784  35.198  0.00  0.00    -0.372 N 
ATOM      4  C   UNL     1       8.552 -14.596  35.168  0.00  0.00    +0.166 C 
ATOM      5  H   UNL     1       7.750 -13.097  34.063  0.00  0.00    +0.163 HD
ATOM      6  H   UNL     1       8.470 -14.453  37.217  0.00  0.00    +0.159 HD
ATOM      7  H   UNL     1       7.795 -13.109  36.376  0.00  0.00    +0.159 HD
ATOM      8  H   UNL     1       9.419 -16.278  34.353  0.00  0.00    +0.159 HD
ATOM      9  H   UNL     1       9.388 -16.243  36.072  0.00  0.00    +0.159 HD
ENDROOT
BRANCH   1  10
ATOM     10  C   UNL     1       8.580 -14.504  32.695  0.00  0.00    +0.151 C 
BRANCH  10  11
ATOM     11  C   UNL     1       8.877 -13.353  31.774  0.00  0.00    -0.028 A 
ATOM     12  C   UNL     1       8.258 -12.109  31.967  0.00  0.00    +0.005 A 
ATOM     13  C   UNL     1       9.780 -13.499  30.710  0.00  0.00    +0.005 A 
ATOM     14  C   UNL     1       8.556 -11.032  31.129  0.00  0.00    +0.000 A 
ATOM     15  C   UNL     1      10.074 -12.420  29.875  0.00  0.00    +0.000 A 
ATOM     16  C   UNL     1       9.464 -11.186  30.087  0.00  0.00    +0.000 A 
ENDBRANCH  10  11
ENDBRANCH   1  10
TORSDOF 2
ENDMDL
MODEL 8
REMARK VINA RESULT:    -4.156     26.407     27.544
REMARK INTER + INTRA:          -4.803
REMARK INTER:                  -4.694
REMARK INTRA:                  -0.110
REMARK UNBOUND:                -0.162
REMARK  Name = 1550473
REMARK  2 active torsions:
REMARK  status: ('A' for Active; 'I' for Inactive)
REMARK    1  A    between atoms: N_1  and  C_4
REMARK    2  A    between atoms: C_4  and  C_5
REMARK                            x       y       z     vdW  Elec       q    Type
REMARK                         _______ _______ _______ _____ _____    ______ ____
ROOT
ATOM      1  N   UNL     1     -10.153  14.657 -19.831  0.00  0.00    -0.354 N 
ATOM      2  N   UNL     1     -10.494  16.916 -20.215  0.00  0.00    -0.372 N 
ATOM      3  N   UNL     1     -10.799  15.438 -21.944  0.00  0.00    -0.372 N 
ATOM      4  C   UNL     1     -10.480  15.655 -20.664  0.00  0.00    +0.166 C 
ATOM      5  H   UNL     1      -9.892  14.891 -18.880  0.00  0.00    +0.163 HD
ATOM      6  H   UNL     1     -10.741  17.689 -20.819  0.00  0.00    +0.159 HD
ATOM      7  H   UNL     1     -10.278  17.141 -19.252  0.00  0.00    +0.159 HD
ATOM      8  H   UNL     1     -10.801  14.510 -22.346  0.00  0.00    +0.159 HD
ATOM      9  H   UNL     1     -11.036  16.200 -22.568  0.00  0.00    +0.159 HD
ENDROOT
BRANCH   1  10
ATOM     10  C   UNL     1     -10.159  13.244 -20.206  0.00  0.00    +0.151 C 
BRANCH  10  11
ATOM     11  C   UNL     1      -9.901  12.411 -18.981  0.00  0.00    -0.028 A 
ATOM     12  C   UNL     1      -8.928  12.798 -18.048  0.00  0.00    +0.005 A 
ATOM     13  C   UNL     1     -10.631  11.235 -18.745  0.00  0.00    +0.005 A 
ATOM     14  C   UNL     1      -8.709  12.039 -16.896  0.00  0.00    +0.000 A 
ATOM     15  C   UNL     1     -10.408  10.481 -17.593  0.00  0.00    +0.000 A 
ATOM     16  C   UNL     1      -9.449  10.884 -16.668  0.00  0.00    +0.000 A 
ENDBRANCH  10  11
ENDBRANCH   1  10
TORSDOF 2
ENDMDL
MODEL 9
REMARK VINA RESULT:    -4.069     43.665     45.069
REMARK INTER + INTRA:          -4.706
REMARK INTER:                  -4.568
REMARK INTRA:                  -0.139
REMARK UNBOUND:                -0.162
REMARK  Name = 1550473
REMARK  2 active torsions:
REMARK  status: ('A' for Active; 'I' for Inactive)
REMARK    1  A    between atoms: N_1  and  C_4
REMARK    2  A    between atoms: C_4  and  C_5
REMARK                            x       y       z     vdW  Elec       q    Type
REMARK                         _______ _______ _______ _____ _____    ______ ____
ROOT
ATOM      1  N   UNL     1       1.494  -9.952  46.536  0.00  0.00    -0.354 N 
ATOM      2  N   UNL     1       1.981 -10.192  44.284  0.00  0.00    -0.372 N 
ATOM      3  N   UNL     1      -0.194  -9.819  44.915  0.00  0.00    -0.372 N 
ATOM      4  C   UNL     1       1.088  -9.986  45.259  0.00  0.00    +0.166 C 
ATOM      5  H   UNL     1       2.475 -10.116  46.733  0.00  0.00    +0.163 HD
ATOM      6  H   UNL     1       1.704 -10.219  43.312  0.00  0.00    +0.159 HD
ATOM      7  H   UNL     1       2.967 -10.309  44.481  0.00  0.00    +0.159 HD
ATOM      8  H   UNL     1      -0.918  -9.666  45.604  0.00  0.00    +0.159 HD
ATOM      9  H   UNL     1      -0.492  -9.855  43.948  0.00  0.00    +0.159 HD
ENDROOT
BRANCH   1  10
ATOM     10  C   UNL     1       0.611  -9.681  47.668  0.00  0.00    +0.151 C 
BRANCH  10  11
ATOM     11  C   UNL     1       1.266  -8.675  48.573  0.00  0.00    -0.028 A 
ATOM     12  C   UNL     1       2.282  -7.837  48.089  0.00  0.00    +0.005 A 
ATOM     13  C   UNL     1       0.873  -8.551  49.914  0.00  0.00    +0.005 A 
ATOM     14  C   UNL     1       2.870  -6.882  48.921  0.00  0.00    +0.000 A 
ATOM     15  C   UNL     1       1.464  -7.596  50.742  0.00  0.00    +0.000 A 
ATOM     16  C   UNL     1       2.461  -6.760  50.244  0.00  0.00    +0.000 A 
ENDBRANCH  10  11
ENDBRANCH   1  10
TORSDOF 2
ENDMDL
