MODEL 1
REMARK VINA RESULT:    -5.061      0.000      0.000
REMARK INTER + INTRA:          -5.793
REMARK INTER:                  -5.653
REMARK INTRA:                  -0.140
REMARK UNBOUND:                -0.140
REMARK  Name = 1550473
REMARK  2 active torsions:
REMARK  status: ('A' for Active; 'I' for Inactive)
REMARK    1  A    between atoms: N_1  and  C_4
REMARK    2  A    between atoms: C_4  and  C_5
REMARK                            x       y       z     vdW  Elec       q    Type
REMARK                         _______ _______ _______ _____ _____    ______ ____
ROOT
ATOM      1  N   UNL     1       2.326  -0.325  -6.555  0.00  0.00    -0.354 N 
ATOM      2  N   UNL     1       4.300  -0.401  -5.345  0.00  0.00    -0.372 N 
ATOM      3  N   UNL     1       2.399   0.372  -4.319  0.00  0.00    -0.372 N 
ATOM      4  C   UNL     1       2.994  -0.116  -5.412  0.00  0.00    +0.166 C 
ATOM      5  H   UNL     1       2.841  -0.669  -7.357  0.00  0.00    +0.163 HD
ATOM      6  H   UNL     1       4.829  -0.257  -4.495  0.00  0.00    +0.159 HD
ATOM      7  H   UNL     1       4.802  -0.788  -6.134  0.00  0.00    +0.159 HD
ATOM      8  H   UNL     1       1.417   0.614  -4.306  0.00  0.00    +0.159 HD
ATOM      9  H   UNL     1       2.914   0.535  -3.462  0.00  0.00    +0.159 HD
ENDROOT
BRANCH   1  10
ATOM     10  C   UNL     1       0.891  -0.098  -6.717  0.00  0.00    +0.151 C 
BRANCH  10  11
ATOM     11  C   UNL     1       0.240  -1.376  -7.171  0.00  0.00    -0.028 A 
ATOM     12  C   UNL     1       0.918  -2.255  -8.029  0.00  0.00    +0.005 A 
ATOM     13  C   UNL     1      -1.052  -1.716  -6.742  0.00  0.00    +0.005 A 
ATOM     14  C   UNL     1       0.325  -3.455  -8.426  0.00  0.00    +0.000 A 
ATOM     15  C   UNL     1      -1.640  -2.915  -7.142  0.00  0.00    +0.000 A 
ATOM     16  C   UNL     1      -0.951  -3.786  -7.982  0.00  0.00    +0.000 A 
ENDBRANCH  10  11
ENDBRANCH   1  10
TORSDOF 2
ENDMDL
MODEL 2
REMARK VINA RESULT:    -5.048     27.431     28.586
REMARK INTER + INTRA:          -5.779
REMARK INTER:                  -5.652
REMARK INTRA:                  -0.127
REMARK UNBOUND:                -0.140
REMARK  Name = 1550473
REMARK  2 active torsions:
REMARK  status: ('A' for Active; 'I' for Inactive)
REMARK    1  A    between atoms: N_1  and  C_4
REMARK    2  A    between atoms: C_4  and  C_5
REMARK                            x       y       z     vdW  Elec       q    Type
REMARK                         _______ _______ _______ _____ _____    ______ ____
ROOT
ATOM      1  N   UNL     1     -10.329  10.790  14.627  0.00  0.00    -0.354 N 
ATOM      2  N   UNL     1     -10.420  10.195  12.390  0.00  0.00    -0.372 N 
ATOM      3  N   UNL     1     -12.099  11.494  13.262  0.00  0.00    -0.372 N 
ATOM      4  C   UNL     1     -10.951  10.832  13.441  0.00  0.00    +0.166 C 
ATOM      5  H   UNL     1      -9.478  10.245  14.705  0.00  0.00    +0.163 HD
ATOM      6  H   UNL     1     -10.865  10.211  11.483  0.00  0.00    +0.159 HD
ATOM      7  H   UNL     1      -9.546   9.689  12.460  0.00  0.00    +0.159 HD
ATOM      8  H   UNL     1     -12.554  11.990  14.016  0.00  0.00    +0.159 HD
ATOM      9  H   UNL     1     -12.566  11.513  12.364  0.00  0.00    +0.159 HD
ENDROOT
BRANCH   1  10
ATOM     10  C   UNL     1     -10.795  11.494  15.820  0.00  0.00    +0.151 C 
BRANCH  10  11
ATOM     11  C   UNL     1     -10.812  10.536  16.980  0.00  0.00    -0.028 A 
ATOM     12  C   UNL     1      -9.704  10.432  17.833  0.00  0.00    +0.005 A 
ATOM     13  C   UNL     1     -11.935   9.734  17.234  0.00  0.00    +0.005 A 
ATOM     14  C   UNL     1      -9.730   9.565  18.928  0.00  0.00    +0.000 A 
ATOM     15  C   UNL     1     -11.957   8.869  18.328  0.00  0.00    +0.000 A 
ATOM     16  C   UNL     1     -10.856   8.786  19.176  0.00  0.00    +0.000 A 
ENDBRANCH  10  11
ENDBRANCH   1  10
TORSDOF 2
ENDMDL
MODEL 3
REMARK VINA RESULT:    -4.899     15.446     16.766
REMARK INTER + INTRA:          -5.612
REMARK INTER:                  -5.513
REMARK INTRA:                  -0.099
REMARK UNBOUND:                -0.140
REMARK  Name = 1550473
REMARK  2 active torsions:
REMARK  status: ('A' for Active; 'I' for Inactive)
REMARK    1  A    between atoms: N_1  and  C_4
REMARK    2  A    between atoms: C_4  and  C_5
REMARK                            x       y       z     vdW  Elec       q    Type
REMARK                         _______ _______ _______ _____ _____    ______ ____
ROOT
ATOM      1  N   UNL     1      -2.174  -1.917 -21.488  0.00  0.00    -0.354 N 
ATOM      2  N   UNL     1      -2.084  -1.555 -19.202  0.00  0.00    -0.372 N 
ATOM      3  N   UNL     1      -3.214  -3.390 -19.991  0.00  0.00    -0.372 N 
ATOM      4  C   UNL     1      -2.493  -2.292 -20.242  0.00  0.00    +0.166 C 
ATOM      5  H   UNL     1      -1.651  -1.058 -21.613  0.00  0.00    +0.163 HD
ATOM      6  H   UNL     1      -2.306  -1.815 -18.250  0.00  0.00    +0.159 HD
ATOM      7  H   UNL     1      -1.522  -0.722 -19.327  0.00  0.00    +0.159 HD
ATOM      8  H   UNL     1      -3.558  -3.986 -20.732  0.00  0.00    +0.159 HD
ATOM      9  H   UNL     1      -3.456  -3.660 -19.046  0.00  0.00    +0.159 HD
ENDROOT
BRANCH   1  10
ATOM     10  C   UNL     1      -2.525  -2.678 -22.686  0.00  0.00    +0.151 C 
BRANCH  10  11
ATOM     11  C   UNL     1      -1.477  -2.446 -23.739  0.00  0.00    -0.028 A 
ATOM     12  C   UNL     1      -1.391  -1.212 -24.399  0.00  0.00    +0.005 A 
ATOM     13  C   UNL     1      -0.562  -3.456 -24.077  0.00  0.00    +0.005 A 
ATOM     14  C   UNL     1      -0.398  -0.986 -25.356  0.00  0.00    +0.000 A 
ATOM     15  C   UNL     1       0.427  -3.227 -25.034  0.00  0.00    +0.000 A 
ATOM     16  C   UNL     1       0.510  -1.992 -25.671  0.00  0.00    +0.000 A 
ENDBRANCH  10  11
ENDBRANCH   1  10
TORSDOF 2
ENDMDL
MODEL 4
REMARK VINA RESULT:    -4.670     13.406     14.871
REMARK INTER + INTRA:          -5.356
REMARK INTER:                  -5.219
REMARK INTRA:                  -0.138
REMARK UNBOUND:                -0.140
REMARK  Name = 1550473
REMARK  2 active torsions:
REMARK  status: ('A' for Active; 'I' for Inactive)
REMARK    1  A    between atoms: N_1  and  C_4
REMARK    2  A    between atoms: C_4  and  C_5
REMARK                            x       y       z     vdW  Elec       q    Type
REMARK                         _______ _______ _______ _____ _____    ______ ____
ROOT
ATOM      1  N   UNL     1      -0.330  -6.314 -19.184  0.00  0.00    -0.354 N 
ATOM      2  N   UNL     1       0.437  -5.871 -17.045  0.00  0.00    -0.372 N 
ATOM      3  N   UNL     1       1.963  -6.315 -18.700  0.00  0.00    -0.372 N 
ATOM      4  C   UNL     1       0.687  -6.171 -18.325  0.00  0.00    +0.166 C 
ATOM      5  H   UNL     1      -1.276  -6.222 -18.831  0.00  0.00    +0.163 HD
ATOM      6  H   UNL     1       1.184  -5.753 -16.374  0.00  0.00    +0.159 HD
ATOM      7  H   UNL     1      -0.507  -5.734 -16.704  0.00  0.00    +0.159 HD
ATOM      8  H   UNL     1       2.218  -6.547 -19.651  0.00  0.00    +0.159 HD
ATOM      9  H   UNL     1       2.724  -6.212 -18.041  0.00  0.00    +0.159 HD
ENDROOT
BRANCH   1  10
ATOM     10  C   UNL     1      -0.163  -6.587 -20.611  0.00  0.00    +0.151 C 
BRANCH  10  11
ATOM     11  C   UNL     1      -1.135  -5.744 -21.389  0.00  0.00    -0.028 A 
ATOM     12  C   UNL     1      -2.081  -4.950 -20.724  0.00  0.00    +0.005 A 
ATOM     13  C   UNL     1      -1.112  -5.729 -22.792  0.00  0.00    +0.005 A 
ATOM     14  C   UNL     1      -2.965  -4.144 -21.445  0.00  0.00    +0.000 A 
ATOM     15  C   UNL     1      -1.996  -4.923 -23.509  0.00  0.00    +0.000 A 
ATOM     16  C   UNL     1      -2.920  -4.129 -22.836  0.00  0.00    +0.000 A 
ENDBRANCH  10  11
ENDBRANCH   1  10
TORSDOF 2
ENDMDL
MODEL 5
REMARK VINA RESULT:    -4.584     13.247     14.487
REMARK INTER + INTRA:          -5.261
REMARK INTER:                  -5.143
REMARK INTRA:                  -0.118
REMARK UNBOUND:                -0.140
REMARK  Name = 1550473
REMARK  2 active torsions:
REMARK  status: ('A' for Active; 'I' for Inactive)
REMARK    1  A    between atoms: N_1  and  C_4
REMARK    2  A    between atoms: C_4  and  C_5
REMARK                            x       y       z     vdW  Elec       q    Type
REMARK                         _______ _______ _______ _____ _____    ______ ____
ROOT
ATOM      1  N   UNL     1      -1.442  -4.420 -20.265  0.00  0.00    -0.354 N 
ATOM      2  N   UNL     1      -2.559  -2.483 -19.659  0.00  0.00    -0.372 N 
ATOM      3  N   UNL     1      -3.774  -4.263 -20.448  0.00  0.00    -0.372 N 
ATOM      4  C   UNL     1      -2.587  -3.736 -20.129  0.00  0.00    +0.166 C 
ATOM      5  H   UNL     1      -0.573  -3.953 -20.034  0.00  0.00    +0.163 HD
ATOM      6  H   UNL     1      -3.407  -1.944 -19.542  0.00  0.00    +0.159 HD
ATOM      7  H   UNL     1      -1.693  -2.036 -19.386  0.00  0.00    +0.159 HD
ATOM      8  H   UNL     1      -3.862  -5.202 -20.813  0.00  0.00    +0.159 HD
ATOM      9  H   UNL     1      -4.632  -3.735 -20.349  0.00  0.00    +0.159 HD
ENDROOT
BRANCH   1  10
ATOM     10  C   UNL     1      -1.368  -5.808 -20.716  0.00  0.00    +0.151 C 
BRANCH  10  11
ATOM     11  C   UNL     1      -0.166  -6.463 -20.095  0.00  0.00    -0.028 A 
ATOM     12  C   UNL     1       0.012  -6.452 -18.703  0.00  0.00    +0.005 A 
ATOM     13  C   UNL     1       0.797  -7.102 -20.891  0.00  0.00    +0.005 A 
ATOM     14  C   UNL     1       1.113  -7.086 -18.123  0.00  0.00    +0.000 A 
ATOM     15  C   UNL     1       1.896  -7.734 -20.308  0.00  0.00    +0.000 A 
ATOM     16  C   UNL     1       2.052  -7.727 -18.924  0.00  0.00    +0.000 A 
ENDBRANCH  10  11
ENDBRANCH   1  10
TORSDOF 2
ENDMDL
MODEL 6
REMARK VINA RESULT:    -4.291     14.252     15.316
REMARK INTER + INTRA:          -4.932
REMARK INTER:                  -4.827
REMARK INTRA:                  -0.105
REMARK UNBOUND:                -0.140
REMARK  Name = 1550473
REMARK  2 active torsions:
REMARK  status: ('A' for Active; 'I' for Inactive)
REMARK    1  A    between atoms: N_1  and  C_4
REMARK    2  A    between atoms: C_4  and  C_5
REMARK                            x       y       z     vdW  Elec       q    Type
REMARK                         _______ _______ _______ _____ _____    ______ ____
ROOT
ATOM      1  N   UNL     1      -1.312  -4.360 -20.626  0.00  0.00    -0.354 N 
ATOM      2  N   UNL     1      -2.534  -2.576 -19.797  0.00  0.00    -0.372 N 
ATOM      3  N   UNL     1      -3.651  -4.448 -20.513  0.00  0.00    -0.372 N 
ATOM      4  C   UNL     1      -2.493  -3.808 -20.318  0.00  0.00    +0.166 C 
ATOM      5  H   UNL     1      -0.472  -3.811 -20.482  0.00  0.00    +0.163 HD
ATOM      6  H   UNL     1      -3.410  -2.135 -19.552  0.00  0.00    +0.159 HD
ATOM      7  H   UNL     1      -1.690  -2.047 -19.612  0.00  0.00    +0.159 HD
ATOM      8  H   UNL     1      -3.688  -5.378 -20.908  0.00  0.00    +0.159 HD
ATOM      9  H   UNL     1      -4.539  -4.019 -20.285  0.00  0.00    +0.159 HD
ENDROOT
BRANCH   1  10
ATOM     10  C   UNL     1      -1.154  -5.716 -21.147  0.00  0.00    +0.151 C 
BRANCH  10  11
ATOM     11  C   UNL     1       0.310  -6.059 -21.191  0.00  0.00    -0.028 A 
ATOM     12  C   UNL     1       0.769  -7.285 -20.689  0.00  0.00    +0.005 A 
ATOM     13  C   UNL     1       1.241  -5.164 -21.739  0.00  0.00    +0.005 A 
ATOM     14  C   UNL     1       2.125  -7.616 -20.757  0.00  0.00    +0.000 A 
ATOM     15  C   UNL     1       2.594  -5.498 -21.805  0.00  0.00    +0.000 A 
ATOM     16  C   UNL     1       3.035  -6.725 -21.315  0.00  0.00    +0.000 A 
ENDBRANCH  10  11
ENDBRANCH   1  10
TORSDOF 2
ENDMDL
MODEL 7
REMARK VINA RESULT:    -4.206     19.972     21.347
REMARK INTER + INTRA:          -4.838
REMARK INTER:                  -4.699
REMARK INTRA:                  -0.139
REMARK UNBOUND:                -0.140
REMARK  Name = 1550473
REMARK  2 active torsions:
REMARK  status: ('A' for Active; 'I' for Inactive)
REMARK    1  A    between atoms: N_1  and  C_4
REMARK    2  A    between atoms: C_4  and  C_5
REMARK                            x       y       z     vdW  Elec       q    Type
REMARK                         _______ _______ _______ _____ _____    ______ ____
ROOT
ATOM      1  N   UNL     1      18.828   1.218   6.495  0.00  0.00    -0.354 N 
ATOM      2  N   UNL     1      20.032   1.920   8.345  0.00  0.00    -0.372 N 
ATOM      3  N   UNL     1      17.762   2.254   8.306  0.00  0.00    -0.372 N 
ATOM      4  C   UNL     1      18.863   1.794   7.704  0.00  0.00    +0.166 C 
ATOM      5  H   UNL     1      19.703   0.917   6.080  0.00  0.00    +0.163 HD
ATOM      6  H   UNL     1      20.089   2.347   9.260  0.00  0.00    +0.159 HD
ATOM      7  H   UNL     1      20.897   1.577   7.948  0.00  0.00    +0.159 HD
ATOM      8  H   UNL     1      16.850   2.194   7.873  0.00  0.00    +0.159 HD
ATOM      9  H   UNL     1      17.800   2.695   9.217  0.00  0.00    +0.159 HD
ENDROOT
BRANCH   1  10
ATOM     10  C   UNL     1      17.601   0.984   5.736  0.00  0.00    +0.151 C 
BRANCH  10  11
ATOM     11  C   UNL     1      17.622  -0.416   5.188  0.00  0.00    -0.028 A 
ATOM     12  C   UNL     1      16.963  -0.721   3.988  0.00  0.00    +0.005 A 
ATOM     13  C   UNL     1      18.305  -1.441   5.860  0.00  0.00    +0.005 A 
ATOM     14  C   UNL     1      17.007  -2.014   3.462  0.00  0.00    +0.000 A 
ATOM     15  C   UNL     1      18.346  -2.732   5.333  0.00  0.00    +0.000 A 
ATOM     16  C   UNL     1      17.700  -3.017   4.133  0.00  0.00    +0.000 A 
ENDBRANCH  10  11
ENDBRANCH   1  10
TORSDOF 2
ENDMDL
MODEL 8
REMARK VINA RESULT:    -4.072     27.981     29.254
REMARK INTER + INTRA:          -4.688
REMARK INTER:                  -4.584
REMARK INTRA:                  -0.104
REMARK UNBOUND:                -0.140
REMARK  Name = 1550473
REMARK  2 active torsions:
REMARK  status: ('A' for Active; 'I' for Inactive)
REMARK    1  A    between atoms: N_1  and  C_4
REMARK    2  A    between atoms: C_4  and  C_5
REMARK                            x       y       z     vdW  Elec       q    Type
REMARK                         _______ _______ _______ _____ _____    ______ ____
ROOT
ATOM      1  N   UNL     1     -12.023   9.810  16.987  0.00  0.00    -0.354 N 
ATOM      2  N   UNL     1     -14.062   8.737  17.222  0.00  0.00    -0.372 N 
ATOM      3  N   UNL     1     -12.389   8.282  18.725  0.00  0.00    -0.372 N 
ATOM      4  C   UNL     1     -12.810   8.949  17.645  0.00  0.00    +0.166 C 
ATOM      5  H   UNL     1     -12.391  10.261  16.157  0.00  0.00    +0.163 HD
ATOM      6  H   UNL     1     -14.680   8.096  17.700  0.00  0.00    +0.159 HD
ATOM      7  H   UNL     1     -14.443   9.224  16.419  0.00  0.00    +0.159 HD
ATOM      8  H   UNL     1     -11.453   8.392  19.092  0.00  0.00    +0.159 HD
ATOM      9  H   UNL     1     -12.990   7.627  19.211  0.00  0.00    +0.159 HD
ENDROOT
BRANCH   1  10
ATOM     10  C   UNL     1     -10.662  10.152  17.397  0.00  0.00    +0.151 C 
BRANCH  10  11
ATOM     11  C   UNL     1     -10.146  11.256  16.516  0.00  0.00    -0.028 A 
ATOM     12  C   UNL     1     -10.205  11.139  15.119  0.00  0.00    +0.005 A 
ATOM     13  C   UNL     1      -9.603  12.424  17.071  0.00  0.00    +0.005 A 
ATOM     14  C   UNL     1      -9.753  12.177  14.301  0.00  0.00    +0.000 A 
ATOM     15  C   UNL     1      -9.152  13.458  16.251  0.00  0.00    +0.000 A 
ATOM     16  C   UNL     1      -9.230  13.335  14.865  0.00  0.00    +0.000 A 
ENDBRANCH  10  11
ENDBRANCH   1  10
TORSDOF 2
ENDMDL
MODEL 9
REMARK VINA RESULT:    -4.028     29.684     30.991
REMARK INTER + INTRA:          -4.639
REMARK INTER:                  -4.533
REMARK INTRA:                  -0.106
REMARK UNBOUND:                -0.140
REMARK  Name = 1550473
REMARK  2 active torsions:
REMARK  status: ('A' for Active; 'I' for Inactive)
REMARK    1  A    between atoms: N_1  and  C_4
REMARK    2  A    between atoms: C_4  and  C_5
REMARK                            x       y       z     vdW  Elec       q    Type
REMARK                         _______ _______ _______ _____ _____    ______ ____
ROOT
ATOM      1  N   UNL     1      16.866  14.328  14.153  0.00  0.00    -0.354 N 
ATOM      2  N   UNL     1      18.646  12.936  13.646  0.00  0.00    -0.372 N 
ATOM      3  N   UNL     1      16.737  12.799  12.382  0.00  0.00    -0.372 N 
ATOM      4  C   UNL     1      17.403  13.362  13.395  0.00  0.00    +0.166 C 
ATOM      5  H   UNL     1      17.412  14.694  14.925  0.00  0.00    +0.163 HD
ATOM      6  H   UNL     1      19.079  12.211  13.090  0.00  0.00    +0.159 HD
ATOM      7  H   UNL     1      19.207  13.335  14.390  0.00  0.00    +0.159 HD
ATOM      8  H   UNL     1      15.792  13.071  12.144  0.00  0.00    +0.159 HD
ATOM      9  H   UNL     1      17.148  12.063  11.821  0.00  0.00    +0.159 HD
ENDROOT
BRANCH   1  10
ATOM     10  C   UNL     1      15.540  14.901  13.929  0.00  0.00    +0.151 C 
BRANCH  10  11
ATOM     11  C   UNL     1      14.878  15.141  15.258  0.00  0.00    -0.028 A 
ATOM     12  C   UNL     1      15.260  16.229  16.057  0.00  0.00    +0.005 A 
ATOM     13  C   UNL     1      13.865  14.288  15.721  0.00  0.00    +0.005 A 
ATOM     14  C   UNL     1      14.624  16.470  17.277  0.00  0.00    +0.000 A 
ATOM     15  C   UNL     1      13.233  14.532  16.941  0.00  0.00    +0.000 A 
ATOM     16  C   UNL     1      13.612  15.624  17.717  0.00  0.00    +0.000 A 
ENDBRANCH  10  11
ENDBRANCH   1  10
TORSDOF 2
ENDMDL
