MODEL 1
REMARK VINA RESULT:    -5.476      0.000      0.000
REMARK INTER + INTRA:          -6.221
REMARK INTER:                  -6.116
REMARK INTRA:                  -0.104
REMARK UNBOUND:                -0.104
REMARK  Name = 1550473
REMARK  2 active torsions:
REMARK  status: ('A' for Active; 'I' for Inactive)
REMARK    1  A    between atoms: N_1  and  C_4
REMARK    2  A    between atoms: C_4  and  C_5
REMARK                            x       y       z     vdW  Elec       q    Type
REMARK                         _______ _______ _______ _____ _____    ______ ____
ROOT
ATOM      1  N   UNL     1     -12.537   2.969  -0.147  0.00  0.00    -0.354 N 
ATOM      2  N   UNL     1     -12.324   5.157   0.583  0.00  0.00    -0.372 N 
ATOM      3  N   UNL     1     -13.926   4.661  -0.983  0.00  0.00    -0.372 N 
ATOM      4  C   UNL     1     -12.932   4.249  -0.189  0.00  0.00    +0.166 C 
ATOM      5  H   UNL     1     -11.758   2.726   0.453  0.00  0.00    +0.163 HD
ATOM      6  H   UNL     1     -12.603   6.129   0.575  0.00  0.00    +0.159 HD
ATOM      7  H   UNL     1     -11.576   4.903   1.216  0.00  0.00    +0.159 HD
ATOM      8  H   UNL     1     -14.422   4.027  -1.595  0.00  0.00    +0.159 HD
ATOM      9  H   UNL     1     -14.212   5.632  -1.014  0.00  0.00    +0.159 HD
ENDROOT
BRANCH   1  10
ATOM     10  C   UNL     1     -13.169   1.893  -0.908  0.00  0.00    +0.151 C 
BRANCH  10  11
ATOM     11  C   UNL     1     -12.871   0.579  -0.239  0.00  0.00    -0.028 A 
ATOM     12  C   UNL     1     -13.440   0.268   1.005  0.00  0.00    +0.005 A 
ATOM     13  C   UNL     1     -12.025  -0.362  -0.847  0.00  0.00    +0.005 A 
ATOM     14  C   UNL     1     -13.188  -0.965   1.612  0.00  0.00    +0.000 A 
ATOM     15  C   UNL     1     -11.775  -1.591  -0.237  0.00  0.00    +0.000 A 
ATOM     16  C   UNL     1     -12.358  -1.893   0.991  0.00  0.00    +0.000 A 
ENDBRANCH  10  11
ENDBRANCH   1  10
TORSDOF 2
ENDMDL
MODEL 2
REMARK VINA RESULT:    -5.469     13.066     14.082
REMARK INTER + INTRA:          -6.213
REMARK INTER:                  -6.035
REMARK INTRA:                  -0.178
REMARK UNBOUND:                -0.104
REMARK  Name = 1550473
REMARK  2 active torsions:
REMARK  status: ('A' for Active; 'I' for Inactive)
REMARK    1  A    between atoms: N_1  and  C_4
REMARK    2  A    between atoms: C_4  and  C_5
REMARK                            x       y       z     vdW  Elec       q    Type
REMARK                         _______ _______ _______ _____ _____    ______ ____
ROOT
ATOM      1  N   UNL     1      -5.557   1.847 -10.071  0.00  0.00    -0.354 N 
ATOM      2  N   UNL     1      -3.923   2.201  -8.469  0.00  0.00    -0.372 N 
ATOM      3  N   UNL     1      -3.544   2.917 -10.616  0.00  0.00    -0.372 N 
ATOM      4  C   UNL     1      -4.351   2.320  -9.731  0.00  0.00    +0.166 C 
ATOM      5  H   UNL     1      -6.108   1.378  -9.361  0.00  0.00    +0.163 HD
ATOM      6  H   UNL     1      -3.019   2.552  -8.182  0.00  0.00    +0.159 HD
ATOM      7  H   UNL     1      -4.495   1.773  -7.750  0.00  0.00    +0.159 HD
ATOM      8  H   UNL     1      -3.806   3.033 -11.585  0.00  0.00    +0.159 HD
ATOM      9  H   UNL     1      -2.631   3.264 -10.350  0.00  0.00    +0.159 HD
ENDROOT
BRANCH   1  10
ATOM     10  C   UNL     1      -6.139   1.974 -11.406  0.00  0.00    +0.151 C 
BRANCH  10  11
ATOM     11  C   UNL     1      -6.000   0.663 -12.130  0.00  0.00    -0.028 A 
ATOM     12  C   UNL     1      -4.905   0.428 -12.974  0.00  0.00    +0.005 A 
ATOM     13  C   UNL     1      -6.957  -0.351 -11.970  0.00  0.00    +0.005 A 
ATOM     14  C   UNL     1      -4.759  -0.801 -13.622  0.00  0.00    +0.000 A 
ATOM     15  C   UNL     1      -6.809  -1.576 -12.620  0.00  0.00    +0.000 A 
ATOM     16  C   UNL     1      -5.709  -1.802 -13.444  0.00  0.00    +0.000 A 
ENDBRANCH  10  11
ENDBRANCH   1  10
TORSDOF 2
ENDMDL
MODEL 3
REMARK VINA RESULT:    -5.403      5.457      6.826
REMARK INTER + INTRA:          -6.139
REMARK INTER:                  -6.033
REMARK INTRA:                  -0.107
REMARK UNBOUND:                -0.104
REMARK  Name = 1550473
REMARK  2 active torsions:
REMARK  status: ('A' for Active; 'I' for Inactive)
REMARK    1  A    between atoms: N_1  and  C_4
REMARK    2  A    between atoms: C_4  and  C_5
REMARK                            x       y       z     vdW  Elec       q    Type
REMARK                         _______ _______ _______ _____ _____    ______ ____
ROOT
ATOM      1  N   UNL     1     -15.877  -4.234  -0.531  0.00  0.00    -0.354 N 
ATOM      2  N   UNL     1     -17.149  -6.079   0.056  0.00  0.00    -0.372 N 
ATOM      3  N   UNL     1     -17.427  -5.157  -2.027  0.00  0.00    -0.372 N 
ATOM      4  C   UNL     1     -16.810  -5.144  -0.840  0.00  0.00    +0.166 C 
ATOM      5  H   UNL     1     -15.468  -4.260   0.397  0.00  0.00    +0.163 HD
ATOM      6  H   UNL     1     -17.847  -6.780  -0.150  0.00  0.00    +0.159 HD
ATOM      7  H   UNL     1     -16.706  -6.130   0.966  0.00  0.00    +0.159 HD
ATOM      8  H   UNL     1     -17.221  -4.475  -2.745  0.00  0.00    +0.159 HD
ATOM      9  H   UNL     1     -18.137  -5.844  -2.247  0.00  0.00    +0.159 HD
ENDROOT
BRANCH   1  10
ATOM     10  C   UNL     1     -15.398  -3.208  -1.455  0.00  0.00    +0.151 C 
BRANCH  10  11
ATOM     11  C   UNL     1     -14.054  -2.718  -0.990  0.00  0.00    -0.028 A 
ATOM     12  C   UNL     1     -13.000  -2.559  -1.902  0.00  0.00    +0.005 A 
ATOM     13  C   UNL     1     -13.830  -2.405   0.359  0.00  0.00    +0.005 A 
ATOM     14  C   UNL     1     -11.760  -2.075  -1.476  0.00  0.00    +0.000 A 
ATOM     15  C   UNL     1     -12.591  -1.923   0.780  0.00  0.00    +0.000 A 
ATOM     16  C   UNL     1     -11.557  -1.756  -0.138  0.00  0.00    +0.000 A 
ENDBRANCH  10  11
ENDBRANCH   1  10
TORSDOF 2
ENDMDL
MODEL 4
REMARK VINA RESULT:    -5.326     17.482     18.430
REMARK INTER + INTRA:          -6.053
REMARK INTER:                  -5.908
REMARK INTRA:                  -0.145
REMARK UNBOUND:                -0.104
REMARK  Name = 1550473
REMARK  2 active torsions:
REMARK  status: ('A' for Active; 'I' for Inactive)
REMARK    1  A    between atoms: N_1  and  C_4
REMARK    2  A    between atoms: C_4  and  C_5
REMARK                            x       y       z     vdW  Elec       q    Type
REMARK                         _______ _______ _______ _____ _____    ______ ____
ROOT
ATOM      1  N   UNL     1       1.108   4.192  -7.742  0.00  0.00    -0.354 N 
ATOM      2  N   UNL     1       0.535   3.680  -5.557  0.00  0.00    -0.372 N 
ATOM      3  N   UNL     1       0.655   1.985  -7.099  0.00  0.00    -0.372 N 
ATOM      4  C   UNL     1       0.770   3.287  -6.815  0.00  0.00    +0.166 C 
ATOM      5  H   UNL     1       1.148   5.168  -7.470  0.00  0.00    +0.163 HD
ATOM      6  H   UNL     1       0.282   3.019  -4.835  0.00  0.00    +0.159 HD
ATOM      7  H   UNL     1       0.621   4.650  -5.278  0.00  0.00    +0.159 HD
ATOM      8  H   UNL     1       0.813   1.624  -8.030  0.00  0.00    +0.159 HD
ATOM      9  H   UNL     1       0.391   1.309  -6.393  0.00  0.00    +0.159 HD
ENDROOT
BRANCH   1  10
ATOM     10  C   UNL     1       1.436   3.861  -9.128  0.00  0.00    +0.151 C 
BRANCH  10  11
ATOM     11  C   UNL     1       2.795   4.416  -9.457  0.00  0.00    -0.028 A 
ATOM     12  C   UNL     1       3.482   3.984 -10.601  0.00  0.00    +0.005 A 
ATOM     13  C   UNL     1       3.398   5.377  -8.632  0.00  0.00    +0.005 A 
ATOM     14  C   UNL     1       4.731   4.522 -10.923  0.00  0.00    +0.000 A 
ATOM     15  C   UNL     1       4.645   5.911  -8.957  0.00  0.00    +0.000 A 
ATOM     16  C   UNL     1       5.310   5.484 -10.104  0.00  0.00    +0.000 A 
ENDBRANCH  10  11
ENDBRANCH   1  10
TORSDOF 2
ENDMDL
MODEL 5
REMARK VINA RESULT:    -5.243      3.522      5.104
REMARK INTER + INTRA:          -5.961
REMARK INTER:                  -5.792
REMARK INTRA:                  -0.169
REMARK UNBOUND:                -0.104
REMARK  Name = 1550473
REMARK  2 active torsions:
REMARK  status: ('A' for Active; 'I' for Inactive)
REMARK    1  A    between atoms: N_1  and  C_4
REMARK    2  A    between atoms: C_4  and  C_5
REMARK                            x       y       z     vdW  Elec       q    Type
REMARK                         _______ _______ _______ _____ _____    ______ ____
ROOT
ATOM      1  N   UNL     1     -13.573  -2.558   1.313  0.00  0.00    -0.354 N 
ATOM      2  N   UNL     1     -15.441  -2.741   2.669  0.00  0.00    -0.372 N 
ATOM      3  N   UNL     1     -14.172  -0.833   2.783  0.00  0.00    -0.372 N 
ATOM      4  C   UNL     1     -14.382  -2.040   2.247  0.00  0.00    +0.166 C 
ATOM      5  H   UNL     1     -13.770  -3.490   0.969  0.00  0.00    +0.163 HD
ATOM      6  H   UNL     1     -16.072  -2.375   3.370  0.00  0.00    +0.159 HD
ATOM      7  H   UNL     1     -15.662  -3.654   2.290  0.00  0.00    +0.159 HD
ATOM      8  H   UNL     1     -13.387  -0.256   2.511  0.00  0.00    +0.159 HD
ATOM      9  H   UNL     1     -14.785  -0.455   3.494  0.00  0.00    +0.159 HD
ENDROOT
BRANCH   1  10
ATOM     10  C   UNL     1     -12.423  -1.854   0.747  0.00  0.00    +0.151 C 
BRANCH  10  11
ATOM     11  C   UNL     1     -12.860  -1.115  -0.488  0.00  0.00    -0.028 A 
ATOM     12  C   UNL     1     -13.222  -1.816  -1.647  0.00  0.00    +0.005 A 
ATOM     13  C   UNL     1     -12.918   0.287  -0.503  0.00  0.00    +0.005 A 
ATOM     14  C   UNL     1     -13.656  -1.131  -2.785  0.00  0.00    +0.000 A 
ATOM     15  C   UNL     1     -13.352   0.968  -1.641  0.00  0.00    +0.000 A 
ATOM     16  C   UNL     1     -13.723   0.258  -2.781  0.00  0.00    +0.000 A 
ENDBRANCH  10  11
ENDBRANCH   1  10
TORSDOF 2
ENDMDL
MODEL 6
REMARK VINA RESULT:    -5.237      1.064      2.006
REMARK INTER + INTRA:          -5.954
REMARK INTER:                  -5.820
REMARK INTRA:                  -0.134
REMARK UNBOUND:                -0.104
REMARK  Name = 1550473
REMARK  2 active torsions:
REMARK  status: ('A' for Active; 'I' for Inactive)
REMARK    1  A    between atoms: N_1  and  C_4
REMARK    2  A    between atoms: C_4  and  C_5
REMARK                            x       y       z     vdW  Elec       q    Type
REMARK                         _______ _______ _______ _____ _____    ______ ____
ROOT
ATOM      1  N   UNL     1     -13.483   2.415  -1.341  0.00  0.00    -0.354 N 
ATOM      2  N   UNL     1     -14.586   4.421  -1.691  0.00  0.00    -0.372 N 
ATOM      3  N   UNL     1     -12.400   4.464  -0.995  0.00  0.00    -0.372 N 
ATOM      4  C   UNL     1     -13.480   3.755  -1.339  0.00  0.00    +0.166 C 
ATOM      5  H   UNL     1     -14.343   1.936  -1.583  0.00  0.00    +0.163 HD
ATOM      6  H   UNL     1     -14.613   5.432  -1.702  0.00  0.00    +0.159 HD
ATOM      7  H   UNL     1     -15.430   3.940  -1.977  0.00  0.00    +0.159 HD
ATOM      8  H   UNL     1     -11.536   4.021  -0.714  0.00  0.00    +0.159 HD
ATOM      9  H   UNL     1     -12.411   5.477  -0.989  0.00  0.00    +0.159 HD
ENDROOT
BRANCH   1  10
ATOM     10  C   UNL     1     -12.315   1.594  -1.027  0.00  0.00    +0.151 C 
BRANCH  10  11
ATOM     11  C   UNL     1     -12.730   0.483  -0.103  0.00  0.00    -0.028 A 
ATOM     12  C   UNL     1     -12.516  -0.857  -0.460  0.00  0.00    +0.005 A 
ATOM     13  C   UNL     1     -13.334   0.762   1.132  0.00  0.00    +0.005 A 
ATOM     14  C   UNL     1     -12.874  -1.889   0.411  0.00  0.00    +0.000 A 
ATOM     15  C   UNL     1     -13.691  -0.271   1.998  0.00  0.00    +0.000 A 
ATOM     16  C   UNL     1     -13.458  -1.597   1.638  0.00  0.00    +0.000 A 
ENDBRANCH  10  11
ENDBRANCH   1  10
TORSDOF 2
ENDMDL
MODEL 7
REMARK VINA RESULT:    -5.134     17.751     18.671
REMARK INTER + INTRA:          -5.839
REMARK INTER:                  -5.705
REMARK INTRA:                  -0.134
REMARK UNBOUND:                -0.104
REMARK  Name = 1550473
REMARK  2 active torsions:
REMARK  status: ('A' for Active; 'I' for Inactive)
REMARK    1  A    between atoms: N_1  and  C_4
REMARK    2  A    between atoms: C_4  and  C_5
REMARK                            x       y       z     vdW  Elec       q    Type
REMARK                         _______ _______ _______ _____ _____    ______ ____
ROOT
ATOM      1  N   UNL     1       2.381   3.444  -6.462  0.00  0.00    -0.354 N 
ATOM      2  N   UNL     1       0.237   3.557  -5.593  0.00  0.00    -0.372 N 
ATOM      3  N   UNL     1       0.601   2.320  -7.491  0.00  0.00    -0.372 N 
ATOM      4  C   UNL     1       1.087   3.105  -6.524  0.00  0.00    +0.166 C 
ATOM      5  H   UNL     1       2.681   4.067  -5.721  0.00  0.00    +0.163 HD
ATOM      6  H   UNL     1      -0.745   3.315  -5.612  0.00  0.00    +0.159 HD
ATOM      7  H   UNL     1       0.548   4.142  -4.827  0.00  0.00    +0.159 HD
ATOM      8  H   UNL     1       1.189   1.951  -8.226  0.00  0.00    +0.159 HD
ATOM      9  H   UNL     1      -0.380   2.076  -7.533  0.00  0.00    +0.159 HD
ENDROOT
BRANCH   1  10
ATOM     10  C   UNL     1       3.398   2.962  -7.394  0.00  0.00    +0.151 C 
BRANCH  10  11
ATOM     11  C   UNL     1       4.236   4.124  -7.852  0.00  0.00    -0.028 A 
ATOM     12  C   UNL     1       5.602   4.184  -7.539  0.00  0.00    +0.005 A 
ATOM     13  C   UNL     1       3.671   5.165  -8.604  0.00  0.00    +0.005 A 
ATOM     14  C   UNL     1       6.386   5.249  -7.990  0.00  0.00    +0.000 A 
ATOM     15  C   UNL     1       4.457   6.227  -9.052  0.00  0.00    +0.000 A 
ATOM     16  C   UNL     1       5.816   6.267  -8.746  0.00  0.00    +0.000 A 
ENDBRANCH  10  11
ENDBRANCH   1  10
TORSDOF 2
ENDMDL
MODEL 8
REMARK VINA RESULT:    -5.118     28.948     29.724
REMARK INTER + INTRA:          -5.821
REMARK INTER:                  -5.698
REMARK INTRA:                  -0.123
REMARK UNBOUND:                -0.104
REMARK  Name = 1550473
REMARK  2 active torsions:
REMARK  status: ('A' for Active; 'I' for Inactive)
REMARK    1  A    between atoms: N_1  and  C_4
REMARK    2  A    between atoms: C_4  and  C_5
REMARK                            x       y       z     vdW  Elec       q    Type
REMARK                         _______ _______ _______ _____ _____    ______ ____
ROOT
ATOM      1  N   UNL     1      15.290  -0.814  11.845  0.00  0.00    -0.354 N 
ATOM      2  N   UNL     1      17.529  -0.255  11.651  0.00  0.00    -0.372 N 
ATOM      3  N   UNL     1      16.358  -0.818   9.759  0.00  0.00    -0.372 N 
ATOM      4  C   UNL     1      16.377  -0.634  11.083  0.00  0.00    +0.166 C 
ATOM      5  H   UNL     1      15.377  -0.688  12.846  0.00  0.00    +0.163 HD
ATOM      6  H   UNL     1      18.365  -0.107  11.101  0.00  0.00    +0.159 HD
ATOM      7  H   UNL     1      17.602  -0.085  12.646  0.00  0.00    +0.159 HD
ATOM      8  H   UNL     1      15.522  -1.109   9.271  0.00  0.00    +0.159 HD
ATOM      9  H   UNL     1      17.188  -0.687   9.194  0.00  0.00    +0.159 HD
ENDROOT
BRANCH   1  10
ATOM     10  C   UNL     1      13.974  -1.174  11.319  0.00  0.00    +0.151 C 
BRANCH  10  11
ATOM     11  C   UNL     1      13.082  -1.578  12.460  0.00  0.00    -0.028 A 
ATOM     12  C   UNL     1      13.632  -1.949  13.696  0.00  0.00    +0.005 A 
ATOM     13  C   UNL     1      11.687  -1.586  12.314  0.00  0.00    +0.005 A 
ATOM     14  C   UNL     1      12.803  -2.296  14.766  0.00  0.00    +0.000 A 
ATOM     15  C   UNL     1      10.863  -1.934  13.385  0.00  0.00    +0.000 A 
ATOM     16  C   UNL     1      11.421  -2.286  14.611  0.00  0.00    +0.000 A 
ENDBRANCH  10  11
ENDBRANCH   1  10
TORSDOF 2
ENDMDL
MODEL 9
REMARK VINA RESULT:    -5.036      3.177      4.213
REMARK INTER + INTRA:          -5.730
REMARK INTER:                  -5.590
REMARK INTRA:                  -0.139
REMARK UNBOUND:                -0.104
REMARK  Name = 1550473
REMARK  2 active torsions:
REMARK  status: ('A' for Active; 'I' for Inactive)
REMARK    1  A    between atoms: N_1  and  C_4
REMARK    2  A    between atoms: C_4  and  C_5
REMARK                            x       y       z     vdW  Elec       q    Type
REMARK                         _______ _______ _______ _____ _____    ______ ____
ROOT
ATOM      1  N   UNL     1      -9.939   0.251  -2.033  0.00  0.00    -0.354 N 
ATOM      2  N   UNL     1      -7.975  -0.535  -2.977  0.00  0.00    -0.372 N 
ATOM      3  N   UNL     1      -9.957  -0.901  -4.074  0.00  0.00    -0.372 N 
ATOM      4  C   UNL     1      -9.305  -0.391  -3.023  0.00  0.00    +0.166 C 
ATOM      5  H   UNL     1      -9.391   0.587  -1.249  0.00  0.00    +0.163 HD
ATOM      6  H   UNL     1      -7.469  -1.011  -3.711  0.00  0.00    +0.159 HD
ATOM      7  H   UNL     1      -7.425  -0.157  -2.215  0.00  0.00    +0.159 HD
ATOM      8  H   UNL     1     -10.962  -0.831  -4.166  0.00  0.00    +0.159 HD
ATOM      9  H   UNL     1      -9.469  -1.391  -4.813  0.00  0.00    +0.159 HD
ENDROOT
BRANCH   1  10
ATOM     10  C   UNL     1     -11.378   0.508  -2.014  0.00  0.00    +0.151 C 
BRANCH  10  11
ATOM     11  C   UNL     1     -11.972  -0.114  -0.780  0.00  0.00    -0.028 A 
ATOM     12  C   UNL     1     -12.885   0.601   0.008  0.00  0.00    +0.005 A 
ATOM     13  C   UNL     1     -11.630  -1.420  -0.398  0.00  0.00    +0.005 A 
ATOM     14  C   UNL     1     -13.460   0.012   1.137  0.00  0.00    +0.000 A 
ATOM     15  C   UNL     1     -12.205  -2.004   0.731  0.00  0.00    +0.000 A 
ATOM     16  C   UNL     1     -13.123  -1.288   1.497  0.00  0.00    +0.000 A 
ENDBRANCH  10  11
ENDBRANCH   1  10
TORSDOF 2
ENDMDL
