MODEL 1
REMARK VINA RESULT:    -4.674      0.000      0.000
REMARK INTER + INTRA:          -5.322
REMARK INTER:                  -5.221
REMARK INTRA:                  -0.101
REMARK UNBOUND:                -0.101
REMARK  Name = 1550473
REMARK  2 active torsions:
REMARK  status: ('A' for Active; 'I' for Inactive)
REMARK    1  A    between atoms: N_1  and  C_4
REMARK    2  A    between atoms: C_4  and  C_5
REMARK                            x       y       z     vdW  Elec       q    Type
REMARK                         _______ _______ _______ _____ _____    ______ ____
ROOT
ATOM      1  N   UNL     1      18.181   4.333  12.678  0.00  0.00    -0.354 N 
ATOM      2  N   UNL     1      18.913   6.528  12.778  0.00  0.00    -0.372 N 
ATOM      3  N   UNL     1      17.362   5.805  14.307  0.00  0.00    -0.372 N 
ATOM      4  C   UNL     1      18.145   5.541  13.256  0.00  0.00    +0.166 C 
ATOM      5  H   UNL     1      18.773   4.206  11.865  0.00  0.00    +0.163 HD
ATOM      6  H   UNL     1      18.910   7.449  13.196  0.00  0.00    +0.159 HD
ATOM      7  H   UNL     1      19.538   6.386  11.995  0.00  0.00    +0.159 HD
ATOM      8  H   UNL     1      16.754   5.105  14.711  0.00  0.00    +0.159 HD
ATOM      9  H   UNL     1      17.336   6.724  14.731  0.00  0.00    +0.159 HD
ENDROOT
BRANCH   1  10
ATOM     10  C   UNL     1      17.425   3.177  13.154  0.00  0.00    +0.151 C 
BRANCH  10  11
ATOM     11  C   UNL     1      17.447   2.107  12.097  0.00  0.00    -0.028 A 
ATOM     12  C   UNL     1      18.665   1.635  11.587  0.00  0.00    +0.005 A 
ATOM     13  C   UNL     1      16.253   1.557  11.605  0.00  0.00    +0.005 A 
ATOM     14  C   UNL     1      18.687   0.620  10.628  0.00  0.00    +0.000 A 
ATOM     15  C   UNL     1      16.279   0.544  10.647  0.00  0.00    +0.000 A 
ATOM     16  C   UNL     1      17.497   0.074  10.160  0.00  0.00    +0.000 A 
ENDBRANCH  10  11
ENDBRANCH   1  10
TORSDOF 2
ENDMDL
MODEL 2
REMARK VINA RESULT:    -4.604     27.357     28.928
REMARK INTER + INTRA:          -5.244
REMARK INTER:                  -5.068
REMARK INTRA:                  -0.176
REMARK UNBOUND:                -0.101
REMARK  Name = 1550473
REMARK  2 active torsions:
REMARK  status: ('A' for Active; 'I' for Inactive)
REMARK    1  A    between atoms: N_1  and  C_4
REMARK    2  A    between atoms: C_4  and  C_5
REMARK                            x       y       z     vdW  Elec       q    Type
REMARK                         _______ _______ _______ _____ _____    ______ ____
ROOT
ATOM      1  N   UNL     1      -7.361  -5.703   1.213  0.00  0.00    -0.354 N 
ATOM      2  N   UNL     1      -8.481  -7.131   2.651  0.00  0.00    -0.372 N 
ATOM      3  N   UNL     1      -9.629  -6.198   0.897  0.00  0.00    -0.372 N 
ATOM      4  C   UNL     1      -8.485  -6.334   1.576  0.00  0.00    +0.166 C 
ATOM      5  H   UNL     1      -6.534  -5.823   1.788  0.00  0.00    +0.163 HD
ATOM      6  H   UNL     1      -9.314  -7.623   2.947  0.00  0.00    +0.159 HD
ATOM      7  H   UNL     1      -7.642  -7.286   3.197  0.00  0.00    +0.159 HD
ATOM      8  H   UNL     1      -9.700  -5.607   0.080  0.00  0.00    +0.159 HD
ATOM      9  H   UNL     1     -10.476  -6.673   1.184  0.00  0.00    +0.159 HD
ENDROOT
BRANCH   1  10
ATOM     10  C   UNL     1      -7.245  -4.855   0.028  0.00  0.00    +0.151 C 
BRANCH  10  11
ATOM     11  C   UNL     1      -7.233  -3.413   0.455  0.00  0.00    -0.028 A 
ATOM     12  C   UNL     1      -8.272  -2.550   0.076  0.00  0.00    +0.005 A 
ATOM     13  C   UNL     1      -6.189  -2.905   1.243  0.00  0.00    +0.005 A 
ATOM     14  C   UNL     1      -8.277  -1.218   0.497  0.00  0.00    +0.000 A 
ATOM     15  C   UNL     1      -6.198  -1.574   1.661  0.00  0.00    +0.000 A 
ATOM     16  C   UNL     1      -7.243  -0.732   1.290  0.00  0.00    +0.000 A 
ENDBRANCH  10  11
ENDBRANCH   1  10
TORSDOF 2
ENDMDL
MODEL 3
REMARK VINA RESULT:    -4.579      4.135      5.900
REMARK INTER + INTRA:          -5.216
REMARK INTER:                  -5.105
REMARK INTRA:                  -0.111
REMARK UNBOUND:                -0.101
REMARK  Name = 1550473
REMARK  2 active torsions:
REMARK  status: ('A' for Active; 'I' for Inactive)
REMARK    1  A    between atoms: N_1  and  C_4
REMARK    2  A    between atoms: C_4  and  C_5
REMARK                            x       y       z     vdW  Elec       q    Type
REMARK                         _______ _______ _______ _____ _____    ______ ____
ROOT
ATOM      1  N   UNL     1      18.172  -1.594  10.923  0.00  0.00    -0.354 N 
ATOM      2  N   UNL     1      18.595  -3.708  11.768  0.00  0.00    -0.372 N 
ATOM      3  N   UNL     1      20.244  -2.636  10.587  0.00  0.00    -0.372 N 
ATOM      4  C   UNL     1      19.003  -2.632  11.086  0.00  0.00    +0.166 C 
ATOM      5  H   UNL     1      17.234  -1.665  11.299  0.00  0.00    +0.163 HD
ATOM      6  H   UNL     1      19.201  -4.505  11.911  0.00  0.00    +0.159 HD
ATOM      7  H   UNL     1      17.672  -3.758  12.183  0.00  0.00    +0.159 HD
ATOM      8  H   UNL     1      20.611  -1.857  10.058  0.00  0.00    +0.159 HD
ATOM      9  H   UNL     1      20.862  -3.429  10.709  0.00  0.00    +0.159 HD
ENDROOT
BRANCH   1  10
ATOM     10  C   UNL     1      18.538  -0.353  10.242  0.00  0.00    +0.151 C 
BRANCH  10  11
ATOM     11  C   UNL     1      17.957   0.811  10.997  0.00  0.00    -0.028 A 
ATOM     12  C   UNL     1      16.576   0.891  11.230  0.00  0.00    +0.005 A 
ATOM     13  C   UNL     1      18.782   1.834  11.488  0.00  0.00    +0.005 A 
ATOM     14  C   UNL     1      16.039   1.956  11.957  0.00  0.00    +0.000 A 
ATOM     15  C   UNL     1      18.242   2.896  12.213  0.00  0.00    +0.000 A 
ATOM     16  C   UNL     1      16.871   2.955  12.449  0.00  0.00    +0.000 A 
ENDBRANCH  10  11
ENDBRANCH   1  10
TORSDOF 2
ENDMDL
MODEL 4
REMARK VINA RESULT:    -4.389     18.526     19.326
REMARK INTER + INTRA:          -5.004
REMARK INTER:                  -4.881
REMARK INTRA:                  -0.123
REMARK UNBOUND:                -0.101
REMARK  Name = 1550473
REMARK  2 active torsions:
REMARK  status: ('A' for Active; 'I' for Inactive)
REMARK    1  A    between atoms: N_1  and  C_4
REMARK    2  A    between atoms: C_4  and  C_5
REMARK                            x       y       z     vdW  Elec       q    Type
REMARK                         _______ _______ _______ _____ _____    ______ ____
ROOT
ATOM      1  N   UNL     1       4.396  -2.968  -1.087  0.00  0.00    -0.354 N 
ATOM      2  N   UNL     1       4.168  -5.014  -2.148  0.00  0.00    -0.372 N 
ATOM      3  N   UNL     1       4.249  -4.956   0.144  0.00  0.00    -0.372 N 
ATOM      4  C   UNL     1       4.273  -4.300  -1.021  0.00  0.00    +0.166 C 
ATOM      5  H   UNL     1       4.437  -2.533  -2.002  0.00  0.00    +0.163 HD
ATOM      6  H   UNL     1       4.071  -6.020  -2.129  0.00  0.00    +0.159 HD
ATOM      7  H   UNL     1       4.164  -4.572  -3.060  0.00  0.00    +0.159 HD
ATOM      8  H   UNL     1       4.329  -4.476   1.031  0.00  0.00    +0.159 HD
ATOM      9  H   UNL     1       4.164  -5.964   0.183  0.00  0.00    +0.159 HD
ENDROOT
BRANCH   1  10
ATOM     10  C   UNL     1       4.462  -2.093   0.083  0.00  0.00    +0.151 C 
BRANCH  10  11
ATOM     11  C   UNL     1       4.932  -0.731  -0.348  0.00  0.00    -0.028 A 
ATOM     12  C   UNL     1       5.658  -0.572  -1.538  0.00  0.00    +0.005 A 
ATOM     13  C   UNL     1       4.650   0.405   0.426  0.00  0.00    +0.005 A 
ATOM     14  C   UNL     1       6.068   0.697  -1.954  0.00  0.00    +0.000 A 
ATOM     15  C   UNL     1       5.062   1.670   0.008  0.00  0.00    +0.000 A 
ATOM     16  C   UNL     1       5.769   1.816  -1.183  0.00  0.00    +0.000 A 
ENDBRANCH  10  11
ENDBRANCH   1  10
TORSDOF 2
ENDMDL
MODEL 5
REMARK VINA RESULT:    -4.351     24.257     25.384
REMARK INTER + INTRA:          -4.960
REMARK INTER:                  -4.806
REMARK INTRA:                  -0.155
REMARK UNBOUND:                -0.101
REMARK  Name = 1550473
REMARK  2 active torsions:
REMARK  status: ('A' for Active; 'I' for Inactive)
REMARK    1  A    between atoms: N_1  and  C_4
REMARK    2  A    between atoms: C_4  and  C_5
REMARK                            x       y       z     vdW  Elec       q    Type
REMARK                         _______ _______ _______ _____ _____    ______ ____
ROOT
ATOM      1  N   UNL     1       0.169   4.426  -3.863  0.00  0.00    -0.354 N 
ATOM      2  N   UNL     1       2.031   4.709  -2.515  0.00  0.00    -0.372 N 
ATOM      3  N   UNL     1       0.377   6.300  -2.470  0.00  0.00    -0.372 N 
ATOM      4  C   UNL     1       0.846   5.146  -2.958  0.00  0.00    +0.166 C 
ATOM      5  H   UNL     1       0.592   3.575  -4.215  0.00  0.00    +0.163 HD
ATOM      6  H   UNL     1       2.563   5.229  -1.830  0.00  0.00    +0.159 HD
ATOM      7  H   UNL     1       2.430   3.835  -2.835  0.00  0.00    +0.159 HD
ATOM      8  H   UNL     1      -0.508   6.687  -2.768  0.00  0.00    +0.159 HD
ATOM      9  H   UNL     1       0.900   6.840  -1.792  0.00  0.00    +0.159 HD
ENDROOT
BRANCH   1  10
ATOM     10  C   UNL     1      -1.154   4.786  -4.370  0.00  0.00    +0.151 C 
BRANCH  10  11
ATOM     11  C   UNL     1      -1.037   5.176  -5.817  0.00  0.00    -0.028 A 
ATOM     12  C   UNL     1      -1.762   6.265  -6.322  0.00  0.00    +0.005 A 
ATOM     13  C   UNL     1      -0.197   4.465  -6.687  0.00  0.00    +0.005 A 
ATOM     14  C   UNL     1      -1.630   6.646  -7.660  0.00  0.00    +0.000 A 
ATOM     15  C   UNL     1      -0.068   4.848  -8.022  0.00  0.00    +0.000 A 
ATOM     16  C   UNL     1      -0.783   5.940  -8.507  0.00  0.00    +0.000 A 
ENDBRANCH  10  11
ENDBRANCH   1  10
TORSDOF 2
ENDMDL
MODEL 6
REMARK VINA RESULT:    -4.345     33.704     35.469
REMARK INTER + INTRA:          -4.954
REMARK INTER:                  -4.827
REMARK INTRA:                  -0.128
REMARK UNBOUND:                -0.101
REMARK  Name = 1550473
REMARK  2 active torsions:
REMARK  status: ('A' for Active; 'I' for Inactive)
REMARK    1  A    between atoms: N_1  and  C_4
REMARK    2  A    between atoms: C_4  and  C_5
REMARK                            x       y       z     vdW  Elec       q    Type
REMARK                         _______ _______ _______ _____ _____    ______ ____
ROOT
ATOM      1  N   UNL     1      -6.153 -15.201  -3.716  0.00  0.00    -0.354 N 
ATOM      2  N   UNL     1      -4.358 -14.933  -2.277  0.00  0.00    -0.372 N 
ATOM      3  N   UNL     1      -5.478 -13.070  -3.012  0.00  0.00    -0.372 N 
ATOM      4  C   UNL     1      -5.342 -14.400  -3.012  0.00  0.00    +0.166 C 
ATOM      5  H   UNL     1      -5.979 -16.199  -3.698  0.00  0.00    +0.163 HD
ATOM      6  H   UNL     1      -3.732 -14.354  -1.733  0.00  0.00    +0.159 HD
ATOM      7  H   UNL     1      -4.214 -15.934  -2.225  0.00  0.00    +0.159 HD
ATOM      8  H   UNL     1      -6.197 -12.606  -3.550  0.00  0.00    +0.159 HD
ATOM      9  H   UNL     1      -4.855 -12.473  -2.483  0.00  0.00    +0.159 HD
ENDROOT
BRANCH   1  10
ATOM     10  C   UNL     1      -7.288 -14.725  -4.505  0.00  0.00    +0.151 C 
BRANCH  10  11
ATOM     11  C   UNL     1      -8.339 -15.800  -4.551  0.00  0.00    -0.028 A 
ATOM     12  C   UNL     1      -9.187 -15.919  -5.662  0.00  0.00    +0.005 A 
ATOM     13  C   UNL     1      -8.487 -16.707  -3.491  0.00  0.00    +0.005 A 
ATOM     14  C   UNL     1     -10.143 -16.936  -5.719  0.00  0.00    +0.000 A 
ATOM     15  C   UNL     1      -9.443 -17.721  -3.551  0.00  0.00    +0.000 A 
ATOM     16  C   UNL     1     -10.269 -17.837  -4.667  0.00  0.00    +0.000 A 
ENDBRANCH  10  11
ENDBRANCH   1  10
TORSDOF 2
ENDMDL
MODEL 7
REMARK VINA RESULT:    -4.226     24.537     25.785
REMARK INTER + INTRA:          -4.821
REMARK INTER:                  -4.693
REMARK INTRA:                  -0.128
REMARK UNBOUND:                -0.101
REMARK  Name = 1550473
REMARK  2 active torsions:
REMARK  status: ('A' for Active; 'I' for Inactive)
REMARK    1  A    between atoms: N_1  and  C_4
REMARK    2  A    between atoms: C_4  and  C_5
REMARK                            x       y       z     vdW  Elec       q    Type
REMARK                         _______ _______ _______ _____ _____    ______ ____
ROOT
ATOM      1  N   UNL     1       1.337   3.062  -5.988  0.00  0.00    -0.354 N 
ATOM      2  N   UNL     1       3.310   1.870  -5.759  0.00  0.00    -0.372 N 
ATOM      3  N   UNL     1       2.351   2.797  -3.892  0.00  0.00    -0.372 N 
ATOM      4  C   UNL     1       2.319   2.585  -5.212  0.00  0.00    +0.166 C 
ATOM      5  H   UNL     1       1.387   2.893  -6.986  0.00  0.00    +0.163 HD
ATOM      6  H   UNL     1       4.063   1.494  -5.198  0.00  0.00    +0.159 HD
ATOM      7  H   UNL     1       3.333   1.663  -6.750  0.00  0.00    +0.159 HD
ATOM      8  H   UNL     1       1.636   3.334  -3.419  0.00  0.00    +0.159 HD
ATOM      9  H   UNL     1       3.102   2.439  -3.315  0.00  0.00    +0.159 HD
ENDROOT
BRANCH   1  10
ATOM     10  C   UNL     1       0.185   3.807  -5.484  0.00  0.00    +0.151 C 
BRANCH  10  11
ATOM     11  C   UNL     1      -0.344   4.694  -6.577  0.00  0.00    -0.028 A 
ATOM     12  C   UNL     1      -1.386   5.596  -6.320  0.00  0.00    +0.005 A 
ATOM     13  C   UNL     1       0.198   4.641  -7.871  0.00  0.00    +0.005 A 
ATOM     14  C   UNL     1      -1.857   6.442  -7.328  0.00  0.00    +0.000 A 
ATOM     15  C   UNL     1      -0.275   5.486  -8.874  0.00  0.00    +0.000 A 
ATOM     16  C   UNL     1      -1.301   6.388  -8.602  0.00  0.00    +0.000 A 
ENDBRANCH  10  11
ENDBRANCH   1  10
TORSDOF 2
ENDMDL
MODEL 8
REMARK VINA RESULT:    -4.172     20.433     21.601
REMARK INTER + INTRA:          -4.760
REMARK INTER:                  -4.599
REMARK INTRA:                  -0.161
REMARK UNBOUND:                -0.101
REMARK  Name = 1550473
REMARK  2 active torsions:
REMARK  status: ('A' for Active; 'I' for Inactive)
REMARK    1  A    between atoms: N_1  and  C_4
REMARK    2  A    between atoms: C_4  and  C_5
REMARK                            x       y       z     vdW  Elec       q    Type
REMARK                         _______ _______ _______ _____ _____    ______ ____
ROOT
ATOM      1  N   UNL     1       1.979   3.749  -0.321  0.00  0.00    -0.354 N 
ATOM      2  N   UNL     1       3.541   2.714  -1.681  0.00  0.00    -0.372 N 
ATOM      3  N   UNL     1       4.066   4.733  -0.727  0.00  0.00    -0.372 N 
ATOM      4  C   UNL     1       3.187   3.741  -0.900  0.00  0.00    +0.166 C 
ATOM      5  H   UNL     1       1.346   2.981  -0.516  0.00  0.00    +0.163 HD
ATOM      6  H   UNL     1       4.447   2.679  -2.129  0.00  0.00    +0.159 HD
ATOM      7  H   UNL     1       2.925   1.926  -1.838  0.00  0.00    +0.159 HD
ATOM      8  H   UNL     1       3.857   5.540  -0.154  0.00  0.00    +0.159 HD
ATOM      9  H   UNL     1       4.973   4.722  -1.176  0.00  0.00    +0.159 HD
ENDROOT
BRANCH   1  10
ATOM     10  C   UNL     1       1.516   4.794   0.591  0.00  0.00    +0.151 C 
BRANCH  10  11
ATOM     11  C   UNL     1       0.307   5.463  -0.003  0.00  0.00    -0.028 A 
ATOM     12  C   UNL     1       0.432   6.290  -1.129  0.00  0.00    +0.005 A 
ATOM     13  C   UNL     1      -0.968   5.269   0.551  0.00  0.00    +0.005 A 
ATOM     14  C   UNL     1      -0.694   6.888  -1.699  0.00  0.00    +0.000 A 
ATOM     15  C   UNL     1      -2.090   5.868  -0.020  0.00  0.00    +0.000 A 
ATOM     16  C   UNL     1      -1.953   6.676  -1.146  0.00  0.00    +0.000 A 
ENDBRANCH  10  11
ENDBRANCH   1  10
TORSDOF 2
ENDMDL
MODEL 9
REMARK VINA RESULT:    -4.058     29.825     30.833
REMARK INTER + INTRA:          -4.634
REMARK INTER:                  -4.462
REMARK INTRA:                  -0.172
REMARK UNBOUND:                -0.101
REMARK  Name = 1550473
REMARK  2 active torsions:
REMARK  status: ('A' for Active; 'I' for Inactive)
REMARK    1  A    between atoms: N_1  and  C_4
REMARK    2  A    between atoms: C_4  and  C_5
REMARK                            x       y       z     vdW  Elec       q    Type
REMARK                         _______ _______ _______ _____ _____    ______ ____
ROOT
ATOM      1  N   UNL     1      -7.463  -7.265   0.723  0.00  0.00    -0.354 N 
ATOM      2  N   UNL     1      -8.532  -7.283   2.778  0.00  0.00    -0.372 N 
ATOM      3  N   UNL     1      -9.520  -6.182   1.023  0.00  0.00    -0.372 N 
ATOM      4  C   UNL     1      -8.500  -6.908   1.493  0.00  0.00    +0.166 C 
ATOM      5  H   UNL     1      -6.707  -7.790   1.148  0.00  0.00    +0.163 HD
ATOM      6  H   UNL     1      -9.303  -7.032   3.382  0.00  0.00    +0.159 HD
ATOM      7  H   UNL     1      -7.797  -7.847   3.187  0.00  0.00    +0.159 HD
ATOM      8  H   UNL     1      -9.552  -5.863   0.064  0.00  0.00    +0.159 HD
ATOM      9  H   UNL     1     -10.294  -5.911   1.615  0.00  0.00    +0.159 HD
ENDROOT
BRANCH   1  10
ATOM     10  C   UNL     1      -7.357  -6.954  -0.701  0.00  0.00    +0.151 C 
BRANCH  10  11
ATOM     11  C   UNL     1      -7.519  -8.222  -1.494  0.00  0.00    -0.028 A 
ATOM     12  C   UNL     1      -6.398  -8.982  -1.859  0.00  0.00    +0.005 A 
ATOM     13  C   UNL     1      -8.792  -8.671  -1.879  0.00  0.00    +0.005 A 
ATOM     14  C   UNL     1      -6.551 -10.175  -2.569  0.00  0.00    +0.000 A 
ATOM     15  C   UNL     1      -8.940  -9.862  -2.589  0.00  0.00    +0.000 A 
ATOM     16  C   UNL     1      -7.819 -10.615  -2.932  0.00  0.00    +0.000 A 
ENDBRANCH  10  11
ENDBRANCH   1  10
TORSDOF 2
ENDMDL
