MODEL 1
REMARK VINA RESULT:    -5.095      0.000      0.000
REMARK INTER + INTRA:          -5.819
REMARK INTER:                  -5.690
REMARK INTRA:                  -0.129
REMARK UNBOUND:                -0.129
REMARK  Name = 1550473
REMARK  2 active torsions:
REMARK  status: ('A' for Active; 'I' for Inactive)
REMARK    1  A    between atoms: N_1  and  C_4
REMARK    2  A    between atoms: C_4  and  C_5
REMARK                            x       y       z     vdW  Elec       q    Type
REMARK                         _______ _______ _______ _____ _____    ______ ____
ROOT
ATOM      1  N   UNL     1      -0.971   1.362  11.170  0.00  0.00    -0.354 N 
ATOM      2  N   UNL     1      -2.453  -0.417  11.183  0.00  0.00    -0.372 N 
ATOM      3  N   UNL     1      -0.393  -0.683  12.157  0.00  0.00    -0.372 N 
ATOM      4  C   UNL     1      -1.260   0.098  11.505  0.00  0.00    +0.166 C 
ATOM      5  H   UNL     1      -1.660   1.892  10.649  0.00  0.00    +0.163 HD
ATOM      6  H   UNL     1      -2.701  -1.367  11.426  0.00  0.00    +0.159 HD
ATOM      7  H   UNL     1      -3.158   0.129  10.703  0.00  0.00    +0.159 HD
ATOM      8  H   UNL     1       0.527  -0.356  12.423  0.00  0.00    +0.159 HD
ATOM      9  H   UNL     1      -0.618  -1.640  12.398  0.00  0.00    +0.159 HD
ENDROOT
BRANCH   1  10
ATOM     10  C   UNL     1       0.279   2.035  11.520  0.00  0.00    +0.151 C 
BRANCH  10  11
ATOM     11  C   UNL     1      -0.030   3.224  12.388  0.00  0.00    -0.028 A 
ATOM     12  C   UNL     1      -1.347   3.487  12.793  0.00  0.00    +0.005 A 
ATOM     13  C   UNL     1       0.991   4.089  12.813  0.00  0.00    +0.005 A 
ATOM     14  C   UNL     1      -1.630   4.575  13.623  0.00  0.00    +0.000 A 
ATOM     15  C   UNL     1       0.704   5.174  13.641  0.00  0.00    +0.000 A 
ATOM     16  C   UNL     1      -0.606   5.415  14.048  0.00  0.00    +0.000 A 
ENDBRANCH  10  11
ENDBRANCH   1  10
TORSDOF 2
ENDMDL
MODEL 2
REMARK VINA RESULT:    -4.896      4.116      5.453
REMARK INTER + INTRA:          -5.597
REMARK INTER:                  -5.487
REMARK INTRA:                  -0.109
REMARK UNBOUND:                -0.129
REMARK  Name = 1550473
REMARK  2 active torsions:
REMARK  status: ('A' for Active; 'I' for Inactive)
REMARK    1  A    between atoms: N_1  and  C_4
REMARK    2  A    between atoms: C_4  and  C_5
REMARK                            x       y       z     vdW  Elec       q    Type
REMARK                         _______ _______ _______ _____ _____    ______ ____
ROOT
ATOM      1  N   UNL     1      -3.432   5.989  14.257  0.00  0.00    -0.354 N 
ATOM      2  N   UNL     1      -5.401   7.090  13.730  0.00  0.00    -0.372 N 
ATOM      3  N   UNL     1      -4.359   7.570  15.717  0.00  0.00    -0.372 N 
ATOM      4  C   UNL     1      -4.384   6.877  14.574  0.00  0.00    +0.166 C 
ATOM      5  H   UNL     1      -3.525   5.474  13.389  0.00  0.00    +0.163 HD
ATOM      6  H   UNL     1      -6.132   7.756  13.941  0.00  0.00    +0.159 HD
ATOM      7  H   UNL     1      -5.466   6.607  12.842  0.00  0.00    +0.159 HD
ATOM      8  H   UNL     1      -3.622   7.451  16.400  0.00  0.00    +0.159 HD
ATOM      9  H   UNL     1      -5.088   8.232  15.952  0.00  0.00    +0.159 HD
ENDROOT
BRANCH   1  10
ATOM     10  C   UNL     1      -2.255   5.722  15.081  0.00  0.00    +0.151 C 
BRANCH  10  11
ATOM     11  C   UNL     1      -1.168   5.147  14.215  0.00  0.00    -0.028 A 
ATOM     12  C   UNL     1      -1.460   4.144  13.279  0.00  0.00    +0.005 A 
ATOM     13  C   UNL     1       0.154   5.605  14.322  0.00  0.00    +0.005 A 
ATOM     14  C   UNL     1      -0.457   3.631  12.454  0.00  0.00    +0.000 A 
ATOM     15  C   UNL     1       1.153   5.089  13.496  0.00  0.00    +0.000 A 
ATOM     16  C   UNL     1       0.846   4.104  12.561  0.00  0.00    +0.000 A 
ENDBRANCH  10  11
ENDBRANCH   1  10
TORSDOF 2
ENDMDL
MODEL 3
REMARK VINA RESULT:    -4.723     27.497     28.407
REMARK INTER + INTRA:          -5.404
REMARK INTER:                  -5.279
REMARK INTRA:                  -0.125
REMARK UNBOUND:                -0.129
REMARK  Name = 1550473
REMARK  2 active torsions:
REMARK  status: ('A' for Active; 'I' for Inactive)
REMARK    1  A    between atoms: N_1  and  C_4
REMARK    2  A    between atoms: C_4  and  C_5
REMARK                            x       y       z     vdW  Elec       q    Type
REMARK                         _______ _______ _______ _____ _____    ______ ____
ROOT
ATOM      1  N   UNL     1      -0.562  -4.226 -15.128  0.00  0.00    -0.354 N 
ATOM      2  N   UNL     1       1.375  -5.488 -15.269  0.00  0.00    -0.372 N 
ATOM      3  N   UNL     1      -0.124  -5.558 -17.005  0.00  0.00    -0.372 N 
ATOM      4  C   UNL     1       0.216  -5.083 -15.802  0.00  0.00    +0.166 C 
ATOM      5  H   UNL     1      -0.262  -3.926 -14.207  0.00  0.00    +0.163 HD
ATOM      6  H   UNL     1       1.984  -6.132 -15.755  0.00  0.00    +0.159 HD
ATOM      7  H   UNL     1       1.693  -5.151 -14.368  0.00  0.00    +0.159 HD
ATOM      8  H   UNL     1      -0.988  -5.296 -17.460  0.00  0.00    +0.159 HD
ATOM      9  H   UNL     1       0.467  -6.212 -17.503  0.00  0.00    +0.159 HD
ENDROOT
BRANCH   1  10
ATOM     10  C   UNL     1      -1.817  -3.681 -15.643  0.00  0.00    +0.151 C 
BRANCH  10  11
ATOM     11  C   UNL     1      -2.946  -4.127 -14.756  0.00  0.00    -0.028 A 
ATOM     12  C   UNL     1      -3.016  -5.453 -14.304  0.00  0.00    +0.005 A 
ATOM     13  C   UNL     1      -3.948  -3.227 -14.359  0.00  0.00    +0.005 A 
ATOM     14  C   UNL     1      -4.048  -5.861 -13.455  0.00  0.00    +0.000 A 
ATOM     15  C   UNL     1      -4.977  -3.638 -13.513  0.00  0.00    +0.000 A 
ATOM     16  C   UNL     1      -5.026  -4.954 -13.059  0.00  0.00    +0.000 A 
ENDBRANCH  10  11
ENDBRANCH   1  10
TORSDOF 2
ENDMDL
MODEL 4
REMARK VINA RESULT:    -4.506     18.092     18.607
REMARK INTER + INTRA:          -5.161
REMARK INTER:                  -5.042
REMARK INTRA:                  -0.119
REMARK UNBOUND:                -0.129
REMARK  Name = 1550473
REMARK  2 active torsions:
REMARK  status: ('A' for Active; 'I' for Inactive)
REMARK    1  A    between atoms: N_1  and  C_4
REMARK    2  A    between atoms: C_4  and  C_5
REMARK                            x       y       z     vdW  Elec       q    Type
REMARK                         _______ _______ _______ _____ _____    ______ ____
ROOT
ATOM      1  N   UNL     1      -6.603  10.307  -4.476  0.00  0.00    -0.354 N 
ATOM      2  N   UNL     1      -5.394  11.045  -6.308  0.00  0.00    -0.372 N 
ATOM      3  N   UNL     1      -6.578   9.087  -6.476  0.00  0.00    -0.372 N 
ATOM      4  C   UNL     1      -6.201  10.139  -5.742  0.00  0.00    +0.166 C 
ATOM      5  H   UNL     1      -6.257  11.110  -3.963  0.00  0.00    +0.163 HD
ATOM      6  H   UNL     1      -5.076  10.946  -7.263  0.00  0.00    +0.159 HD
ATOM      7  H   UNL     1      -5.087  11.870  -5.808  0.00  0.00    +0.159 HD
ATOM      8  H   UNL     1      -7.182   8.364  -6.106  0.00  0.00    +0.159 HD
ATOM      9  H   UNL     1      -6.262   8.965  -7.430  0.00  0.00    +0.159 HD
ENDROOT
BRANCH   1  10
ATOM     10  C   UNL     1      -7.525   9.407  -3.784  0.00  0.00    +0.151 C 
BRANCH  10  11
ATOM     11  C   UNL     1      -7.642   9.833  -2.347  0.00  0.00    -0.028 A 
ATOM     12  C   UNL     1      -8.784   9.512  -1.600  0.00  0.00    +0.005 A 
ATOM     13  C   UNL     1      -6.611  10.554  -1.724  0.00  0.00    +0.005 A 
ATOM     14  C   UNL     1      -8.881   9.881  -0.256  0.00  0.00    +0.000 A 
ATOM     15  C   UNL     1      -6.711  10.921  -0.383  0.00  0.00    +0.000 A 
ATOM     16  C   UNL     1      -7.845  10.583   0.352  0.00  0.00    +0.000 A 
ENDBRANCH  10  11
ENDBRANCH   1  10
TORSDOF 2
ENDMDL
MODEL 5
REMARK VINA RESULT:    -4.502     20.281     21.600
REMARK INTER + INTRA:          -5.157
REMARK INTER:                  -5.027
REMARK INTRA:                  -0.130
REMARK UNBOUND:                -0.129
REMARK  Name = 1550473
REMARK  2 active torsions:
REMARK  status: ('A' for Active; 'I' for Inactive)
REMARK    1  A    between atoms: N_1  and  C_4
REMARK    2  A    between atoms: C_4  and  C_5
REMARK                            x       y       z     vdW  Elec       q    Type
REMARK                         _______ _______ _______ _____ _____    ______ ____
ROOT
ATOM      1  N   UNL     1       7.221  -6.582  -6.024  0.00  0.00    -0.354 N 
ATOM      2  N   UNL     1       8.611  -6.557  -7.876  0.00  0.00    -0.372 N 
ATOM      3  N   UNL     1       9.290  -5.484  -5.966  0.00  0.00    -0.372 N 
ATOM      4  C   UNL     1       8.366  -6.206  -6.608  0.00  0.00    +0.166 C 
ATOM      5  H   UNL     1       6.548  -7.103  -6.575  0.00  0.00    +0.163 HD
ATOM      6  H   UNL     1       9.468  -6.291  -8.342  0.00  0.00    +0.159 HD
ATOM      7  H   UNL     1       7.957  -7.117  -8.410  0.00  0.00    +0.159 HD
ATOM      8  H   UNL     1       9.164  -5.182  -5.009  0.00  0.00    +0.159 HD
ATOM      9  H   UNL     1      10.149  -5.197  -6.419  0.00  0.00    +0.159 HD
ENDROOT
BRANCH   1  10
ATOM     10  C   UNL     1       6.882  -6.298  -4.631  0.00  0.00    +0.151 C 
BRANCH  10  11
ATOM     11  C   UNL     1       6.150  -7.478  -4.053  0.00  0.00    -0.028 A 
ATOM     12  C   UNL     1       5.034  -7.288  -3.225  0.00  0.00    +0.005 A 
ATOM     13  C   UNL     1       6.565  -8.789  -4.333  0.00  0.00    +0.005 A 
ATOM     14  C   UNL     1       4.336  -8.384  -2.712  0.00  0.00    +0.000 A 
ATOM     15  C   UNL     1       5.866  -9.880  -3.818  0.00  0.00    +0.000 A 
ATOM     16  C   UNL     1       4.750  -9.678  -3.010  0.00  0.00    +0.000 A 
ENDBRANCH  10  11
ENDBRANCH   1  10
TORSDOF 2
ENDMDL
MODEL 6
REMARK VINA RESULT:    -4.465     28.029     28.790
REMARK INTER + INTRA:          -5.115
REMARK INTER:                  -4.953
REMARK INTRA:                  -0.163
REMARK UNBOUND:                -0.129
REMARK  Name = 1550473
REMARK  2 active torsions:
REMARK  status: ('A' for Active; 'I' for Inactive)
REMARK    1  A    between atoms: N_1  and  C_4
REMARK    2  A    between atoms: C_4  and  C_5
REMARK                            x       y       z     vdW  Elec       q    Type
REMARK                         _______ _______ _______ _____ _____    ______ ____
ROOT
ATOM      1  N   UNL     1      -1.721  -4.413 -16.205  0.00  0.00    -0.354 N 
ATOM      2  N   UNL     1      -0.011  -5.687 -17.108  0.00  0.00    -0.372 N 
ATOM      3  N   UNL     1       0.246  -4.821 -14.999  0.00  0.00    -0.372 N 
ATOM      4  C   UNL     1      -0.505  -4.965 -16.096  0.00  0.00    +0.166 C 
ATOM      5  H   UNL     1      -2.228  -4.534 -17.075  0.00  0.00    +0.163 HD
ATOM      6  H   UNL     1       0.902  -6.118 -17.053  0.00  0.00    +0.159 HD
ATOM      7  H   UNL     1      -0.539  -5.844 -17.958  0.00  0.00    +0.159 HD
ATOM      8  H   UNL     1      -0.067  -4.283 -14.202  0.00  0.00    +0.159 HD
ATOM      9  H   UNL     1       1.167  -5.235 -14.929  0.00  0.00    +0.159 HD
ENDROOT
BRANCH   1  10
ATOM     10  C   UNL     1      -2.374  -3.654 -15.140  0.00  0.00    +0.151 C 
BRANCH  10  11
ATOM     11  C   UNL     1      -3.600  -4.397 -14.686  0.00  0.00    -0.028 A 
ATOM     12  C   UNL     1      -4.877  -3.964 -15.070  0.00  0.00    +0.005 A 
ATOM     13  C   UNL     1      -3.490  -5.538 -13.877  0.00  0.00    +0.005 A 
ATOM     14  C   UNL     1      -6.015  -4.672 -14.674  0.00  0.00    +0.000 A 
ATOM     15  C   UNL     1      -4.628  -6.241 -13.482  0.00  0.00    +0.000 A 
ATOM     16  C   UNL     1      -5.890  -5.809 -13.883  0.00  0.00    +0.000 A 
ENDBRANCH  10  11
ENDBRANCH   1  10
TORSDOF 2
ENDMDL
MODEL 7
REMARK VINA RESULT:    -4.400      8.682     10.145
REMARK INTER + INTRA:          -5.043
REMARK INTER:                  -4.937
REMARK INTRA:                  -0.106
REMARK UNBOUND:                -0.129
REMARK  Name = 1550473
REMARK  2 active torsions:
REMARK  status: ('A' for Active; 'I' for Inactive)
REMARK    1  A    between atoms: N_1  and  C_4
REMARK    2  A    between atoms: C_4  and  C_5
REMARK                            x       y       z     vdW  Elec       q    Type
REMARK                         _______ _______ _______ _____ _____    ______ ____
ROOT
ATOM      1  N   UNL     1      -5.487   9.779  16.059  0.00  0.00    -0.354 N 
ATOM      2  N   UNL     1      -5.880  11.374  17.691  0.00  0.00    -0.372 N 
ATOM      3  N   UNL     1      -6.260   9.165  18.184  0.00  0.00    -0.372 N 
ATOM      4  C   UNL     1      -5.874  10.093  17.302  0.00  0.00    +0.166 C 
ATOM      5  H   UNL     1      -5.235  10.532  15.428  0.00  0.00    +0.163 HD
ATOM      6  H   UNL     1      -6.164  11.641  18.624  0.00  0.00    +0.159 HD
ATOM      7  H   UNL     1      -5.584  12.120  17.074  0.00  0.00    +0.159 HD
ATOM      8  H   UNL     1      -6.284   8.182  17.950  0.00  0.00    +0.159 HD
ATOM      9  H   UNL     1      -6.559   9.414  19.119  0.00  0.00    +0.159 HD
ENDROOT
BRANCH   1  10
ATOM     10  C   UNL     1      -5.393   8.411  15.553  0.00  0.00    +0.151 C 
BRANCH  10  11
ATOM     11  C   UNL     1      -6.414   8.217  14.466  0.00  0.00    -0.028 A 
ATOM     12  C   UNL     1      -6.353   7.099  13.622  0.00  0.00    +0.005 A 
ATOM     13  C   UNL     1      -7.450   9.146  14.280  0.00  0.00    +0.005 A 
ATOM     14  C   UNL     1      -7.319   6.903  12.633  0.00  0.00    +0.000 A 
ATOM     15  C   UNL     1      -8.412   8.947  13.290  0.00  0.00    +0.000 A 
ATOM     16  C   UNL     1      -8.348   7.824  12.468  0.00  0.00    +0.000 A 
ENDBRANCH  10  11
ENDBRANCH   1  10
TORSDOF 2
ENDMDL
MODEL 8
REMARK VINA RESULT:    -4.392     28.954     30.415
REMARK INTER + INTRA:          -5.034
REMARK INTER:                  -4.887
REMARK INTRA:                  -0.147
REMARK UNBOUND:                -0.129
REMARK  Name = 1550473
REMARK  2 active torsions:
REMARK  status: ('A' for Active; 'I' for Inactive)
REMARK    1  A    between atoms: N_1  and  C_4
REMARK    2  A    between atoms: C_4  and  C_5
REMARK                            x       y       z     vdW  Elec       q    Type
REMARK                         _______ _______ _______ _____ _____    ______ ____
ROOT
ATOM      1  N   UNL     1      -0.148  -3.713 -16.537  0.00  0.00    -0.354 N 
ATOM      2  N   UNL     1      -1.674  -3.347 -14.833  0.00  0.00    -0.372 N 
ATOM      3  N   UNL     1      -2.149  -4.928 -16.426  0.00  0.00    -0.372 N 
ATOM      4  C   UNL     1      -1.315  -4.000 -15.945  0.00  0.00    +0.166 C 
ATOM      5  H   UNL     1       0.425  -2.978 -16.139  0.00  0.00    +0.163 HD
ATOM      6  H   UNL     1      -2.546  -3.545 -14.362  0.00  0.00    +0.159 HD
ATOM      7  H   UNL     1      -1.078  -2.645 -14.412  0.00  0.00    +0.159 HD
ATOM      8  H   UNL     1      -1.940  -5.453 -17.265  0.00  0.00    +0.159 HD
ATOM      9  H   UNL     1      -3.032  -5.132 -15.976  0.00  0.00    +0.159 HD
ENDROOT
BRANCH   1  10
ATOM     10  C   UNL     1       0.360  -4.404 -17.721  0.00  0.00    +0.151 C 
BRANCH  10  11
ATOM     11  C   UNL     1       1.556  -5.229 -17.332  0.00  0.00    -0.028 A 
ATOM     12  C   UNL     1       2.834  -4.898 -17.805  0.00  0.00    +0.005 A 
ATOM     13  C   UNL     1       1.418  -6.341 -16.486  0.00  0.00    +0.005 A 
ATOM     14  C   UNL     1       3.949  -5.646 -17.421  0.00  0.00    +0.000 A 
ATOM     15  C   UNL     1       2.534  -7.086 -16.105  0.00  0.00    +0.000 A 
ATOM     16  C   UNL     1       3.799  -6.737 -16.571  0.00  0.00    +0.000 A 
ENDBRANCH  10  11
ENDBRANCH   1  10
TORSDOF 2
ENDMDL
MODEL 9
REMARK VINA RESULT:    -4.372     21.967     22.983
REMARK INTER + INTRA:          -5.012
REMARK INTER:                  -4.890
REMARK INTRA:                  -0.122
REMARK UNBOUND:                -0.129
REMARK  Name = 1550473
REMARK  2 active torsions:
REMARK  status: ('A' for Active; 'I' for Inactive)
REMARK    1  A    between atoms: N_1  and  C_4
REMARK    2  A    between atoms: C_4  and  C_5
REMARK                            x       y       z     vdW  Elec       q    Type
REMARK                         _______ _______ _______ _____ _____    ______ ____
ROOT
ATOM      1  N   UNL     1       7.415  -7.332  -6.328  0.00  0.00    -0.354 N 
ATOM      2  N   UNL     1       8.620  -6.390  -8.067  0.00  0.00    -0.372 N 
ATOM      3  N   UNL     1       9.119  -5.778  -5.913  0.00  0.00    -0.372 N 
ATOM      4  C   UNL     1       8.378  -6.505  -6.756  0.00  0.00    +0.166 C 
ATOM      5  H   UNL     1       6.868  -7.832  -7.019  0.00  0.00    +0.163 HD
ATOM      6  H   UNL     1       9.342  -5.776  -8.419  0.00  0.00    +0.159 HD
ATOM      7  H   UNL     1       8.102  -6.925  -8.753  0.00  0.00    +0.159 HD
ATOM      8  H   UNL     1       8.983  -5.815  -4.911  0.00  0.00    +0.159 HD
ATOM      9  H   UNL     1       9.839  -5.150  -6.247  0.00  0.00    +0.159 HD
ENDROOT
BRANCH   1  10
ATOM     10  C   UNL     1       7.108  -7.570  -4.919  0.00  0.00    +0.151 C 
BRANCH  10  11
ATOM     11  C   UNL     1       6.825  -9.034  -4.718  0.00  0.00    -0.028 A 
ATOM     12  C   UNL     1       7.223  -9.680  -3.539  0.00  0.00    +0.005 A 
ATOM     13  C   UNL     1       6.155  -9.778  -5.701  0.00  0.00    +0.005 A 
ATOM     14  C   UNL     1       6.934 -11.033  -3.339  0.00  0.00    +0.000 A 
ATOM     15  C   UNL     1       5.869 -11.128  -5.499  0.00  0.00    +0.000 A 
ATOM     16  C   UNL     1       6.257 -11.754  -4.317  0.00  0.00    +0.000 A 
ENDBRANCH  10  11
ENDBRANCH   1  10
TORSDOF 2
ENDMDL
