MODEL 1
REMARK VINA RESULT:    -4.975      0.000      0.000
REMARK INTER + INTRA:          -5.668
REMARK INTER:                  -5.556
REMARK INTRA:                  -0.112
REMARK UNBOUND:                -0.112
REMARK  Name = 1550473
REMARK  2 active torsions:
REMARK  status: ('A' for Active; 'I' for Inactive)
REMARK    1  A    between atoms: N_1  and  C_4
REMARK    2  A    between atoms: C_4  and  C_5
REMARK                            x       y       z     vdW  Elec       q    Type
REMARK                         _______ _______ _______ _____ _____    ______ ____
ROOT
ATOM      1  N   UNL     1       0.880  -6.915   1.258  0.00  0.00    -0.354 N 
ATOM      2  N   UNL     1       2.646  -5.598   1.972  0.00  0.00    -0.372 N 
ATOM      3  N   UNL     1       2.748  -7.865   2.307  0.00  0.00    -0.372 N 
ATOM      4  C   UNL     1       2.081  -6.804   1.842  0.00  0.00    +0.166 C 
ATOM      5  H   UNL     1       0.413  -6.069   0.954  0.00  0.00    +0.163 HD
ATOM      6  H   UNL     1       3.553  -5.483   2.405  0.00  0.00    +0.159 HD
ATOM      7  H   UNL     1       2.197  -4.759   1.625  0.00  0.00    +0.159 HD
ATOM      8  H   UNL     1       2.373  -8.802   2.246  0.00  0.00    +0.159 HD
ATOM      9  H   UNL     1       3.651  -7.769   2.754  0.00  0.00    +0.159 HD
ENDROOT
BRANCH   1  10
ATOM     10  C   UNL     1       0.202  -8.188   1.020  0.00  0.00    +0.151 C 
BRANCH  10  11
ATOM     11  C   UNL     1      -1.254  -7.926   0.751  0.00  0.00    -0.028 A 
ATOM     12  C   UNL     1      -1.649  -6.811  -0.004  0.00  0.00    +0.005 A 
ATOM     13  C   UNL     1      -2.244  -8.791   1.243  0.00  0.00    +0.005 A 
ATOM     14  C   UNL     1      -3.000  -6.584  -0.280  0.00  0.00    +0.000 A 
ATOM     15  C   UNL     1      -3.591  -8.559   0.966  0.00  0.00    +0.000 A 
ATOM     16  C   UNL     1      -3.969  -7.457   0.203  0.00  0.00    +0.000 A 
ENDBRANCH  10  11
ENDBRANCH   1  10
TORSDOF 2
ENDMDL
MODEL 2
REMARK VINA RESULT:    -4.672      1.824      2.409
REMARK INTER + INTRA:          -5.330
REMARK INTER:                  -5.218
REMARK INTRA:                  -0.112
REMARK UNBOUND:                -0.112
REMARK  Name = 1550473
REMARK  2 active torsions:
REMARK  status: ('A' for Active; 'I' for Inactive)
REMARK    1  A    between atoms: N_1  and  C_4
REMARK    2  A    between atoms: C_4  and  C_5
REMARK                            x       y       z     vdW  Elec       q    Type
REMARK                         _______ _______ _______ _____ _____    ______ ____
ROOT
ATOM      1  N   UNL     1      -0.026  -9.475   0.914  0.00  0.00    -0.354 N 
ATOM      2  N   UNL     1       1.152 -11.467   1.008  0.00  0.00    -0.372 N 
ATOM      3  N   UNL     1       2.282  -9.494   1.316  0.00  0.00    -0.372 N 
ATOM      4  C   UNL     1       1.130 -10.131   1.079  0.00  0.00    +0.166 C 
ATOM      5  H   UNL     1      -0.860 -10.014   0.707  0.00  0.00    +0.163 HD
ATOM      6  H   UNL     1       2.009 -11.989   1.132  0.00  0.00    +0.159 HD
ATOM      7  H   UNL     1       0.309 -12.006   0.847  0.00  0.00    +0.159 HD
ATOM      8  H   UNL     1       2.335  -8.486   1.375  0.00  0.00    +0.159 HD
ATOM      9  H   UNL     1       3.153  -9.999   1.431  0.00  0.00    +0.159 HD
ENDROOT
BRANCH   1  10
ATOM     10  C   UNL     1      -0.167  -8.024   1.025  0.00  0.00    +0.151 C 
BRANCH  10  11
ATOM     11  C   UNL     1      -1.555  -7.632   0.599  0.00  0.00    -0.028 A 
ATOM     12  C   UNL     1      -1.771  -6.444  -0.115  0.00  0.00    +0.005 A 
ATOM     13  C   UNL     1      -2.657  -8.446   0.902  0.00  0.00    +0.005 A 
ATOM     14  C   UNL     1      -3.056  -6.094  -0.536  0.00  0.00    +0.000 A 
ATOM     15  C   UNL     1      -3.939  -8.092   0.480  0.00  0.00    +0.000 A 
ATOM     16  C   UNL     1      -4.137  -6.917  -0.241  0.00  0.00    +0.000 A 
ENDBRANCH  10  11
ENDBRANCH   1  10
TORSDOF 2
ENDMDL
MODEL 3
REMARK VINA RESULT:    -4.572      8.654      9.793
REMARK INTER + INTRA:          -5.219
REMARK INTER:                  -5.077
REMARK INTRA:                  -0.142
REMARK UNBOUND:                -0.112
REMARK  Name = 1550473
REMARK  2 active torsions:
REMARK  status: ('A' for Active; 'I' for Inactive)
REMARK    1  A    between atoms: N_1  and  C_4
REMARK    2  A    between atoms: C_4  and  C_5
REMARK                            x       y       z     vdW  Elec       q    Type
REMARK                         _______ _______ _______ _____ _____    ______ ____
ROOT
ATOM      1  N   UNL     1      -1.636   2.240  -3.689  0.00  0.00    -0.354 N 
ATOM      2  N   UNL     1      -2.521   2.843  -5.742  0.00  0.00    -0.372 N 
ATOM      3  N   UNL     1      -0.372   2.042  -5.652  0.00  0.00    -0.372 N 
ATOM      4  C   UNL     1      -1.501   2.370  -5.015  0.00  0.00    +0.166 C 
ATOM      5  H   UNL     1      -2.507   2.535  -3.262  0.00  0.00    +0.163 HD
ATOM      6  H   UNL     1      -2.450   2.949  -6.746  0.00  0.00    +0.159 HD
ATOM      7  H   UNL     1      -3.406   3.093  -5.319  0.00  0.00    +0.159 HD
ATOM      8  H   UNL     1       0.436   1.686  -5.160  0.00  0.00    +0.159 HD
ATOM      9  H   UNL     1      -0.278   2.153  -6.654  0.00  0.00    +0.159 HD
ENDROOT
BRANCH   1  10
ATOM     10  C   UNL     1      -0.606   1.685  -2.813  0.00  0.00    +0.151 C 
BRANCH  10  11
ATOM     11  C   UNL     1      -1.190   0.542  -2.029  0.00  0.00    -0.028 A 
ATOM     12  C   UNL     1      -0.413  -0.144  -1.085  0.00  0.00    +0.005 A 
ATOM     13  C   UNL     1      -2.522   0.145  -2.223  0.00  0.00    +0.005 A 
ATOM     14  C   UNL     1      -0.964  -1.187  -0.335  0.00  0.00    +0.000 A 
ATOM     15  C   UNL     1      -3.068  -0.897  -1.473  0.00  0.00    +0.000 A 
ATOM     16  C   UNL     1      -2.290  -1.561  -0.528  0.00  0.00    +0.000 A 
ENDBRANCH  10  11
ENDBRANCH   1  10
TORSDOF 2
ENDMDL
MODEL 4
REMARK VINA RESULT:    -4.412      4.206      5.619
REMARK INTER + INTRA:          -5.040
REMARK INTER:                  -4.864
REMARK INTRA:                  -0.175
REMARK UNBOUND:                -0.112
REMARK  Name = 1550473
REMARK  2 active torsions:
REMARK  status: ('A' for Active; 'I' for Inactive)
REMARK    1  A    between atoms: N_1  and  C_4
REMARK    2  A    between atoms: C_4  and  C_5
REMARK                            x       y       z     vdW  Elec       q    Type
REMARK                         _______ _______ _______ _____ _____    ______ ____
ROOT
ATOM      1  N   UNL     1      -4.522  -8.617  -1.592  0.00  0.00    -0.354 N 
ATOM      2  N   UNL     1      -4.533 -10.159  -3.320  0.00  0.00    -0.372 N 
ATOM      3  N   UNL     1      -4.046 -10.877  -1.196  0.00  0.00    -0.372 N 
ATOM      4  C   UNL     1      -4.366  -9.876  -2.022  0.00  0.00    +0.166 C 
ATOM      5  H   UNL     1      -4.735  -7.898  -2.273  0.00  0.00    +0.163 HD
ATOM      6  H   UNL     1      -4.425 -11.100  -3.673  0.00  0.00    +0.159 HD
ATOM      7  H   UNL     1      -4.791  -9.446  -3.992  0.00  0.00    +0.159 HD
ATOM      8  H   UNL     1      -3.901 -10.729  -0.206  0.00  0.00    +0.159 HD
ATOM      9  H   UNL     1      -3.923 -11.824  -1.532  0.00  0.00    +0.159 HD
ENDROOT
BRANCH   1  10
ATOM     10  C   UNL     1      -4.416  -8.213  -0.191  0.00  0.00    +0.151 C 
BRANCH  10  11
ATOM     11  C   UNL     1      -3.029  -7.692   0.066  0.00  0.00    -0.028 A 
ATOM     12  C   UNL     1      -2.142  -8.404   0.887  0.00  0.00    +0.005 A 
ATOM     13  C   UNL     1      -2.594  -6.490  -0.512  0.00  0.00    +0.005 A 
ATOM     14  C   UNL     1      -0.844  -7.936   1.102  0.00  0.00    +0.000 A 
ATOM     15  C   UNL     1      -1.297  -6.026  -0.295  0.00  0.00    +0.000 A 
ATOM     16  C   UNL     1      -0.421  -6.750   0.511  0.00  0.00    +0.000 A 
ENDBRANCH  10  11
ENDBRANCH   1  10
TORSDOF 2
ENDMDL
MODEL 5
REMARK VINA RESULT:    -4.347      2.097      2.861
REMARK INTER + INTRA:          -4.967
REMARK INTER:                  -4.826
REMARK INTRA:                  -0.141
REMARK UNBOUND:                -0.112
REMARK  Name = 1550473
REMARK  2 active torsions:
REMARK  status: ('A' for Active; 'I' for Inactive)
REMARK    1  A    between atoms: N_1  and  C_4
REMARK    2  A    between atoms: C_4  and  C_5
REMARK                            x       y       z     vdW  Elec       q    Type
REMARK                         _______ _______ _______ _____ _____    ______ ____
ROOT
ATOM      1  N   UNL     1       1.587 -10.249   1.256  0.00  0.00    -0.354 N 
ATOM      2  N   UNL     1       3.300  -9.878   2.769  0.00  0.00    -0.372 N 
ATOM      3  N   UNL     1       3.202  -8.595   0.869  0.00  0.00    -0.372 N 
ATOM      4  C   UNL     1       2.686  -9.575   1.619  0.00  0.00    +0.166 C 
ATOM      5  H   UNL     1       1.263 -11.000   1.854  0.00  0.00    +0.163 HD
ATOM      6  H   UNL     1       4.129  -9.384   3.072  0.00  0.00    +0.159 HD
ATOM      7  H   UNL     1       2.948 -10.599   3.388  0.00  0.00    +0.159 HD
ATOM      8  H   UNL     1       2.789  -8.322  -0.013  0.00  0.00    +0.159 HD
ATOM      9  H   UNL     1       4.038  -8.098   1.149  0.00  0.00    +0.159 HD
ENDROOT
BRANCH   1  10
ATOM     10  C   UNL     1       0.813  -9.961   0.049  0.00  0.00    +0.151 C 
BRANCH  10  11
ATOM     11  C   UNL     1      -0.624  -9.732   0.431  0.00  0.00    -0.028 A 
ATOM     12  C   UNL     1      -1.588 -10.724   0.201  0.00  0.00    +0.005 A 
ATOM     13  C   UNL     1      -1.026  -8.527   1.027  0.00  0.00    +0.005 A 
ATOM     14  C   UNL     1      -2.917 -10.523   0.583  0.00  0.00    +0.000 A 
ATOM     15  C   UNL     1      -2.354  -8.330   1.406  0.00  0.00    +0.000 A 
ATOM     16  C   UNL     1      -3.299  -9.329   1.186  0.00  0.00    +0.000 A 
ENDBRANCH  10  11
ENDBRANCH   1  10
TORSDOF 2
ENDMDL
MODEL 6
REMARK VINA RESULT:    -4.334      3.219      4.333
REMARK INTER + INTRA:          -4.953
REMARK INTER:                  -4.814
REMARK INTRA:                  -0.139
REMARK UNBOUND:                -0.112
REMARK  Name = 1550473
REMARK  2 active torsions:
REMARK  status: ('A' for Active; 'I' for Inactive)
REMARK    1  A    between atoms: N_1  and  C_4
REMARK    2  A    between atoms: C_4  and  C_5
REMARK                            x       y       z     vdW  Elec       q    Type
REMARK                         _______ _______ _______ _____ _____    ______ ____
ROOT
ATOM      1  N   UNL     1      -2.010  -4.974  -1.539  0.00  0.00    -0.354 N 
ATOM      2  N   UNL     1      -0.467  -3.275  -1.850  0.00  0.00    -0.372 N 
ATOM      3  N   UNL     1      -2.531  -2.755  -0.993  0.00  0.00    -0.372 N 
ATOM      4  C   UNL     1      -1.682  -3.678  -1.458  0.00  0.00    +0.166 C 
ATOM      5  H   UNL     1      -1.332  -5.619  -1.929  0.00  0.00    +0.163 HD
ATOM      6  H   UNL     1      -0.190  -2.304  -1.798  0.00  0.00    +0.159 HD
ATOM      7  H   UNL     1       0.224  -3.928  -2.196  0.00  0.00    +0.159 HD
ATOM      8  H   UNL     1      -3.465  -2.993  -0.686  0.00  0.00    +0.159 HD
ATOM      9  H   UNL     1      -2.276  -1.777  -0.943  0.00  0.00    +0.159 HD
ENDROOT
BRANCH   1  10
ATOM     10  C   UNL     1      -3.288  -5.524  -1.088  0.00  0.00    +0.151 C 
BRANCH  10  11
ATOM     11  C   UNL     1      -3.026  -6.712  -0.204  0.00  0.00    -0.028 A 
ATOM     12  C   UNL     1      -4.057  -7.612   0.103  0.00  0.00    +0.005 A 
ATOM     13  C   UNL     1      -1.748  -6.947   0.326  0.00  0.00    +0.005 A 
ATOM     14  C   UNL     1      -3.808  -8.732   0.900  0.00  0.00    +0.000 A 
ATOM     15  C   UNL     1      -1.503  -8.066   1.121  0.00  0.00    +0.000 A 
ATOM     16  C   UNL     1      -2.532  -8.959   1.406  0.00  0.00    +0.000 A 
ENDBRANCH  10  11
ENDBRANCH   1  10
TORSDOF 2
ENDMDL
MODEL 7
REMARK VINA RESULT:    -4.318      1.892      2.729
REMARK INTER + INTRA:          -4.935
REMARK INTER:                  -4.803
REMARK INTRA:                  -0.132
REMARK UNBOUND:                -0.112
REMARK  Name = 1550473
REMARK  2 active torsions:
REMARK  status: ('A' for Active; 'I' for Inactive)
REMARK    1  A    between atoms: N_1  and  C_4
REMARK    2  A    between atoms: C_4  and  C_5
REMARK                            x       y       z     vdW  Elec       q    Type
REMARK                         _______ _______ _______ _____ _____    ______ ____
ROOT
ATOM      1  N   UNL     1       0.412  -5.279  -0.233  0.00  0.00    -0.354 N 
ATOM      2  N   UNL     1       2.398  -4.511   0.678  0.00  0.00    -0.372 N 
ATOM      3  N   UNL     1       0.928  -2.993  -0.216  0.00  0.00    -0.372 N 
ATOM      4  C   UNL     1       1.232  -4.264   0.069  0.00  0.00    +0.166 C 
ATOM      5  H   UNL     1       0.714  -6.222  -0.017  0.00  0.00    +0.163 HD
ATOM      6  H   UNL     1       3.036  -3.765   0.922  0.00  0.00    +0.159 HD
ATOM      7  H   UNL     1       2.677  -5.451   0.934  0.00  0.00    +0.159 HD
ATOM      8  H   UNL     1       0.066  -2.740  -0.681  0.00  0.00    +0.159 HD
ATOM      9  H   UNL     1       1.559  -2.234   0.009  0.00  0.00    +0.159 HD
ENDROOT
BRANCH   1  10
ATOM     10  C   UNL     1      -0.904  -5.112  -0.847  0.00  0.00    +0.151 C 
BRANCH  10  11
ATOM     11  C   UNL     1      -1.837  -6.158  -0.301  0.00  0.00    -0.028 A 
ATOM     12  C   UNL     1      -3.206  -6.117  -0.602  0.00  0.00    +0.005 A 
ATOM     13  C   UNL     1      -1.357  -7.195   0.513  0.00  0.00    +0.005 A 
ATOM     14  C   UNL     1      -4.068  -7.105  -0.120  0.00  0.00    +0.000 A 
ATOM     15  C   UNL     1      -2.221  -8.179   0.992  0.00  0.00    +0.000 A 
ATOM     16  C   UNL     1      -3.576  -8.135   0.674  0.00  0.00    +0.000 A 
ENDBRANCH  10  11
ENDBRANCH   1  10
TORSDOF 2
ENDMDL
MODEL 8
REMARK VINA RESULT:    -4.304     16.660     17.891
REMARK INTER + INTRA:          -4.919
REMARK INTER:                  -4.780
REMARK INTRA:                  -0.139
REMARK UNBOUND:                -0.112
REMARK  Name = 1550473
REMARK  2 active torsions:
REMARK  status: ('A' for Active; 'I' for Inactive)
REMARK    1  A    between atoms: N_1  and  C_4
REMARK    2  A    between atoms: C_4  and  C_5
REMARK                            x       y       z     vdW  Elec       q    Type
REMARK                         _______ _______ _______ _____ _____    ______ ____
ROOT
ATOM      1  N   UNL     1      -0.811  -4.786  16.374  0.00  0.00    -0.354 N 
ATOM      2  N   UNL     1      -2.057  -6.253  15.086  0.00  0.00    -0.372 N 
ATOM      3  N   UNL     1      -3.153  -4.729  16.405  0.00  0.00    -0.372 N 
ATOM      4  C   UNL     1      -2.001  -5.245  15.965  0.00  0.00    +0.166 C 
ATOM      5  H   UNL     1       0.026  -5.240  16.027  0.00  0.00    +0.163 HD
ATOM      6  H   UNL     1      -2.940  -6.618  14.756  0.00  0.00    +0.159 HD
ATOM      7  H   UNL     1      -1.219  -6.675  14.705  0.00  0.00    +0.159 HD
ATOM      8  H   UNL     1      -3.180  -3.970  17.073  0.00  0.00    +0.159 HD
ATOM      9  H   UNL     1      -4.048  -5.088  16.095  0.00  0.00    +0.159 HD
ENDROOT
BRANCH   1  10
ATOM     10  C   UNL     1      -0.640  -3.657  17.287  0.00  0.00    +0.151 C 
BRANCH  10  11
ATOM     11  C   UNL     1       0.232  -4.083  18.436  0.00  0.00    -0.028 A 
ATOM     12  C   UNL     1       0.782  -3.128  19.304  0.00  0.00    +0.005 A 
ATOM     13  C   UNL     1       0.508  -5.439  18.666  0.00  0.00    +0.005 A 
ATOM     14  C   UNL     1       1.568  -3.525  20.389  0.00  0.00    +0.000 A 
ATOM     15  C   UNL     1       1.293  -5.831  19.750  0.00  0.00    +0.000 A 
ATOM     16  C   UNL     1       1.821  -4.874  20.613  0.00  0.00    +0.000 A 
ENDBRANCH  10  11
ENDBRANCH   1  10
TORSDOF 2
ENDMDL
MODEL 9
REMARK VINA RESULT:    -4.235      1.483      2.215
REMARK INTER + INTRA:          -4.841
REMARK INTER:                  -4.709
REMARK INTRA:                  -0.132
REMARK UNBOUND:                -0.112
REMARK  Name = 1550473
REMARK  2 active torsions:
REMARK  status: ('A' for Active; 'I' for Inactive)
REMARK    1  A    between atoms: N_1  and  C_4
REMARK    2  A    between atoms: C_4  and  C_5
REMARK                            x       y       z     vdW  Elec       q    Type
REMARK                         _______ _______ _______ _____ _____    ______ ____
ROOT
ATOM      1  N   UNL     1       0.758  -7.812   0.477  0.00  0.00    -0.354 N 
ATOM      2  N   UNL     1       3.070  -7.932   0.526  0.00  0.00    -0.372 N 
ATOM      3  N   UNL     1       1.989  -6.716   2.143  0.00  0.00    -0.372 N 
ATOM      4  C   UNL     1       1.923  -7.484   1.050  0.00  0.00    +0.166 C 
ATOM      5  H   UNL     1       0.778  -8.372  -0.367  0.00  0.00    +0.163 HD
ATOM      6  H   UNL     1       3.965  -7.705   0.938  0.00  0.00    +0.159 HD
ATOM      7  H   UNL     1       3.084  -8.530  -0.292  0.00  0.00    +0.159 HD
ATOM      8  H   UNL     1       1.160  -6.341   2.585  0.00  0.00    +0.159 HD
ATOM      9  H   UNL     1       2.875  -6.468   2.564  0.00  0.00    +0.159 HD
ENDROOT
BRANCH   1  10
ATOM     10  C   UNL     1      -0.550  -7.420   1.000  0.00  0.00    +0.151 C 
BRANCH  10  11
ATOM     11  C   UNL     1      -1.516  -8.556   0.808  0.00  0.00    -0.028 A 
ATOM     12  C   UNL     1      -2.772  -8.535   1.432  0.00  0.00    +0.005 A 
ATOM     13  C   UNL     1      -1.185  -9.652  -0.002  0.00  0.00    +0.005 A 
ATOM     14  C   UNL     1      -3.682  -9.576   1.230  0.00  0.00    +0.000 A 
ATOM     15  C   UNL     1      -2.095 -10.690  -0.202  0.00  0.00    +0.000 A 
ATOM     16  C   UNL     1      -3.345 -10.650   0.413  0.00  0.00    +0.000 A 
ENDBRANCH  10  11
ENDBRANCH   1  10
TORSDOF 2
ENDMDL
