MODEL 1
REMARK VINA RESULT:    -5.645      0.000      0.000
REMARK INTER + INTRA:          -6.430
REMARK INTER:                  -6.305
REMARK INTRA:                  -0.125
REMARK UNBOUND:                -0.125
REMARK  Name = 1550473
REMARK  2 active torsions:
REMARK  status: ('A' for Active; 'I' for Inactive)
REMARK    1  A    between atoms: N_1  and  C_4
REMARK    2  A    between atoms: C_4  and  C_5
REMARK                            x       y       z     vdW  Elec       q    Type
REMARK                         _______ _______ _______ _____ _____    ______ ____
ROOT
ATOM      1  N   UNL     1      11.697  -2.016  20.588  0.00  0.00    -0.354 N 
ATOM      2  N   UNL     1      11.989  -1.657  18.319  0.00  0.00    -0.372 N 
ATOM      3  N   UNL     1      12.192   0.119  19.758  0.00  0.00    -0.372 N 
ATOM      4  C   UNL     1      11.958  -1.184  19.571  0.00  0.00    +0.166 C 
ATOM      5  H   UNL     1      11.498  -2.987  20.377  0.00  0.00    +0.163 HD
ATOM      6  H   UNL     1      12.187  -1.054  17.532  0.00  0.00    +0.159 HD
ATOM      7  H   UNL     1      11.835  -2.637  18.116  0.00  0.00    +0.159 HD
ATOM      8  H   UNL     1      12.177   0.539  20.678  0.00  0.00    +0.159 HD
ATOM      9  H   UNL     1      12.380   0.741  18.981  0.00  0.00    +0.159 HD
ENDROOT
BRANCH   1  10
ATOM     10  C   UNL     1      11.692  -1.612  21.994  0.00  0.00    +0.151 C 
BRANCH  10  11
ATOM     11  C   UNL     1      10.804  -2.545  22.770  0.00  0.00    -0.028 A 
ATOM     12  C   UNL     1      10.356  -2.198  24.052  0.00  0.00    +0.005 A 
ATOM     13  C   UNL     1      10.403  -3.775  22.225  0.00  0.00    +0.005 A 
ATOM     14  C   UNL     1       9.506  -3.051  24.762  0.00  0.00    +0.000 A 
ATOM     15  C   UNL     1       9.556  -4.624  22.937  0.00  0.00    +0.000 A 
ATOM     16  C   UNL     1       9.106  -4.261  24.204  0.00  0.00    +0.000 A 
ENDBRANCH  10  11
ENDBRANCH   1  10
TORSDOF 2
ENDMDL
MODEL 2
REMARK VINA RESULT:    -5.585      2.246      3.146
REMARK INTER + INTRA:          -6.363
REMARK INTER:                  -6.259
REMARK INTRA:                  -0.104
REMARK UNBOUND:                -0.125
REMARK  Name = 1550473
REMARK  2 active torsions:
REMARK  status: ('A' for Active; 'I' for Inactive)
REMARK    1  A    between atoms: N_1  and  C_4
REMARK    2  A    between atoms: C_4  and  C_5
REMARK                            x       y       z     vdW  Elec       q    Type
REMARK                         _______ _______ _______ _____ _____    ______ ____
ROOT
ATOM      1  N   UNL     1      11.446  -0.088  22.389  0.00  0.00    -0.354 N 
ATOM      2  N   UNL     1      10.852   2.090  22.901  0.00  0.00    -0.372 N 
ATOM      3  N   UNL     1      11.957   0.843  24.478  0.00  0.00    -0.372 N 
ATOM      4  C   UNL     1      11.423   0.933  23.255  0.00  0.00    +0.166 C 
ATOM      5  H   UNL     1      10.998   0.034  21.488  0.00  0.00    +0.163 HD
ATOM      6  H   UNL     1      10.822   2.880  23.532  0.00  0.00    +0.159 HD
ATOM      7  H   UNL     1      10.445   2.225  21.983  0.00  0.00    +0.159 HD
ATOM      8  H   UNL     1      12.398  -0.005  24.808  0.00  0.00    +0.159 HD
ATOM      9  H   UNL     1      11.927   1.618  25.128  0.00  0.00    +0.159 HD
ENDROOT
BRANCH   1  10
ATOM     10  C   UNL     1      12.091  -1.373  22.656  0.00  0.00    +0.151 C 
BRANCH  10  11
ATOM     11  C   UNL     1      11.037  -2.392  22.988  0.00  0.00    -0.028 A 
ATOM     12  C   UNL     1      10.758  -3.443  22.102  0.00  0.00    +0.005 A 
ATOM     13  C   UNL     1      10.317  -2.316  24.190  0.00  0.00    +0.005 A 
ATOM     14  C   UNL     1       9.800  -4.407  22.424  0.00  0.00    +0.000 A 
ATOM     15  C   UNL     1       9.361  -3.281  24.507  0.00  0.00    +0.000 A 
ATOM     16  C   UNL     1       9.104  -4.327  23.625  0.00  0.00    +0.000 A 
ENDBRANCH  10  11
ENDBRANCH   1  10
TORSDOF 2
ENDMDL
MODEL 3
REMARK VINA RESULT:    -5.349      8.912     10.080
REMARK INTER + INTRA:          -6.099
REMARK INTER:                  -6.000
REMARK INTRA:                  -0.100
REMARK UNBOUND:                -0.125
REMARK  Name = 1550473
REMARK  2 active torsions:
REMARK  status: ('A' for Active; 'I' for Inactive)
REMARK    1  A    between atoms: N_1  and  C_4
REMARK    2  A    between atoms: C_4  and  C_5
REMARK                            x       y       z     vdW  Elec       q    Type
REMARK                         _______ _______ _______ _____ _____    ______ ____
ROOT
ATOM      1  N   UNL     1       7.564  -8.651  13.513  0.00  0.00    -0.354 N 
ATOM      2  N   UNL     1       6.565  -6.683  12.810  0.00  0.00    -0.372 N 
ATOM      3  N   UNL     1       8.783  -7.033  12.334  0.00  0.00    -0.372 N 
ATOM      4  C   UNL     1       7.647  -7.468  12.889  0.00  0.00    +0.166 C 
ATOM      5  H   UNL     1       6.682  -8.910  13.940  0.00  0.00    +0.163 HD
ATOM      6  H   UNL     1       6.596  -5.787  12.342  0.00  0.00    +0.159 HD
ATOM      7  H   UNL     1       5.673  -6.965  13.197  0.00  0.00    +0.159 HD
ATOM      8  H   UNL     1       9.636  -7.575  12.365  0.00  0.00    +0.159 HD
ATOM      9  H   UNL     1       8.837  -6.134  11.873  0.00  0.00    +0.159 HD
ENDROOT
BRANCH   1  10
ATOM     10  C   UNL     1       8.669  -9.604  13.609  0.00  0.00    +0.151 C 
BRANCH  10  11
ATOM     11  C   UNL     1       9.538  -9.232  14.778  0.00  0.00    -0.028 A 
ATOM     12  C   UNL     1      10.889  -8.909  14.587  0.00  0.00    +0.005 A 
ATOM     13  C   UNL     1       9.015  -9.196  16.080  0.00  0.00    +0.005 A 
ATOM     14  C   UNL     1      11.690  -8.535  15.669  0.00  0.00    +0.000 A 
ATOM     15  C   UNL     1       9.817  -8.823  17.158  0.00  0.00    +0.000 A 
ATOM     16  C   UNL     1      11.154  -8.490  16.952  0.00  0.00    +0.000 A 
ENDBRANCH  10  11
ENDBRANCH   1  10
TORSDOF 2
ENDMDL
MODEL 4
REMARK VINA RESULT:    -5.249      2.516      3.092
REMARK INTER + INTRA:          -5.988
REMARK INTER:                  -5.872
REMARK INTRA:                  -0.116
REMARK UNBOUND:                -0.125
REMARK  Name = 1550473
REMARK  2 active torsions:
REMARK  status: ('A' for Active; 'I' for Inactive)
REMARK    1  A    between atoms: N_1  and  C_4
REMARK    2  A    between atoms: C_4  and  C_5
REMARK                            x       y       z     vdW  Elec       q    Type
REMARK                         _______ _______ _______ _____ _____    ______ ____
ROOT
ATOM      1  N   UNL     1      11.256   0.187  22.978  0.00  0.00    -0.354 N 
ATOM      2  N   UNL     1      10.651   2.338  22.369  0.00  0.00    -0.372 N 
ATOM      3  N   UNL     1      11.029   1.878  24.585  0.00  0.00    -0.372 N 
ATOM      4  C   UNL     1      10.983   1.454  23.318  0.00  0.00    +0.166 C 
ATOM      5  H   UNL     1      11.174  -0.078  22.003  0.00  0.00    +0.163 HD
ATOM      6  H   UNL     1      10.442   3.302  22.595  0.00  0.00    +0.159 HD
ATOM      7  H   UNL     1      10.614   2.081  21.390  0.00  0.00    +0.159 HD
ATOM      8  H   UNL     1      11.267   1.259  25.348  0.00  0.00    +0.159 HD
ATOM      9  H   UNL     1      10.812   2.836  24.832  0.00  0.00    +0.159 HD
ENDROOT
BRANCH   1  10
ATOM     10  C   UNL     1      11.680  -0.840  23.927  0.00  0.00    +0.151 C 
BRANCH  10  11
ATOM     11  C   UNL     1      10.887  -2.094  23.681  0.00  0.00    -0.028 A 
ATOM     12  C   UNL     1       9.948  -2.540  24.623  0.00  0.00    +0.005 A 
ATOM     13  C   UNL     1      11.065  -2.837  22.504  0.00  0.00    +0.005 A 
ATOM     14  C   UNL     1       9.190  -3.687  24.381  0.00  0.00    +0.000 A 
ATOM     15  C   UNL     1      10.306  -3.983  22.266  0.00  0.00    +0.000 A 
ATOM     16  C   UNL     1       9.367  -4.407  23.204  0.00  0.00    +0.000 A 
ENDBRANCH  10  11
ENDBRANCH   1  10
TORSDOF 2
ENDMDL
MODEL 5
REMARK VINA RESULT:    -4.939      5.360      6.916
REMARK INTER + INTRA:          -5.642
REMARK INTER:                  -5.527
REMARK INTRA:                  -0.115
REMARK UNBOUND:                -0.125
REMARK  Name = 1550473
REMARK  2 active torsions:
REMARK  status: ('A' for Active; 'I' for Inactive)
REMARK    1  A    between atoms: N_1  and  C_4
REMARK    2  A    between atoms: C_4  and  C_5
REMARK                            x       y       z     vdW  Elec       q    Type
REMARK                         _______ _______ _______ _____ _____    ______ ____
ROOT
ATOM      1  N   UNL     1       5.672  -3.484  25.650  0.00  0.00    -0.354 N 
ATOM      2  N   UNL     1       4.495  -3.849  27.611  0.00  0.00    -0.372 N 
ATOM      3  N   UNL     1       3.774  -2.213  26.172  0.00  0.00    -0.372 N 
ATOM      4  C   UNL     1       4.653  -3.177  26.464  0.00  0.00    +0.166 C 
ATOM      5  H   UNL     1       6.321  -4.205  25.942  0.00  0.00    +0.163 HD
ATOM      6  H   UNL     1       3.734  -3.642  28.243  0.00  0.00    +0.159 HD
ATOM      7  H   UNL     1       5.119  -4.600  27.879  0.00  0.00    +0.159 HD
ATOM      8  H   UNL     1       3.842  -1.665  25.325  0.00  0.00    +0.159 HD
ATOM      9  H   UNL     1       3.013  -1.983  26.798  0.00  0.00    +0.159 HD
ENDROOT
BRANCH   1  10
ATOM     10  C   UNL     1       5.902  -2.850  24.353  0.00  0.00    +0.151 C 
BRANCH  10  11
ATOM     11  C   UNL     1       7.225  -3.313  23.808  0.00  0.00    -0.028 A 
ATOM     12  C   UNL     1       7.397  -3.513  22.430  0.00  0.00    +0.005 A 
ATOM     13  C   UNL     1       8.313  -3.548  24.663  0.00  0.00    +0.005 A 
ATOM     14  C   UNL     1       8.634  -3.914  21.920  0.00  0.00    +0.000 A 
ATOM     15  C   UNL     1       9.546  -3.950  24.150  0.00  0.00    +0.000 A 
ATOM     16  C   UNL     1       9.707  -4.130  22.778  0.00  0.00    +0.000 A 
ENDBRANCH  10  11
ENDBRANCH   1  10
TORSDOF 2
ENDMDL
MODEL 6
REMARK VINA RESULT:    -4.888      9.489     10.848
REMARK INTER + INTRA:          -5.584
REMARK INTER:                  -5.484
REMARK INTRA:                  -0.100
REMARK UNBOUND:                -0.125
REMARK  Name = 1550473
REMARK  2 active torsions:
REMARK  status: ('A' for Active; 'I' for Inactive)
REMARK    1  A    between atoms: N_1  and  C_4
REMARK    2  A    between atoms: C_4  and  C_5
REMARK                            x       y       z     vdW  Elec       q    Type
REMARK                         _______ _______ _______ _____ _____    ______ ____
ROOT
ATOM      1  N   UNL     1       8.130 -11.168  17.632  0.00  0.00    -0.354 N 
ATOM      2  N   UNL     1       7.759 -13.215  18.651  0.00  0.00    -0.372 N 
ATOM      3  N   UNL     1       6.178 -12.393  17.205  0.00  0.00    -0.372 N 
ATOM      4  C   UNL     1       7.356 -12.245  17.822  0.00  0.00    +0.166 C 
ATOM      5  H   UNL     1       8.997 -11.101  18.152  0.00  0.00    +0.163 HD
ATOM      6  H   UNL     1       7.198 -14.041  18.811  0.00  0.00    +0.159 HD
ATOM      7  H   UNL     1       8.648 -13.167  19.134  0.00  0.00    +0.159 HD
ATOM      8  H   UNL     1       5.814 -11.695  16.571  0.00  0.00    +0.159 HD
ATOM      9  H   UNL     1       5.597 -13.207  17.361  0.00  0.00    +0.159 HD
ENDROOT
BRANCH   1  10
ATOM     10  C   UNL     1       7.807 -10.081  16.709  0.00  0.00    +0.151 C 
BRANCH  10  11
ATOM     11  C   UNL     1       9.085  -9.502  16.167  0.00  0.00    -0.028 A 
ATOM     12  C   UNL     1       9.914  -8.718  16.983  0.00  0.00    +0.005 A 
ATOM     13  C   UNL     1       9.475  -9.738  14.840  0.00  0.00    +0.005 A 
ATOM     14  C   UNL     1      11.116  -8.205  16.489  0.00  0.00    +0.000 A 
ATOM     15  C   UNL     1      10.675  -9.223  14.350  0.00  0.00    +0.000 A 
ATOM     16  C   UNL     1      11.496  -8.459  15.175  0.00  0.00    +0.000 A 
ENDBRANCH  10  11
ENDBRANCH   1  10
TORSDOF 2
ENDMDL
MODEL 7
REMARK VINA RESULT:    -4.842      9.362     10.565
REMARK INTER + INTRA:          -5.533
REMARK INTER:                  -5.405
REMARK INTRA:                  -0.128
REMARK UNBOUND:                -0.125
REMARK  Name = 1550473
REMARK  2 active torsions:
REMARK  status: ('A' for Active; 'I' for Inactive)
REMARK    1  A    between atoms: N_1  and  C_4
REMARK    2  A    between atoms: C_4  and  C_5
REMARK                            x       y       z     vdW  Elec       q    Type
REMARK                         _______ _______ _______ _____ _____    ______ ____
ROOT
ATOM      1  N   UNL     1       1.931  -2.937  26.938  0.00  0.00    -0.354 N 
ATOM      2  N   UNL     1       0.609  -1.730  28.408  0.00  0.00    -0.372 N 
ATOM      3  N   UNL     1       2.436  -2.852  29.225  0.00  0.00    -0.372 N 
ATOM      4  C   UNL     1       1.669  -2.515  28.183  0.00  0.00    +0.166 C 
ATOM      5  H   UNL     1       1.294  -2.671  26.196  0.00  0.00    +0.163 HD
ATOM      6  H   UNL     1       0.388  -1.393  29.335  0.00  0.00    +0.159 HD
ATOM      7  H   UNL     1       0.000  -1.428  27.657  0.00  0.00    +0.159 HD
ATOM      8  H   UNL     1       3.247  -3.447  29.123  0.00  0.00    +0.159 HD
ATOM      9  H   UNL     1       2.224  -2.535  30.163  0.00  0.00    +0.159 HD
ENDROOT
BRANCH   1  10
ATOM     10  C   UNL     1       3.090  -3.752  26.578  0.00  0.00    +0.151 C 
BRANCH  10  11
ATOM     11  C   UNL     1       2.778  -4.524  25.326  0.00  0.00    -0.028 A 
ATOM     12  C   UNL     1       3.690  -5.463  24.823  0.00  0.00    +0.005 A 
ATOM     13  C   UNL     1       1.569  -4.326  24.642  0.00  0.00    +0.005 A 
ATOM     14  C   UNL     1       3.387  -6.203  23.677  0.00  0.00    +0.000 A 
ATOM     15  C   UNL     1       1.270  -5.066  23.498  0.00  0.00    +0.000 A 
ATOM     16  C   UNL     1       2.179  -6.006  23.017  0.00  0.00    +0.000 A 
ENDBRANCH  10  11
ENDBRANCH   1  10
TORSDOF 2
ENDMDL
MODEL 8
REMARK VINA RESULT:    -4.780      3.507      4.663
REMARK INTER + INTRA:          -5.464
REMARK INTER:                  -5.348
REMARK INTRA:                  -0.117
REMARK UNBOUND:                -0.125
REMARK  Name = 1550473
REMARK  2 active torsions:
REMARK  status: ('A' for Active; 'I' for Inactive)
REMARK    1  A    between atoms: N_1  and  C_4
REMARK    2  A    between atoms: C_4  and  C_5
REMARK                            x       y       z     vdW  Elec       q    Type
REMARK                         _______ _______ _______ _____ _____    ______ ____
ROOT
ATOM      1  N   UNL     1       8.879  -0.240  24.799  0.00  0.00    -0.354 N 
ATOM      2  N   UNL     1       7.046   0.991  24.099  0.00  0.00    -0.372 N 
ATOM      3  N   UNL     1       6.717  -1.140  24.885  0.00  0.00    -0.372 N 
ATOM      4  C   UNL     1       7.558  -0.140  24.599  0.00  0.00    +0.166 C 
ATOM      5  H   UNL     1       9.466   0.542  24.534  0.00  0.00    +0.163 HD
ATOM      6  H   UNL     1       6.053   1.097  23.940  0.00  0.00    +0.159 HD
ATOM      7  H   UNL     1       7.631   1.788  23.878  0.00  0.00    +0.159 HD
ATOM      8  H   UNL     1       7.040  -2.021  25.259  0.00  0.00    +0.159 HD
ATOM      9  H   UNL     1       5.721  -1.057  24.722  0.00  0.00    +0.159 HD
ENDROOT
BRANCH   1  10
ATOM     10  C   UNL     1       9.530  -1.408  25.390  0.00  0.00    +0.151 C 
BRANCH  10  11
ATOM     11  C   UNL     1       9.824  -2.408  24.305  0.00  0.00    -0.028 A 
ATOM     12  C   UNL     1       9.235  -3.681  24.332  0.00  0.00    +0.005 A 
ATOM     13  C   UNL     1      10.684  -2.086  23.244  0.00  0.00    +0.005 A 
ATOM     14  C   UNL     1       9.483  -4.599  23.309  0.00  0.00    +0.000 A 
ATOM     15  C   UNL     1      10.930  -3.006  22.225  0.00  0.00    +0.000 A 
ATOM     16  C   UNL     1      10.328  -4.261  22.257  0.00  0.00    +0.000 A 
ENDBRANCH  10  11
ENDBRANCH   1  10
TORSDOF 2
ENDMDL
MODEL 9
REMARK VINA RESULT:    -4.749     10.248     11.645
REMARK INTER + INTRA:          -5.429
REMARK INTER:                  -5.284
REMARK INTRA:                  -0.145
REMARK UNBOUND:                -0.125
REMARK  Name = 1550473
REMARK  2 active torsions:
REMARK  status: ('A' for Active; 'I' for Inactive)
REMARK    1  A    between atoms: N_1  and  C_4
REMARK    2  A    between atoms: C_4  and  C_5
REMARK                            x       y       z     vdW  Elec       q    Type
REMARK                         _______ _______ _______ _____ _____    ______ ____
ROOT
ATOM      1  N   UNL     1       9.984 -11.353  13.550  0.00  0.00    -0.354 N 
ATOM      2  N   UNL     1       9.651 -13.430  14.518  0.00  0.00    -0.372 N 
ATOM      3  N   UNL     1       7.840 -12.287  13.694  0.00  0.00    -0.372 N 
ATOM      4  C   UNL     1       9.158 -12.342  13.914  0.00  0.00    +0.166 C 
ATOM      5  H   UNL     1      10.969 -11.442  13.771  0.00  0.00    +0.163 HD
ATOM      6  H   UNL     1       9.052 -14.194  14.802  0.00  0.00    +0.159 HD
ATOM      7  H   UNL     1      10.642 -13.537  14.698  0.00  0.00    +0.159 HD
ATOM      8  H   UNL     1       7.404 -11.491  13.248  0.00  0.00    +0.159 HD
ATOM      9  H   UNL     1       7.223 -13.037  13.981  0.00  0.00    +0.159 HD
ENDROOT
BRANCH   1  10
ATOM     10  C   UNL     1       9.556 -10.150  12.837  0.00  0.00    +0.151 C 
BRANCH  10  11
ATOM     11  C   UNL     1      10.066  -8.939  13.568  0.00  0.00    -0.028 A 
ATOM     12  C   UNL     1       9.710  -7.650  13.145  0.00  0.00    +0.005 A 
ATOM     13  C   UNL     1      10.901  -9.074  14.688  0.00  0.00    +0.005 A 
ATOM     14  C   UNL     1      10.159  -6.525  13.841  0.00  0.00    +0.000 A 
ATOM     15  C   UNL     1      11.348  -7.948  15.380  0.00  0.00    +0.000 A 
ATOM     16  C   UNL     1      10.975  -6.674  14.958  0.00  0.00    +0.000 A 
ENDBRANCH  10  11
ENDBRANCH   1  10
TORSDOF 2
ENDMDL
