MODEL 1
REMARK VINA RESULT:    -4.912      0.000      0.000
REMARK INTER + INTRA:          -5.603
REMARK INTER:                  -5.487
REMARK INTRA:                  -0.117
REMARK UNBOUND:                -0.117
REMARK  Name = 1550473
REMARK  2 active torsions:
REMARK  status: ('A' for Active; 'I' for Inactive)
REMARK    1  A    between atoms: N_1  and  C_4
REMARK    2  A    between atoms: C_4  and  C_5
REMARK                            x       y       z     vdW  Elec       q    Type
REMARK                         _______ _______ _______ _____ _____    ______ ____
ROOT
ATOM      1  N   UNL     1       4.745  -0.071  11.284  0.00  0.00    -0.354 N 
ATOM      2  N   UNL     1       4.737   2.244  11.321  0.00  0.00    -0.372 N 
ATOM      3  N   UNL     1       6.747   1.141  11.396  0.00  0.00    -0.372 N 
ATOM      4  C   UNL     1       5.412   1.089  11.334  0.00  0.00    +0.166 C 
ATOM      5  H   UNL     1       3.732  -0.044  11.269  0.00  0.00    +0.163 HD
ATOM      6  H   UNL     1       5.213   3.136  11.353  0.00  0.00    +0.159 HD
ATOM      7  H   UNL     1       3.726   2.270  11.259  0.00  0.00    +0.159 HD
ATOM      8  H   UNL     1       7.315   0.305  11.415  0.00  0.00    +0.159 HD
ATOM      9  H   UNL     1       7.242   2.024  11.441  0.00  0.00    +0.159 HD
ENDROOT
BRANCH   1  10
ATOM     10  C   UNL     1       5.388  -1.383  11.239  0.00  0.00    +0.151 C 
BRANCH  10  11
ATOM     11  C   UNL     1       4.384  -2.436  11.618  0.00  0.00    -0.028 A 
ATOM     12  C   UNL     1       4.797  -3.625  12.236  0.00  0.00    +0.005 A 
ATOM     13  C   UNL     1       3.016  -2.248  11.366  0.00  0.00    +0.005 A 
ATOM     14  C   UNL     1       3.861  -4.591  12.615  0.00  0.00    +0.000 A 
ATOM     15  C   UNL     1       2.085  -3.215  11.746  0.00  0.00    +0.000 A 
ATOM     16  C   UNL     1       2.507  -4.385  12.372  0.00  0.00    +0.000 A 
ENDBRANCH  10  11
ENDBRANCH   1  10
TORSDOF 2
ENDMDL
MODEL 2
REMARK VINA RESULT:    -4.588     29.917     30.433
REMARK INTER + INTRA:          -5.242
REMARK INTER:                  -5.106
REMARK INTRA:                  -0.136
REMARK UNBOUND:                -0.117
REMARK  Name = 1550473
REMARK  2 active torsions:
REMARK  status: ('A' for Active; 'I' for Inactive)
REMARK    1  A    between atoms: N_1  and  C_4
REMARK    2  A    between atoms: C_4  and  C_5
REMARK                            x       y       z     vdW  Elec       q    Type
REMARK                         _______ _______ _______ _____ _____    ______ ____
ROOT
ATOM      1  N   UNL     1       7.544  12.393  38.637  0.00  0.00    -0.354 N 
ATOM      2  N   UNL     1       6.030  13.801  37.594  0.00  0.00    -0.372 N 
ATOM      3  N   UNL     1       5.530  11.568  37.768  0.00  0.00    -0.372 N 
ATOM      4  C   UNL     1       6.377  12.576  38.006  0.00  0.00    +0.166 C 
ATOM      5  H   UNL     1       8.155  13.193  38.760  0.00  0.00    +0.163 HD
ATOM      6  H   UNL     1       5.154  13.970  37.118  0.00  0.00    +0.159 HD
ATOM      7  H   UNL     1       6.622  14.606  37.759  0.00  0.00    +0.159 HD
ATOM      8  H   UNL     1       5.736  10.619  38.049  0.00  0.00    +0.159 HD
ATOM      9  H   UNL     1       4.654  11.715  37.283  0.00  0.00    +0.159 HD
ENDROOT
BRANCH   1  10
ATOM     10  C   UNL     1       7.992  11.109  39.174  0.00  0.00    +0.151 C 
BRANCH  10  11
ATOM     11  C   UNL     1       9.472  10.972  38.949  0.00  0.00    -0.028 A 
ATOM     12  C   UNL     1      10.167   9.859  39.444  0.00  0.00    +0.005 A 
ATOM     13  C   UNL     1      10.185  11.948  38.235  0.00  0.00    +0.005 A 
ATOM     14  C   UNL     1      11.537   9.716  39.209  0.00  0.00    +0.000 A 
ATOM     15  C   UNL     1      11.552  11.802  38.004  0.00  0.00    +0.000 A 
ATOM     16  C   UNL     1      12.228  10.684  38.489  0.00  0.00    +0.000 A 
ENDBRANCH  10  11
ENDBRANCH   1  10
TORSDOF 2
ENDMDL
MODEL 3
REMARK VINA RESULT:    -4.588      8.026      9.364
REMARK INTER + INTRA:          -5.241
REMARK INTER:                  -5.237
REMARK INTRA:                  -0.004
REMARK UNBOUND:                -0.117
REMARK  Name = 1550473
REMARK  2 active torsions:
REMARK  status: ('A' for Active; 'I' for Inactive)
REMARK    1  A    between atoms: N_1  and  C_4
REMARK    2  A    between atoms: C_4  and  C_5
REMARK                            x       y       z     vdW  Elec       q    Type
REMARK                         _______ _______ _______ _____ _____    ______ ____
ROOT
ATOM      1  N   UNL     1       8.310   8.454  12.584  0.00  0.00    -0.354 N 
ATOM      2  N   UNL     1       8.334   9.470  10.503  0.00  0.00    -0.372 N 
ATOM      3  N   UNL     1       6.336   8.724  11.350  0.00  0.00    -0.372 N 
ATOM      4  C   UNL     1       7.657   8.875  11.493  0.00  0.00    +0.166 C 
ATOM      5  H   UNL     1       9.317   8.571  12.618  0.00  0.00    +0.163 HD
ATOM      6  H   UNL     1       7.868   9.801   9.669  0.00  0.00    +0.159 HD
ATOM      7  H   UNL     1       9.333   9.626  10.560  0.00  0.00    +0.159 HD
ATOM      8  H   UNL     1       5.769   8.279  12.058  0.00  0.00    +0.159 HD
ATOM      9  H   UNL     1       5.854   9.039  10.518  0.00  0.00    +0.159 HD
ENDROOT
BRANCH   1  10
ATOM     10  C   UNL     1       7.659   7.843  13.742  0.00  0.00    +0.151 C 
BRANCH  10  11
ATOM     11  C   UNL     1       7.889   6.357  13.707  0.00  0.00    -0.028 A 
ATOM     12  C   UNL     1       7.955   5.675  12.483  0.00  0.00    +0.005 A 
ATOM     13  C   UNL     1       8.047   5.627  14.895  0.00  0.00    +0.005 A 
ATOM     14  C   UNL     1       8.198   4.300  12.450  0.00  0.00    +0.000 A 
ATOM     15  C   UNL     1       8.289   4.254  14.857  0.00  0.00    +0.000 A 
ATOM     16  C   UNL     1       8.367   3.591  13.634  0.00  0.00    +0.000 A 
ENDBRANCH  10  11
ENDBRANCH   1  10
TORSDOF 2
ENDMDL
MODEL 4
REMARK VINA RESULT:    -4.573     30.113     31.241
REMARK INTER + INTRA:          -5.225
REMARK INTER:                  -5.087
REMARK INTRA:                  -0.139
REMARK UNBOUND:                -0.117
REMARK  Name = 1550473
REMARK  2 active torsions:
REMARK  status: ('A' for Active; 'I' for Inactive)
REMARK    1  A    between atoms: N_1  and  C_4
REMARK    2  A    between atoms: C_4  and  C_5
REMARK                            x       y       z     vdW  Elec       q    Type
REMARK                         _______ _______ _______ _____ _____    ______ ____
ROOT
ATOM      1  N   UNL     1       6.118  14.364  38.696  0.00  0.00    -0.354 N 
ATOM      2  N   UNL     1       5.513  16.580  38.401  0.00  0.00    -0.372 N 
ATOM      3  N   UNL     1       5.581  15.195  36.572  0.00  0.00    -0.372 N 
ATOM      4  C   UNL     1       5.741  15.364  37.889  0.00  0.00    +0.166 C 
ATOM      5  H   UNL     1       6.251  14.564  39.681  0.00  0.00    +0.163 HD
ATOM      6  H   UNL     1       5.225  17.353  37.817  0.00  0.00    +0.159 HD
ATOM      7  H   UNL     1       5.602  16.766  39.392  0.00  0.00    +0.159 HD
ATOM      8  H   UNL     1       5.743  14.304  36.123  0.00  0.00    +0.159 HD
ATOM      9  H   UNL     1       5.304  15.960  35.969  0.00  0.00    +0.159 HD
ENDROOT
BRANCH   1  10
ATOM     10  C   UNL     1       6.339  12.990  38.248  0.00  0.00    +0.151 C 
BRANCH  10  11
ATOM     11  C   UNL     1       7.570  12.446  38.919  0.00  0.00    -0.028 A 
ATOM     12  C   UNL     1       7.965  11.116  38.713  0.00  0.00    +0.005 A 
ATOM     13  C   UNL     1       8.349  13.258  39.758  0.00  0.00    +0.005 A 
ATOM     14  C   UNL     1       9.124  10.619  39.313  0.00  0.00    +0.000 A 
ATOM     15  C   UNL     1       9.506  12.757  40.356  0.00  0.00    +0.000 A 
ATOM     16  C   UNL     1       9.894  11.439  40.131  0.00  0.00    +0.000 A 
ENDBRANCH  10  11
ENDBRANCH   1  10
TORSDOF 2
ENDMDL
MODEL 5
REMARK VINA RESULT:    -4.355      8.691     10.335
REMARK INTER + INTRA:          -4.981
REMARK INTER:                  -4.828
REMARK INTRA:                  -0.153
REMARK UNBOUND:                -0.117
REMARK  Name = 1550473
REMARK  2 active torsions:
REMARK  status: ('A' for Active; 'I' for Inactive)
REMARK    1  A    between atoms: N_1  and  C_4
REMARK    2  A    between atoms: C_4  and  C_5
REMARK                            x       y       z     vdW  Elec       q    Type
REMARK                         _______ _______ _______ _____ _____    ______ ____
ROOT
ATOM      1  N   UNL     1       9.953   5.141  13.191  0.00  0.00    -0.354 N 
ATOM      2  N   UNL     1      12.165   4.755  13.759  0.00  0.00    -0.372 N 
ATOM      3  N   UNL     1      10.535   4.381  15.330  0.00  0.00    -0.372 N 
ATOM      4  C   UNL     1      10.869   4.761  14.092  0.00  0.00    +0.166 C 
ATOM      5  H   UNL     1      10.273   5.447  12.279  0.00  0.00    +0.163 HD
ATOM      6  H   UNL     1      12.878   4.470  14.416  0.00  0.00    +0.159 HD
ATOM      7  H   UNL     1      12.478   5.017  12.832  0.00  0.00    +0.159 HD
ATOM      8  H   UNL     1       9.575   4.369  15.645  0.00  0.00    +0.159 HD
ATOM      9  H   UNL     1      11.236   4.103  16.006  0.00  0.00    +0.159 HD
ENDROOT
BRANCH   1  10
ATOM     10  C   UNL     1       8.512   5.133  13.436  0.00  0.00    +0.151 C 
BRANCH  10  11
ATOM     11  C   UNL     1       7.989   6.539  13.342  0.00  0.00    -0.028 A 
ATOM     12  C   UNL     1       7.703   7.111  12.093  0.00  0.00    +0.005 A 
ATOM     13  C   UNL     1       7.773   7.304  14.498  0.00  0.00    +0.005 A 
ATOM     14  C   UNL     1       7.189   8.407  12.008  0.00  0.00    +0.000 A 
ATOM     15  C   UNL     1       7.260   8.598  14.408  0.00  0.00    +0.000 A 
ATOM     16  C   UNL     1       6.966   9.148  13.163  0.00  0.00    +0.000 A 
ENDBRANCH  10  11
ENDBRANCH   1  10
TORSDOF 2
ENDMDL
MODEL 6
REMARK VINA RESULT:    -4.339     40.868     41.324
REMARK INTER + INTRA:          -4.963
REMARK INTER:                  -4.823
REMARK INTRA:                  -0.140
REMARK UNBOUND:                -0.117
REMARK  Name = 1550473
REMARK  2 active torsions:
REMARK  status: ('A' for Active; 'I' for Inactive)
REMARK    1  A    between atoms: N_1  and  C_4
REMARK    2  A    between atoms: C_4  and  C_5
REMARK                            x       y       z     vdW  Elec       q    Type
REMARK                         _______ _______ _______ _____ _____    ______ ____
ROOT
ATOM      1  N   UNL     1      -1.815 -10.240 -27.395  0.00  0.00    -0.354 N 
ATOM      2  N   UNL     1      -0.294  -8.666 -26.637  0.00  0.00    -0.372 N 
ATOM      3  N   UNL     1      -0.510  -9.000 -28.896  0.00  0.00    -0.372 N 
ATOM      4  C   UNL     1      -0.882  -9.312 -27.650  0.00  0.00    +0.166 C 
ATOM      5  H   UNL     1      -2.030 -10.452 -26.428  0.00  0.00    +0.163 HD
ATOM      6  H   UNL     1       0.410  -7.959 -26.798  0.00  0.00    +0.159 HD
ATOM      7  H   UNL     1      -0.545  -8.847 -25.672  0.00  0.00    +0.159 HD
ATOM      8  H   UNL     1      -0.912  -9.456 -29.705  0.00  0.00    +0.159 HD
ATOM      9  H   UNL     1       0.202  -8.304 -29.078  0.00  0.00    +0.159 HD
ENDROOT
BRANCH   1  10
ATOM     10  C   UNL     1      -2.554 -10.962 -28.429  0.00  0.00    +0.151 C 
BRANCH  10  11
ATOM     11  C   UNL     1      -2.553 -12.429 -28.098  0.00  0.00    -0.028 A 
ATOM     12  C   UNL     1      -2.968 -13.374 -29.049  0.00  0.00    +0.005 A 
ATOM     13  C   UNL     1      -2.135 -12.882 -26.837  0.00  0.00    +0.005 A 
ATOM     14  C   UNL     1      -2.939 -14.739 -28.752  0.00  0.00    +0.000 A 
ATOM     15  C   UNL     1      -2.108 -14.246 -26.545  0.00  0.00    +0.000 A 
ATOM     16  C   UNL     1      -2.508 -15.174 -27.503  0.00  0.00    +0.000 A 
ENDBRANCH  10  11
ENDBRANCH   1  10
TORSDOF 2
ENDMDL
MODEL 7
REMARK VINA RESULT:    -4.231     10.778     12.065
REMARK INTER + INTRA:          -4.843
REMARK INTER:                  -4.728
REMARK INTRA:                  -0.116
REMARK UNBOUND:                -0.117
REMARK  Name = 1550473
REMARK  2 active torsions:
REMARK  status: ('A' for Active; 'I' for Inactive)
REMARK    1  A    between atoms: N_1  and  C_4
REMARK    2  A    between atoms: C_4  and  C_5
REMARK                            x       y       z     vdW  Elec       q    Type
REMARK                         _______ _______ _______ _____ _____    ______ ____
ROOT
ATOM      1  N   UNL     1      10.952  10.009  11.884  0.00  0.00    -0.354 N 
ATOM      2  N   UNL     1      12.783  11.363  12.307  0.00  0.00    -0.372 N 
ATOM      3  N   UNL     1      13.136   9.195  11.643  0.00  0.00    -0.372 N 
ATOM      4  C   UNL     1      12.279  10.177  11.941  0.00  0.00    +0.166 C 
ATOM      5  H   UNL     1      10.356  10.785  12.151  0.00  0.00    +0.163 HD
ATOM      6  H   UNL     1      13.780  11.520  12.356  0.00  0.00    +0.159 HD
ATOM      7  H   UNL     1      12.185  12.149  12.530  0.00  0.00    +0.159 HD
ATOM      8  H   UNL     1      12.820   8.275  11.366  0.00  0.00    +0.159 HD
ATOM      9  H   UNL     1      14.137   9.330  11.698  0.00  0.00    +0.159 HD
ENDROOT
BRANCH   1  10
ATOM     10  C   UNL     1      10.302   8.775  11.446  0.00  0.00    +0.151 C 
BRANCH  10  11
ATOM     11  C   UNL     1       9.179   8.449  12.392  0.00  0.00    -0.028 A 
ATOM     12  C   UNL     1       9.153   7.220  13.068  0.00  0.00    +0.005 A 
ATOM     13  C   UNL     1       8.142   9.366  12.620  0.00  0.00    +0.005 A 
ATOM     14  C   UNL     1       8.126   6.929  13.970  0.00  0.00    +0.000 A 
ATOM     15  C   UNL     1       7.118   9.071  13.520  0.00  0.00    +0.000 A 
ATOM     16  C   UNL     1       7.112   7.853  14.197  0.00  0.00    +0.000 A 
ENDBRANCH  10  11
ENDBRANCH   1  10
TORSDOF 2
ENDMDL
MODEL 8
REMARK VINA RESULT:    -4.167     37.934     38.865
REMARK INTER + INTRA:          -4.772
REMARK INTER:                  -4.594
REMARK INTRA:                  -0.177
REMARK UNBOUND:                -0.117
REMARK  Name = 1550473
REMARK  2 active torsions:
REMARK  status: ('A' for Active; 'I' for Inactive)
REMARK    1  A    between atoms: N_1  and  C_4
REMARK    2  A    between atoms: C_4  and  C_5
REMARK                            x       y       z     vdW  Elec       q    Type
REMARK                         _______ _______ _______ _____ _____    ______ ____
ROOT
ATOM      1  N   UNL     1     -16.559  -2.043 -19.085  0.00  0.00    -0.354 N 
ATOM      2  N   UNL     1     -17.637  -0.541 -17.690  0.00  0.00    -0.372 N 
ATOM      3  N   UNL     1     -18.006  -2.787 -17.398  0.00  0.00    -0.372 N 
ATOM      4  C   UNL     1     -17.395  -1.802 -18.066  0.00  0.00    +0.166 C 
ATOM      5  H   UNL     1     -16.151  -1.252 -19.569  0.00  0.00    +0.163 HD
ATOM      6  H   UNL     1     -18.261  -0.329 -16.923  0.00  0.00    +0.159 HD
ATOM      7  H   UNL     1     -17.192   0.246 -18.147  0.00  0.00    +0.159 HD
ATOM      8  H   UNL     1     -17.871  -3.760 -17.636  0.00  0.00    +0.159 HD
ATOM      9  H   UNL     1     -18.643  -2.594 -16.635  0.00  0.00    +0.159 HD
ENDROOT
BRANCH   1  10
ATOM     10  C   UNL     1     -16.186  -3.382 -19.538  0.00  0.00    +0.151 C 
BRANCH  10  11
ATOM     11  C   UNL     1     -16.917  -3.689 -20.816  0.00  0.00    -0.028 A 
ATOM     12  C   UNL     1     -16.610  -2.996 -21.995  0.00  0.00    +0.005 A 
ATOM     13  C   UNL     1     -17.913  -4.677 -20.854  0.00  0.00    +0.005 A 
ATOM     14  C   UNL     1     -17.268  -3.302 -23.190  0.00  0.00    +0.000 A 
ATOM     15  C   UNL     1     -18.568  -4.979 -22.048  0.00  0.00    +0.000 A 
ATOM     16  C   UNL     1     -18.243  -4.293 -23.216  0.00  0.00    +0.000 A 
ENDBRANCH  10  11
ENDBRANCH   1  10
TORSDOF 2
ENDMDL
MODEL 9
REMARK VINA RESULT:    -4.143     30.460     30.898
REMARK INTER + INTRA:          -4.745
REMARK INTER:                  -4.634
REMARK INTRA:                  -0.110
REMARK UNBOUND:                -0.117
REMARK  Name = 1550473
REMARK  2 active torsions:
REMARK  status: ('A' for Active; 'I' for Inactive)
REMARK    1  A    between atoms: N_1  and  C_4
REMARK    2  A    between atoms: C_4  and  C_5
REMARK                            x       y       z     vdW  Elec       q    Type
REMARK                         _______ _______ _______ _____ _____    ______ ____
ROOT
ATOM      1  N   UNL     1       7.498  13.953  38.090  0.00  0.00    -0.354 N 
ATOM      2  N   UNL     1       6.295  15.422  36.764  0.00  0.00    -0.372 N 
ATOM      3  N   UNL     1       5.240  14.401  38.527  0.00  0.00    -0.372 N 
ATOM      4  C   UNL     1       6.350  14.581  37.804  0.00  0.00    +0.166 C 
ATOM      5  H   UNL     1       8.296  14.109  37.485  0.00  0.00    +0.163 HD
ATOM      6  H   UNL     1       5.444  15.913  36.526  0.00  0.00    +0.159 HD
ATOM      7  H   UNL     1       7.107  15.611  36.188  0.00  0.00    +0.159 HD
ATOM      8  H   UNL     1       5.214  13.776  39.321  0.00  0.00    +0.159 HD
ATOM      9  H   UNL     1       4.375  14.875  38.298  0.00  0.00    +0.159 HD
ENDROOT
BRANCH   1  10
ATOM     10  C   UNL     1       7.678  13.059  39.232  0.00  0.00    +0.151 C 
BRANCH  10  11
ATOM     11  C   UNL     1       8.928  12.248  39.030  0.00  0.00    -0.028 A 
ATOM     12  C   UNL     1      10.082  12.840  38.494  0.00  0.00    +0.005 A 
ATOM     13  C   UNL     1       8.968  10.889  39.377  0.00  0.00    +0.005 A 
ATOM     14  C   UNL     1      11.252  12.095  38.333  0.00  0.00    +0.000 A 
ATOM     15  C   UNL     1      10.139  10.148  39.214  0.00  0.00    +0.000 A 
ATOM     16  C   UNL     1      11.281  10.752  38.695  0.00  0.00    +0.000 A 
ENDBRANCH  10  11
ENDBRANCH   1  10
TORSDOF 2
ENDMDL
