MODEL 1
REMARK VINA RESULT:    -5.226      0.000      0.000
REMARK INTER + INTRA:          -6.018
REMARK INTER:                  -5.837
REMARK INTRA:                  -0.181
REMARK UNBOUND:                -0.181
REMARK  Name = 1550473
REMARK  2 active torsions:
REMARK  status: ('A' for Active; 'I' for Inactive)
REMARK    1  A    between atoms: N_1  and  C_4
REMARK    2  A    between atoms: C_4  and  C_5
REMARK                            x       y       z     vdW  Elec       q    Type
REMARK                         _______ _______ _______ _____ _____    ______ ____
ROOT
ATOM      1  N   UNL     1      37.052  16.181   8.809  0.00  0.00    -0.354 N 
ATOM      2  N   UNL     1      37.513  16.271  11.077  0.00  0.00    -0.372 N 
ATOM      3  N   UNL     1      37.185  14.225  10.093  0.00  0.00    -0.372 N 
ATOM      4  C   UNL     1      37.247  15.556   9.978  0.00  0.00    +0.166 C 
ATOM      5  H   UNL     1      37.083  17.194   8.794  0.00  0.00    +0.163 HD
ATOM      6  H   UNL     1      37.667  15.827  11.972  0.00  0.00    +0.159 HD
ATOM      7  H   UNL     1      37.588  17.281  11.050  0.00  0.00    +0.159 HD
ATOM      8  H   UNL     1      36.982  13.628   9.303  0.00  0.00    +0.159 HD
ATOM      9  H   UNL     1      37.325  13.763  10.983  0.00  0.00    +0.159 HD
ENDROOT
BRANCH   1  10
ATOM     10  C   UNL     1      36.810  15.491   7.543  0.00  0.00    +0.151 C 
BRANCH  10  11
ATOM     11  C   UNL     1      38.075  15.496   6.731  0.00  0.00    -0.028 A 
ATOM     12  C   UNL     1      38.859  14.338   6.626  0.00  0.00    +0.005 A 
ATOM     13  C   UNL     1      38.492  16.655   6.057  0.00  0.00    +0.005 A 
ATOM     14  C   UNL     1      40.018  14.334   5.847  0.00  0.00    +0.000 A 
ATOM     15  C   UNL     1      39.650  16.647   5.281  0.00  0.00    +0.000 A 
ATOM     16  C   UNL     1      40.412  15.486   5.174  0.00  0.00    +0.000 A 
ENDBRANCH  10  11
ENDBRANCH   1  10
TORSDOF 2
ENDMDL
MODEL 2
REMARK VINA RESULT:    -5.202     52.309     53.380
REMARK INTER + INTRA:          -5.992
REMARK INTER:                  -5.876
REMARK INTRA:                  -0.116
REMARK UNBOUND:                -0.181
REMARK  Name = 1550473
REMARK  2 active torsions:
REMARK  status: ('A' for Active; 'I' for Inactive)
REMARK    1  A    between atoms: N_1  and  C_4
REMARK    2  A    between atoms: C_4  and  C_5
REMARK                            x       y       z     vdW  Elec       q    Type
REMARK                         _______ _______ _______ _____ _____    ______ ____
ROOT
ATOM      1  N   UNL     1      -1.048 -19.043  -2.029  0.00  0.00    -0.354 N 
ATOM      2  N   UNL     1      -2.757 -18.431  -0.590  0.00  0.00    -0.372 N 
ATOM      3  N   UNL     1      -0.875 -17.122  -0.698  0.00  0.00    -0.372 N 
ATOM      4  C   UNL     1      -1.547 -18.201  -1.114  0.00  0.00    +0.166 C 
ATOM      5  H   UNL     1      -1.595 -19.859  -2.280  0.00  0.00    +0.163 HD
ATOM      6  H   UNL     1      -3.160 -17.811   0.100  0.00  0.00    +0.159 HD
ATOM      7  H   UNL     1      -3.320 -19.222  -0.876  0.00  0.00    +0.159 HD
ATOM      8  H   UNL     1       0.045 -16.895  -1.050  0.00  0.00    +0.159 HD
ATOM      9  H   UNL     1      -1.257 -16.496   0.000  0.00  0.00    +0.159 HD
ENDROOT
BRANCH   1  10
ATOM     10  C   UNL     1       0.236 -18.854  -2.701  0.00  0.00    +0.151 C 
BRANCH  10  11
ATOM     11  C   UNL     1       0.427 -19.949  -3.713  0.00  0.00    -0.028 A 
ATOM     12  C   UNL     1      -0.116 -21.223  -3.495  0.00  0.00    +0.005 A 
ATOM     13  C   UNL     1       1.144 -19.716  -4.897  0.00  0.00    +0.005 A 
ATOM     14  C   UNL     1       0.035 -22.232  -4.449  0.00  0.00    +0.000 A 
ATOM     15  C   UNL     1       1.293 -20.727  -5.847  0.00  0.00    +0.000 A 
ATOM     16  C   UNL     1       0.737 -21.984  -5.624  0.00  0.00    +0.000 A 
ENDBRANCH  10  11
ENDBRANCH   1  10
TORSDOF 2
ENDMDL
MODEL 3
REMARK VINA RESULT:    -4.844     78.938     80.073
REMARK INTER + INTRA:          -5.592
REMARK INTER:                  -5.493
REMARK INTRA:                  -0.098
REMARK UNBOUND:                -0.181
REMARK  Name = 1550473
REMARK  2 active torsions:
REMARK  status: ('A' for Active; 'I' for Inactive)
REMARK    1  A    between atoms: N_1  and  C_4
REMARK    2  A    between atoms: C_4  and  C_5
REMARK                            x       y       z     vdW  Elec       q    Type
REMARK                         _______ _______ _______ _____ _____    ______ ____
ROOT
ATOM      1  N   UNL     1     -35.483  -5.083 -20.461  0.00  0.00    -0.354 N 
ATOM      2  N   UNL     1     -36.635  -7.086 -20.612  0.00  0.00    -0.372 N 
ATOM      3  N   UNL     1     -37.331  -5.519 -19.088  0.00  0.00    -0.372 N 
ATOM      4  C   UNL     1     -36.477  -5.881 -20.050  0.00  0.00    +0.166 C 
ATOM      5  H   UNL     1     -34.850  -5.428 -21.173  0.00  0.00    +0.163 HD
ATOM      6  H   UNL     1     -37.377  -7.709 -20.326  0.00  0.00    +0.159 HD
ATOM      7  H   UNL     1     -36.029  -7.410 -21.356  0.00  0.00    +0.159 HD
ATOM      8  H   UNL     1     -37.262  -4.625 -18.620  0.00  0.00    +0.159 HD
ATOM      9  H   UNL     1     -38.074  -6.133 -18.779  0.00  0.00    +0.159 HD
ENDROOT
BRANCH   1  10
ATOM     10  C   UNL     1     -35.257  -3.731 -19.952  0.00  0.00    +0.151 C 
BRANCH  10  11
ATOM     11  C   UNL     1     -33.793  -3.404 -20.059  0.00  0.00    -0.028 A 
ATOM     12  C   UNL     1     -33.202  -3.187 -21.312  0.00  0.00    +0.005 A 
ATOM     13  C   UNL     1     -32.993  -3.303 -18.910  0.00  0.00    +0.005 A 
ATOM     14  C   UNL     1     -31.849  -2.854 -21.410  0.00  0.00    +0.000 A 
ATOM     15  C   UNL     1     -31.642  -2.971 -19.012  0.00  0.00    +0.000 A 
ATOM     16  C   UNL     1     -31.071  -2.744 -20.262  0.00  0.00    +0.000 A 
ENDBRANCH  10  11
ENDBRANCH   1  10
TORSDOF 2
ENDMDL
MODEL 4
REMARK VINA RESULT:    -4.690     85.229     86.438
REMARK INTER + INTRA:          -5.420
REMARK INTER:                  -5.283
REMARK INTRA:                  -0.136
REMARK UNBOUND:                -0.181
REMARK  Name = 1550473
REMARK  2 active torsions:
REMARK  status: ('A' for Active; 'I' for Inactive)
REMARK    1  A    between atoms: N_1  and  C_4
REMARK    2  A    between atoms: C_4  and  C_5
REMARK                            x       y       z     vdW  Elec       q    Type
REMARK                         _______ _______ _______ _____ _____    ______ ____
ROOT
ATOM      1  N   UNL     1     -39.461 -18.476 -15.082  0.00  0.00    -0.354 N 
ATOM      2  N   UNL     1     -40.814 -19.499 -16.659  0.00  0.00    -0.372 N 
ATOM      3  N   UNL     1     -39.284 -17.938 -17.356  0.00  0.00    -0.372 N 
ATOM      4  C   UNL     1     -39.843 -18.629 -16.357  0.00  0.00    +0.166 C 
ATOM      5  H   UNL     1     -39.944 -19.008 -14.368  0.00  0.00    +0.163 HD
ATOM      6  H   UNL     1     -41.122 -19.638 -17.612  0.00  0.00    +0.159 HD
ATOM      7  H   UNL     1     -41.265 -20.063 -15.948  0.00  0.00    +0.159 HD
ATOM      8  H   UNL     1     -38.550 -17.261 -17.195  0.00  0.00    +0.159 HD
ATOM      9  H   UNL     1     -39.586 -18.055 -18.316  0.00  0.00    +0.159 HD
ENDROOT
BRANCH   1  10
ATOM     10  C   UNL     1     -38.376 -17.595 -14.654  0.00  0.00    +0.151 C 
BRANCH  10  11
ATOM     11  C   UNL     1     -37.288 -18.423 -14.029  0.00  0.00    -0.028 A 
ATOM     12  C   UNL     1     -36.719 -19.497 -14.729  0.00  0.00    +0.005 A 
ATOM     13  C   UNL     1     -36.817 -18.136 -12.738  0.00  0.00    +0.005 A 
ATOM     14  C   UNL     1     -35.687 -20.248 -14.161  0.00  0.00    +0.000 A 
ATOM     15  C   UNL     1     -35.788 -18.889 -12.174  0.00  0.00    +0.000 A 
ATOM     16  C   UNL     1     -35.221 -19.943 -12.886  0.00  0.00    +0.000 A 
ENDBRANCH  10  11
ENDBRANCH   1  10
TORSDOF 2
ENDMDL
MODEL 5
REMARK VINA RESULT:    -4.627     44.347     45.622
REMARK INTER + INTRA:          -5.349
REMARK INTER:                  -5.228
REMARK INTRA:                  -0.121
REMARK UNBOUND:                -0.181
REMARK  Name = 1550473
REMARK  2 active torsions:
REMARK  status: ('A' for Active; 'I' for Inactive)
REMARK    1  A    between atoms: N_1  and  C_4
REMARK    2  A    between atoms: C_4  and  C_5
REMARK                            x       y       z     vdW  Elec       q    Type
REMARK                         _______ _______ _______ _____ _____    ______ ____
ROOT
ATOM      1  N   UNL     1      -4.014   3.545  -0.997  0.00  0.00    -0.354 N 
ATOM      2  N   UNL     1      -3.130   4.657   0.832  0.00  0.00    -0.372 N 
ATOM      3  N   UNL     1      -2.713   5.475  -1.270  0.00  0.00    -0.372 N 
ATOM      4  C   UNL     1      -3.290   4.553  -0.493  0.00  0.00    +0.166 C 
ATOM      5  H   UNL     1      -4.400   2.862  -0.356  0.00  0.00    +0.163 HD
ATOM      6  H   UNL     1      -2.593   5.409   1.243  0.00  0.00    +0.159 HD
ATOM      7  H   UNL     1      -3.556   3.999   1.473  0.00  0.00    +0.159 HD
ATOM      8  H   UNL     1      -2.790   5.450  -2.278  0.00  0.00    +0.159 HD
ATOM      9  H   UNL     1      -2.161   6.229  -0.879  0.00  0.00    +0.159 HD
ENDROOT
BRANCH   1  10
ATOM     10  C   UNL     1      -4.293   3.372  -2.422  0.00  0.00    +0.151 C 
BRANCH  10  11
ATOM     11  C   UNL     1      -4.532   1.914  -2.702  0.00  0.00    -0.028 A 
ATOM     12  C   UNL     1      -4.271   1.382  -3.973  0.00  0.00    +0.005 A 
ATOM     13  C   UNL     1      -5.014   1.059  -1.700  0.00  0.00    +0.005 A 
ATOM     14  C   UNL     1      -4.464   0.021  -4.226  0.00  0.00    +0.000 A 
ATOM     15  C   UNL     1      -5.207  -0.298  -1.956  0.00  0.00    +0.000 A 
ATOM     16  C   UNL     1      -4.929  -0.817  -3.218  0.00  0.00    +0.000 A 
ENDBRANCH  10  11
ENDBRANCH   1  10
TORSDOF 2
ENDMDL
MODEL 6
REMARK VINA RESULT:    -4.451     79.125     80.208
REMARK INTER + INTRA:          -5.153
REMARK INTER:                  -5.051
REMARK INTRA:                  -0.102
REMARK UNBOUND:                -0.181
REMARK  Name = 1550473
REMARK  2 active torsions:
REMARK  status: ('A' for Active; 'I' for Inactive)
REMARK    1  A    between atoms: N_1  and  C_4
REMARK    2  A    between atoms: C_4  and  C_5
REMARK                            x       y       z     vdW  Elec       q    Type
REMARK                         _______ _______ _______ _____ _____    ______ ____
ROOT
ATOM      1  N   UNL     1     -32.484  -2.567 -23.330  0.00  0.00    -0.354 N 
ATOM      2  N   UNL     1     -32.951  -3.036 -21.110  0.00  0.00    -0.372 N 
ATOM      3  N   UNL     1     -30.897  -3.610 -21.957  0.00  0.00    -0.372 N 
ATOM      4  C   UNL     1     -32.105  -3.069 -22.147  0.00  0.00    +0.166 C 
ATOM      5  H   UNL     1     -33.424  -2.198 -23.417  0.00  0.00    +0.163 HD
ATOM      6  H   UNL     1     -32.692  -3.404 -20.204  0.00  0.00    +0.159 HD
ATOM      7  H   UNL     1     -33.873  -2.625 -21.188  0.00  0.00    +0.159 HD
ATOM      8  H   UNL     1     -30.215  -3.672 -22.700  0.00  0.00    +0.159 HD
ATOM      9  H   UNL     1     -30.624  -3.995 -21.061  0.00  0.00    +0.159 HD
ENDROOT
BRANCH   1  10
ATOM     10  C   UNL     1     -31.620  -2.506 -24.507  0.00  0.00    +0.151 C 
BRANCH  10  11
ATOM     11  C   UNL     1     -32.476  -2.423 -25.741  0.00  0.00    -0.028 A 
ATOM     12  C   UNL     1     -33.119  -3.565 -26.240  0.00  0.00    +0.005 A 
ATOM     13  C   UNL     1     -32.652  -1.203 -26.412  0.00  0.00    +0.005 A 
ATOM     14  C   UNL     1     -33.938  -3.482 -27.369  0.00  0.00    +0.000 A 
ATOM     15  C   UNL     1     -33.470  -1.124 -27.539  0.00  0.00    +0.000 A 
ATOM     16  C   UNL     1     -34.115  -2.263 -28.015  0.00  0.00    +0.000 A 
ENDBRANCH  10  11
ENDBRANCH   1  10
TORSDOF 2
ENDMDL
MODEL 7
REMARK VINA RESULT:    -4.417     69.344     70.658
REMARK INTER + INTRA:          -5.115
REMARK INTER:                  -5.010
REMARK INTRA:                  -0.105
REMARK UNBOUND:                -0.181
REMARK  Name = 1550473
REMARK  2 active torsions:
REMARK  status: ('A' for Active; 'I' for Inactive)
REMARK    1  A    between atoms: N_1  and  C_4
REMARK    2  A    between atoms: C_4  and  C_5
REMARK                            x       y       z     vdW  Elec       q    Type
REMARK                         _______ _______ _______ _____ _____    ______ ____
ROOT
ATOM      1  N   UNL     1     -23.851 -13.424  -1.682  0.00  0.00    -0.354 N 
ATOM      2  N   UNL     1     -22.245 -13.169  -0.033  0.00  0.00    -0.372 N 
ATOM      3  N   UNL     1     -23.759 -11.479  -0.377  0.00  0.00    -0.372 N 
ATOM      4  C   UNL     1     -23.297 -12.690  -0.708  0.00  0.00    +0.166 C 
ATOM      5  H   UNL     1     -23.435 -14.321  -1.905  0.00  0.00    +0.163 HD
ATOM      6  H   UNL     1     -21.808 -12.639   0.710  0.00  0.00    +0.159 HD
ATOM      7  H   UNL     1     -21.860 -14.085  -0.227  0.00  0.00    +0.159 HD
ATOM      8  H   UNL     1     -24.547 -11.059  -0.852  0.00  0.00    +0.159 HD
ATOM      9  H   UNL     1     -23.328 -10.929   0.355  0.00  0.00    +0.159 HD
ENDROOT
BRANCH   1  10
ATOM     10  C   UNL     1     -25.032 -13.017  -2.441  0.00  0.00    +0.151 C 
BRANCH  10  11
ATOM     11  C   UNL     1     -25.538 -14.193  -3.230  0.00  0.00    -0.028 A 
ATOM     12  C   UNL     1     -25.915 -15.378  -2.580  0.00  0.00    +0.005 A 
ATOM     13  C   UNL     1     -25.648 -14.127  -4.628  0.00  0.00    +0.005 A 
ATOM     14  C   UNL     1     -26.413 -16.460  -3.310  0.00  0.00    +0.000 A 
ATOM     15  C   UNL     1     -26.145 -15.210  -5.353  0.00  0.00    +0.000 A 
ATOM     16  C   UNL     1     -26.530 -16.375  -4.693  0.00  0.00    +0.000 A 
ENDBRANCH  10  11
ENDBRANCH   1  10
TORSDOF 2
ENDMDL
MODEL 8
REMARK VINA RESULT:    -4.413     81.291     82.522
REMARK INTER + INTRA:          -5.110
REMARK INTER:                  -4.970
REMARK INTRA:                  -0.140
REMARK UNBOUND:                -0.181
REMARK  Name = 1550473
REMARK  2 active torsions:
REMARK  status: ('A' for Active; 'I' for Inactive)
REMARK    1  A    between atoms: N_1  and  C_4
REMARK    2  A    between atoms: C_4  and  C_5
REMARK                            x       y       z     vdW  Elec       q    Type
REMARK                         _______ _______ _______ _____ _____    ______ ____
ROOT
ATOM      1  N   UNL     1     -39.609  -5.215 -11.389  0.00  0.00    -0.354 N 
ATOM      2  N   UNL     1     -39.742  -3.072 -10.523  0.00  0.00    -0.372 N 
ATOM      3  N   UNL     1     -41.435  -4.554 -10.078  0.00  0.00    -0.372 N 
ATOM      4  C   UNL     1     -40.264  -4.295 -10.668  0.00  0.00    +0.166 C 
ATOM      5  H   UNL     1     -38.740  -4.947 -11.837  0.00  0.00    +0.163 HD
ATOM      6  H   UNL     1     -40.211  -2.358  -9.982  0.00  0.00    +0.159 HD
ATOM      7  H   UNL     1     -38.850  -2.820 -10.933  0.00  0.00    +0.159 HD
ATOM      8  H   UNL     1     -41.886  -5.456 -10.154  0.00  0.00    +0.159 HD
ATOM      9  H   UNL     1     -41.926  -3.849  -9.542  0.00  0.00    +0.159 HD
ENDROOT
BRANCH   1  10
ATOM     10  C   UNL     1     -40.065  -6.593 -11.564  0.00  0.00    +0.151 C 
BRANCH  10  11
ATOM     11  C   UNL     1     -38.911  -7.527 -11.325  0.00  0.00    -0.028 A 
ATOM     12  C   UNL     1     -38.976  -8.863 -11.747  0.00  0.00    +0.005 A 
ATOM     13  C   UNL     1     -37.746  -7.080 -10.683  0.00  0.00    +0.005 A 
ATOM     14  C   UNL     1     -37.892  -9.722 -11.552  0.00  0.00    +0.000 A 
ATOM     15  C   UNL     1     -36.666  -7.941 -10.489  0.00  0.00    +0.000 A 
ATOM     16  C   UNL     1     -36.739  -9.262 -10.926  0.00  0.00    +0.000 A 
ENDBRANCH  10  11
ENDBRANCH   1  10
TORSDOF 2
ENDMDL
MODEL 9
REMARK VINA RESULT:    -4.354     16.558     17.749
REMARK INTER + INTRA:          -5.044
REMARK INTER:                  -4.950
REMARK INTRA:                  -0.094
REMARK UNBOUND:                -0.181
REMARK  Name = 1550473
REMARK  2 active torsions:
REMARK  status: ('A' for Active; 'I' for Inactive)
REMARK    1  A    between atoms: N_1  and  C_4
REMARK    2  A    between atoms: C_4  and  C_5
REMARK                            x       y       z     vdW  Elec       q    Type
REMARK                         _______ _______ _______ _____ _____    ______ ____
ROOT
ATOM      1  N   UNL     1      28.604  -0.396  12.700  0.00  0.00    -0.354 N 
ATOM      2  N   UNL     1      28.921  -0.767  14.964  0.00  0.00    -0.372 N 
ATOM      3  N   UNL     1      27.337   0.755  14.300  0.00  0.00    -0.372 N 
ATOM      4  C   UNL     1      28.283  -0.132  13.973  0.00  0.00    +0.166 C 
ATOM      5  H   UNL     1      29.352  -1.057  12.519  0.00  0.00    +0.163 HD
ATOM      6  H   UNL     1      28.698  -0.591  15.935  0.00  0.00    +0.159 HD
ATOM      7  H   UNL     1      29.635  -1.460  14.780  0.00  0.00    +0.159 HD
ATOM      8  H   UNL     1      26.823   1.272  13.599  0.00  0.00    +0.159 HD
ATOM      9  H   UNL     1      27.108   0.954  15.266  0.00  0.00    +0.159 HD
ENDROOT
BRANCH   1  10
ATOM     10  C   UNL     1      27.934   0.201  11.547  0.00  0.00    +0.151 C 
BRANCH  10  11
ATOM     11  C   UNL     1      28.904   1.092  10.821  0.00  0.00    -0.028 A 
ATOM     12  C   UNL     1      29.891   1.794  11.528  0.00  0.00    +0.005 A 
ATOM     13  C   UNL     1      28.845   1.234   9.426  0.00  0.00    +0.005 A 
ATOM     14  C   UNL     1      30.812   2.598  10.852  0.00  0.00    +0.000 A 
ATOM     15  C   UNL     1      29.766   2.038   8.755  0.00  0.00    +0.000 A 
ATOM     16  C   UNL     1      30.750   2.718   9.467  0.00  0.00    +0.000 A 
ENDBRANCH  10  11
ENDBRANCH   1  10
TORSDOF 2
ENDMDL
