MODEL 1
REMARK VINA RESULT:    -5.242      0.000      0.000
REMARK INTER + INTRA:          -5.976
REMARK INTER:                  -5.855
REMARK INTRA:                  -0.121
REMARK UNBOUND:                -0.121
REMARK  Name = 1550473
REMARK  2 active torsions:
REMARK  status: ('A' for Active; 'I' for Inactive)
REMARK    1  A    between atoms: N_1  and  C_4
REMARK    2  A    between atoms: C_4  and  C_5
REMARK                            x       y       z     vdW  Elec       q    Type
REMARK                         _______ _______ _______ _____ _____    ______ ____
ROOT
ATOM      1  N   UNL     1       2.817 -10.075 -19.730  0.00  0.00    -0.354 N 
ATOM      2  N   UNL     1       3.754 -11.414 -18.089  0.00  0.00    -0.372 N 
ATOM      3  N   UNL     1       5.139 -10.359 -19.583  0.00  0.00    -0.372 N 
ATOM      4  C   UNL     1       3.900 -10.607 -19.146  0.00  0.00    +0.166 C 
ATOM      5  H   UNL     1       1.904 -10.326 -19.370  0.00  0.00    +0.163 HD
ATOM      6  H   UNL     1       4.552 -11.827 -17.625  0.00  0.00    +0.159 HD
ATOM      7  H   UNL     1       2.842 -11.627 -17.702  0.00  0.00    +0.159 HD
ATOM      8  H   UNL     1       5.317  -9.763 -20.381  0.00  0.00    +0.159 HD
ATOM      9  H   UNL     1       5.950 -10.773 -19.140  0.00  0.00    +0.159 HD
ENDROOT
BRANCH   1  10
ATOM     10  C   UNL     1       2.870  -9.142 -20.854  0.00  0.00    +0.151 C 
BRANCH  10  11
ATOM     11  C   UNL     1       2.161  -9.751 -22.032  0.00  0.00    -0.028 A 
ATOM     12  C   UNL     1       1.490  -8.938 -22.957  0.00  0.00    +0.005 A 
ATOM     13  C   UNL     1       2.162 -11.140 -22.232  0.00  0.00    +0.005 A 
ATOM     14  C   UNL     1       0.857  -9.501 -24.068  0.00  0.00    +0.000 A 
ATOM     15  C   UNL     1       1.528 -11.698 -23.342  0.00  0.00    +0.000 A 
ATOM     16  C   UNL     1       0.878 -10.878 -24.261  0.00  0.00    +0.000 A 
ENDBRANCH  10  11
ENDBRANCH   1  10
TORSDOF 2
ENDMDL
MODEL 2
REMARK VINA RESULT:    -4.956     16.791     18.457
REMARK INTER + INTRA:          -5.657
REMARK INTER:                  -5.489
REMARK INTRA:                  -0.167
REMARK UNBOUND:                -0.121
REMARK  Name = 1550473
REMARK  2 active torsions:
REMARK  status: ('A' for Active; 'I' for Inactive)
REMARK    1  A    between atoms: N_1  and  C_4
REMARK    2  A    between atoms: C_4  and  C_5
REMARK                            x       y       z     vdW  Elec       q    Type
REMARK                         _______ _______ _______ _____ _____    ______ ____
ROOT
ATOM      1  N   UNL     1       7.618  -4.897  -3.202  0.00  0.00    -0.354 N 
ATOM      2  N   UNL     1       7.604  -2.909  -2.014  0.00  0.00    -0.372 N 
ATOM      3  N   UNL     1       9.595  -4.010  -2.309  0.00  0.00    -0.372 N 
ATOM      4  C   UNL     1       8.275  -3.952  -2.516  0.00  0.00    +0.166 C 
ATOM      5  H   UNL     1       6.612  -4.810  -3.298  0.00  0.00    +0.163 HD
ATOM      6  H   UNL     1       8.073  -2.179  -1.495  0.00  0.00    +0.159 HD
ATOM      7  H   UNL     1       6.606  -2.801  -2.151  0.00  0.00    +0.159 HD
ATOM      8  H   UNL     1      10.158  -4.775  -2.656  0.00  0.00    +0.159 HD
ATOM      9  H   UNL     1      10.081  -3.295  -1.782  0.00  0.00    +0.159 HD
ENDROOT
BRANCH   1  10
ATOM     10  C   UNL     1       8.263  -6.045  -3.835  0.00  0.00    +0.151 C 
BRANCH  10  11
ATOM     11  C   UNL     1       8.336  -5.812  -5.319  0.00  0.00    -0.028 A 
ATOM     12  C   UNL     1       7.206  -5.376  -6.027  0.00  0.00    +0.005 A 
ATOM     13  C   UNL     1       9.532  -6.020  -6.022  0.00  0.00    +0.005 A 
ATOM     14  C   UNL     1       7.281  -5.130  -7.400  0.00  0.00    +0.000 A 
ATOM     15  C   UNL     1       9.603  -5.774  -7.393  0.00  0.00    +0.000 A 
ATOM     16  C   UNL     1       8.478  -5.327  -8.081  0.00  0.00    +0.000 A 
ENDBRANCH  10  11
ENDBRANCH   1  10
TORSDOF 2
ENDMDL
MODEL 3
REMARK VINA RESULT:    -4.699     21.708     22.930
REMARK INTER + INTRA:          -5.369
REMARK INTER:                  -5.234
REMARK INTRA:                  -0.135
REMARK UNBOUND:                -0.121
REMARK  Name = 1550473
REMARK  2 active torsions:
REMARK  status: ('A' for Active; 'I' for Inactive)
REMARK    1  A    between atoms: N_1  and  C_4
REMARK    2  A    between atoms: C_4  and  C_5
REMARK                            x       y       z     vdW  Elec       q    Type
REMARK                         _______ _______ _______ _____ _____    ______ ____
ROOT
ATOM      1  N   UNL     1      -8.596   0.500  -5.969  0.00  0.00    -0.354 N 
ATOM      2  N   UNL     1      -7.544   0.789  -8.012  0.00  0.00    -0.372 N 
ATOM      3  N   UNL     1      -7.055   2.234  -6.298  0.00  0.00    -0.372 N 
ATOM      4  C   UNL     1      -7.737   1.175  -6.745  0.00  0.00    +0.166 C 
ATOM      5  H   UNL     1      -9.105  -0.276  -6.377  0.00  0.00    +0.163 HD
ATOM      6  H   UNL     1      -6.900   1.277  -8.620  0.00  0.00    +0.159 HD
ATOM      7  H   UNL     1      -8.019  -0.015  -8.403  0.00  0.00    +0.159 HD
ATOM      8  H   UNL     1      -7.161   2.580  -5.353  0.00  0.00    +0.159 HD
ATOM      9  H   UNL     1      -6.415   2.743  -6.895  0.00  0.00    +0.159 HD
ENDROOT
BRANCH   1  10
ATOM     10  C   UNL     1      -8.839   0.805  -4.560  0.00  0.00    +0.151 C 
BRANCH  10  11
ATOM     11  C   UNL     1      -8.923  -0.482  -3.786  0.00  0.00    -0.028 A 
ATOM     12  C   UNL     1      -8.134  -1.583  -4.148  0.00  0.00    +0.005 A 
ATOM     13  C   UNL     1      -9.787  -0.604  -2.687  0.00  0.00    +0.005 A 
ATOM     14  C   UNL     1      -8.190  -2.768  -3.411  0.00  0.00    +0.000 A 
ATOM     15  C   UNL     1      -9.840  -1.789  -1.954  0.00  0.00    +0.000 A 
ATOM     16  C   UNL     1      -9.040  -2.870  -2.315  0.00  0.00    +0.000 A 
ENDBRANCH  10  11
ENDBRANCH   1  10
TORSDOF 2
ENDMDL
MODEL 4
REMARK VINA RESULT:    -4.688     20.395     21.921
REMARK INTER + INTRA:          -5.357
REMARK INTER:                  -5.226
REMARK INTRA:                  -0.131
REMARK UNBOUND:                -0.121
REMARK  Name = 1550473
REMARK  2 active torsions:
REMARK  status: ('A' for Active; 'I' for Inactive)
REMARK    1  A    between atoms: N_1  and  C_4
REMARK    2  A    between atoms: C_4  and  C_5
REMARK                            x       y       z     vdW  Elec       q    Type
REMARK                         _______ _______ _______ _____ _____    ______ ____
ROOT
ATOM      1  N   UNL     1       1.140 -19.241  -1.100  0.00  0.00    -0.354 N 
ATOM      2  N   UNL     1       0.759 -21.335  -2.012  0.00  0.00    -0.372 N 
ATOM      3  N   UNL     1       2.318 -21.121  -0.343  0.00  0.00    -0.372 N 
ATOM      4  C   UNL     1       1.410 -20.553  -1.144  0.00  0.00    +0.166 C 
ATOM      5  H   UNL     1       0.463 -18.867  -1.754  0.00  0.00    +0.163 HD
ATOM      6  H   UNL     1       0.939 -22.329  -2.066  0.00  0.00    +0.159 HD
ATOM      7  H   UNL     1       0.049 -20.966  -2.634  0.00  0.00    +0.159 HD
ATOM      8  H   UNL     1       2.849 -20.584   0.330  0.00  0.00    +0.159 HD
ATOM      9  H   UNL     1       2.521 -22.111  -0.390  0.00  0.00    +0.159 HD
ENDROOT
BRANCH   1  10
ATOM     10  C   UNL     1       1.755 -18.311  -0.154  0.00  0.00    +0.151 C 
BRANCH  10  11
ATOM     11  C   UNL     1       1.790 -16.938  -0.767  0.00  0.00    -0.028 A 
ATOM     12  C   UNL     1       1.608 -16.771  -2.148  0.00  0.00    +0.005 A 
ATOM     13  C   UNL     1       1.998 -15.801   0.028  0.00  0.00    +0.005 A 
ATOM     14  C   UNL     1       1.610 -15.493  -2.713  0.00  0.00    +0.000 A 
ATOM     15  C   UNL     1       2.000 -14.527  -0.541  0.00  0.00    +0.000 A 
ATOM     16  C   UNL     1       1.804 -14.374  -1.911  0.00  0.00    +0.000 A 
ENDBRANCH  10  11
ENDBRANCH   1  10
TORSDOF 2
ENDMDL
MODEL 5
REMARK VINA RESULT:    -4.676     20.949     22.729
REMARK INTER + INTRA:          -5.344
REMARK INTER:                  -5.215
REMARK INTRA:                  -0.128
REMARK UNBOUND:                -0.121
REMARK  Name = 1550473
REMARK  2 active torsions:
REMARK  status: ('A' for Active; 'I' for Inactive)
REMARK    1  A    between atoms: N_1  and  C_4
REMARK    2  A    between atoms: C_4  and  C_5
REMARK                            x       y       z     vdW  Elec       q    Type
REMARK                         _______ _______ _______ _____ _____    ______ ____
ROOT
ATOM      1  N   UNL     1       3.311 -17.528   1.466  0.00  0.00    -0.354 N 
ATOM      2  N   UNL     1       4.712 -17.021   3.240  0.00  0.00    -0.372 N 
ATOM      3  N   UNL     1       2.457 -16.665   3.471  0.00  0.00    -0.372 N 
ATOM      4  C   UNL     1       3.482 -17.074   2.715  0.00  0.00    +0.166 C 
ATOM      5  H   UNL     1       4.132 -17.794   0.935  0.00  0.00    +0.163 HD
ATOM      6  H   UNL     1       4.871 -16.687   4.181  0.00  0.00    +0.159 HD
ATOM      7  H   UNL     1       5.525 -17.331   2.723  0.00  0.00    +0.159 HD
ATOM      8  H   UNL     1       1.504 -16.674   3.131  0.00  0.00    +0.159 HD
ATOM      9  H   UNL     1       2.597 -16.316   4.411  0.00  0.00    +0.159 HD
ENDROOT
BRANCH   1  10
ATOM     10  C   UNL     1       2.008 -17.675   0.821  0.00  0.00    +0.151 C 
BRANCH  10  11
ATOM     11  C   UNL     1       1.889 -16.660  -0.282  0.00  0.00    -0.028 A 
ATOM     12  C   UNL     1       1.985 -15.290  -0.002  0.00  0.00    +0.005 A 
ATOM     13  C   UNL     1       1.684 -17.063  -1.611  0.00  0.00    +0.005 A 
ATOM     14  C   UNL     1       1.904 -14.348  -1.031  0.00  0.00    +0.000 A 
ATOM     15  C   UNL     1       1.603 -16.120  -2.635  0.00  0.00    +0.000 A 
ATOM     16  C   UNL     1       1.716 -14.762  -2.345  0.00  0.00    +0.000 A 
ENDBRANCH  10  11
ENDBRANCH   1  10
TORSDOF 2
ENDMDL
MODEL 6
REMARK VINA RESULT:    -4.583     17.524     18.974
REMARK INTER + INTRA:          -5.240
REMARK INTER:                  -5.113
REMARK INTRA:                  -0.127
REMARK UNBOUND:                -0.121
REMARK  Name = 1550473
REMARK  2 active torsions:
REMARK  status: ('A' for Active; 'I' for Inactive)
REMARK    1  A    between atoms: N_1  and  C_4
REMARK    2  A    between atoms: C_4  and  C_5
REMARK                            x       y       z     vdW  Elec       q    Type
REMARK                         _______ _______ _______ _____ _____    ______ ____
ROOT
ATOM      1  N   UNL     1       7.735  -5.669  -3.059  0.00  0.00    -0.354 N 
ATOM      2  N   UNL     1       8.075  -4.937  -0.888  0.00  0.00    -0.372 N 
ATOM      3  N   UNL     1       7.807  -3.382  -2.554  0.00  0.00    -0.372 N 
ATOM      4  C   UNL     1       7.870  -4.665  -2.182  0.00  0.00    +0.166 C 
ATOM      5  H   UNL     1       7.823  -6.620  -2.718  0.00  0.00    +0.163 HD
ATOM      6  H   UNL     1       8.178  -4.200  -0.203  0.00  0.00    +0.159 HD
ATOM      7  H   UNL     1       8.117  -5.889  -0.543  0.00  0.00    +0.159 HD
ATOM      8  H   UNL     1       7.661  -3.110  -3.516  0.00  0.00    +0.159 HD
ATOM      9  H   UNL     1       7.919  -2.630  -1.885  0.00  0.00    +0.159 HD
ENDROOT
BRANCH   1  10
ATOM     10  C   UNL     1       7.455  -5.481  -4.481  0.00  0.00    +0.151 C 
BRANCH  10  11
ATOM     11  C   UNL     1       8.682  -5.838  -5.274  0.00  0.00    -0.028 A 
ATOM     12  C   UNL     1       8.739  -5.579  -6.651  0.00  0.00    +0.005 A 
ATOM     13  C   UNL     1       9.792  -6.431  -4.654  0.00  0.00    +0.005 A 
ATOM     14  C   UNL     1       9.890  -5.883  -7.383  0.00  0.00    +0.000 A 
ATOM     15  C   UNL     1      10.938  -6.734  -5.388  0.00  0.00    +0.000 A 
ATOM     16  C   UNL     1      10.988  -6.458  -6.752  0.00  0.00    +0.000 A 
ENDBRANCH  10  11
ENDBRANCH   1  10
TORSDOF 2
ENDMDL
MODEL 7
REMARK VINA RESULT:    -4.571     25.882     26.596
REMARK INTER + INTRA:          -5.226
REMARK INTER:                  -5.077
REMARK INTRA:                  -0.149
REMARK UNBOUND:                -0.121
REMARK  Name = 1550473
REMARK  2 active torsions:
REMARK  status: ('A' for Active; 'I' for Inactive)
REMARK    1  A    between atoms: N_1  and  C_4
REMARK    2  A    between atoms: C_4  and  C_5
REMARK                            x       y       z     vdW  Elec       q    Type
REMARK                         _______ _______ _______ _____ _____    ______ ____
ROOT
ATOM      1  N   UNL     1       5.407   5.329  -0.720  0.00  0.00    -0.354 N 
ATOM      2  N   UNL     1       7.076   6.893  -0.355  0.00  0.00    -0.372 N 
ATOM      3  N   UNL     1       6.847   5.151   1.121  0.00  0.00    -0.372 N 
ATOM      4  C   UNL     1       6.433   5.779   0.015  0.00  0.00    +0.166 C 
ATOM      5  H   UNL     1       5.123   5.868  -1.530  0.00  0.00    +0.163 HD
ATOM      6  H   UNL     1       7.855   7.255   0.178  0.00  0.00    +0.159 HD
ATOM      7  H   UNL     1       6.819   7.404  -1.190  0.00  0.00    +0.159 HD
ATOM      8  H   UNL     1       6.400   4.308   1.457  0.00  0.00    +0.159 HD
ATOM      9  H   UNL     1       7.617   5.504   1.674  0.00  0.00    +0.159 HD
ENDROOT
BRANCH   1  10
ATOM     10  C   UNL     1       4.675   4.097  -0.434  0.00  0.00    +0.151 C 
BRANCH  10  11
ATOM     11  C   UNL     1       3.234   4.433  -0.166  0.00  0.00    -0.028 A 
ATOM     12  C   UNL     1       2.663   5.598  -0.700  0.00  0.00    +0.005 A 
ATOM     13  C   UNL     1       2.432   3.588   0.615  0.00  0.00    +0.005 A 
ATOM     14  C   UNL     1       1.317   5.895  -0.477  0.00  0.00    +0.000 A 
ATOM     15  C   UNL     1       1.088   3.888   0.837  0.00  0.00    +0.000 A 
ATOM     16  C   UNL     1       0.530   5.041   0.289  0.00  0.00    +0.000 A 
ENDBRANCH  10  11
ENDBRANCH   1  10
TORSDOF 2
ENDMDL
MODEL 8
REMARK VINA RESULT:    -4.370     25.800     26.685
REMARK INTER + INTRA:          -5.002
REMARK INTER:                  -4.851
REMARK INTRA:                  -0.151
REMARK UNBOUND:                -0.121
REMARK  Name = 1550473
REMARK  2 active torsions:
REMARK  status: ('A' for Active; 'I' for Inactive)
REMARK    1  A    between atoms: N_1  and  C_4
REMARK    2  A    between atoms: C_4  and  C_5
REMARK                            x       y       z     vdW  Elec       q    Type
REMARK                         _______ _______ _______ _____ _____    ______ ____
ROOT
ATOM      1  N   UNL     1       7.119   5.540  -0.981  0.00  0.00    -0.354 N 
ATOM      2  N   UNL     1       8.989   6.865  -1.309  0.00  0.00    -0.372 N 
ATOM      3  N   UNL     1       8.139   6.652   0.812  0.00  0.00    -0.372 N 
ATOM      4  C   UNL     1       8.070   6.344  -0.488  0.00  0.00    +0.166 C 
ATOM      5  H   UNL     1       7.102   5.369  -1.980  0.00  0.00    +0.163 HD
ATOM      6  H   UNL     1       9.721   7.472  -0.966  0.00  0.00    +0.159 HD
ATOM      7  H   UNL     1       8.998   6.656  -2.300  0.00  0.00    +0.159 HD
ATOM      8  H   UNL     1       7.472   6.296   1.483  0.00  0.00    +0.159 HD
ATOM      9  H   UNL     1       8.857   7.268   1.173  0.00  0.00    +0.159 HD
ENDROOT
BRANCH   1  10
ATOM     10  C   UNL     1       6.103   4.878  -0.164  0.00  0.00    +0.151 C 
BRANCH  10  11
ATOM     11  C   UNL     1       4.743   5.375  -0.572  0.00  0.00    -0.028 A 
ATOM     12  C   UNL     1       3.655   5.273   0.306  0.00  0.00    +0.005 A 
ATOM     13  C   UNL     1       4.539   5.953  -1.835  0.00  0.00    +0.005 A 
ATOM     14  C   UNL     1       2.399   5.762  -0.062  0.00  0.00    +0.000 A 
ATOM     15  C   UNL     1       3.283   6.438  -2.199  0.00  0.00    +0.000 A 
ATOM     16  C   UNL     1       2.214   6.345  -1.311  0.00  0.00    +0.000 A 
ENDBRANCH  10  11
ENDBRANCH   1  10
TORSDOF 2
ENDMDL
MODEL 9
REMARK VINA RESULT:    -4.189     21.660     22.850
REMARK INTER + INTRA:          -4.799
REMARK INTER:                  -4.684
REMARK INTRA:                  -0.115
REMARK UNBOUND:                -0.121
REMARK  Name = 1550473
REMARK  2 active torsions:
REMARK  status: ('A' for Active; 'I' for Inactive)
REMARK    1  A    between atoms: N_1  and  C_4
REMARK    2  A    between atoms: C_4  and  C_5
REMARK                            x       y       z     vdW  Elec       q    Type
REMARK                         _______ _______ _______ _____ _____    ______ ____
ROOT
ATOM      1  N   UNL     1      -8.530   1.426  -6.499  0.00  0.00    -0.354 N 
ATOM      2  N   UNL     1      -9.194   2.134  -8.602  0.00  0.00    -0.372 N 
ATOM      3  N   UNL     1      -7.158   1.100  -8.371  0.00  0.00    -0.372 N 
ATOM      4  C   UNL     1      -8.287   1.548  -7.811  0.00  0.00    +0.166 C 
ATOM      5  H   UNL     1      -9.392   1.813  -6.131  0.00  0.00    +0.163 HD
ATOM      6  H   UNL     1      -9.040   2.237  -9.596  0.00  0.00    +0.159 HD
ATOM      7  H   UNL     1     -10.074   2.478  -8.239  0.00  0.00    +0.159 HD
ATOM      8  H   UNL     1      -6.431   0.654  -7.828  0.00  0.00    +0.159 HD
ATOM      9  H   UNL     1      -6.981   1.205  -9.363  0.00  0.00    +0.159 HD
ENDROOT
BRANCH   1  10
ATOM     10  C   UNL     1      -7.632   0.756  -5.560  0.00  0.00    +0.151 C 
BRANCH  10  11
ATOM     11  C   UNL     1      -8.452   0.053  -4.514  0.00  0.00    -0.028 A 
ATOM     12  C   UNL     1      -9.213  -1.077  -4.847  0.00  0.00    +0.005 A 
ATOM     13  C   UNL     1      -8.466   0.507  -3.186  0.00  0.00    +0.005 A 
ATOM     14  C   UNL     1      -9.951  -1.749  -3.869  0.00  0.00    +0.000 A 
ATOM     15  C   UNL     1      -9.204  -0.165  -2.213  0.00  0.00    +0.000 A 
ATOM     16  C   UNL     1      -9.945  -1.295  -2.554  0.00  0.00    +0.000 A 
ENDBRANCH  10  11
ENDBRANCH   1  10
TORSDOF 2
ENDMDL
