MODEL 1
REMARK VINA RESULT:    -5.633      0.000      0.000
REMARK INTER + INTRA:          -6.469
REMARK INTER:                  -6.292
REMARK INTRA:                  -0.178
REMARK UNBOUND:                -0.178
REMARK  Name = 1550473
REMARK  2 active torsions:
REMARK  status: ('A' for Active; 'I' for Inactive)
REMARK    1  A    between atoms: N_1  and  C_4
REMARK    2  A    between atoms: C_4  and  C_5
REMARK                            x       y       z     vdW  Elec       q    Type
REMARK                         _______ _______ _______ _____ _____    ______ ____
ROOT
ATOM      1  N   UNL     1       8.335   8.168  -3.162  0.00  0.00    -0.354 N 
ATOM      2  N   UNL     1       9.111   6.747  -4.818  0.00  0.00    -0.372 N 
ATOM      3  N   UNL     1       7.030   7.686  -5.048  0.00  0.00    -0.372 N 
ATOM      4  C   UNL     1       8.151   7.544  -4.333  0.00  0.00    +0.166 C 
ATOM      5  H   UNL     1       9.195   7.994  -2.654  0.00  0.00    +0.163 HD
ATOM      6  H   UNL     1       9.002   6.266  -5.701  0.00  0.00    +0.159 HD
ATOM      7  H   UNL     1       9.988   6.612  -4.330  0.00  0.00    +0.159 HD
ATOM      8  H   UNL     1       6.265   8.268  -4.734  0.00  0.00    +0.159 HD
ATOM      9  H   UNL     1       6.898   7.203  -5.928  0.00  0.00    +0.159 HD
ENDROOT
BRANCH   1  10
ATOM     10  C   UNL     1       7.374   9.098  -2.571  0.00  0.00    +0.151 C 
BRANCH  10  11
ATOM     11  C   UNL     1       6.695   8.430  -1.408  0.00  0.00    -0.028 A 
ATOM     12  C   UNL     1       5.473   7.764  -1.583  0.00  0.00    +0.005 A 
ATOM     13  C   UNL     1       7.271   8.455  -0.128  0.00  0.00    +0.005 A 
ATOM     14  C   UNL     1       4.857   7.117  -0.509  0.00  0.00    +0.000 A 
ATOM     15  C   UNL     1       6.652   7.809   0.942  0.00  0.00    +0.000 A 
ATOM     16  C   UNL     1       5.447   7.138   0.751  0.00  0.00    +0.000 A 
ENDBRANCH  10  11
ENDBRANCH   1  10
TORSDOF 2
ENDMDL
MODEL 2
REMARK VINA RESULT:    -5.364      2.817      3.651
REMARK INTER + INTRA:          -6.169
REMARK INTER:                  -5.993
REMARK INTRA:                  -0.176
REMARK UNBOUND:                -0.178
REMARK  Name = 1550473
REMARK  2 active torsions:
REMARK  status: ('A' for Active; 'I' for Inactive)
REMARK    1  A    between atoms: N_1  and  C_4
REMARK    2  A    between atoms: C_4  and  C_5
REMARK                            x       y       z     vdW  Elec       q    Type
REMARK                         _______ _______ _______ _____ _____    ______ ____
ROOT
ATOM      1  N   UNL     1       9.731   6.476  -1.144  0.00  0.00    -0.354 N 
ATOM      2  N   UNL     1      11.027   4.717  -0.376  0.00  0.00    -0.372 N 
ATOM      3  N   UNL     1      10.579   6.465   1.041  0.00  0.00    -0.372 N 
ATOM      4  C   UNL     1      10.438   5.899  -0.162  0.00  0.00    +0.166 C 
ATOM      5  H   UNL     1       9.687   6.010  -2.043  0.00  0.00    +0.163 HD
ATOM      6  H   UNL     1      11.564   4.256   0.346  0.00  0.00    +0.159 HD
ATOM      7  H   UNL     1      10.943   4.232  -1.261  0.00  0.00    +0.159 HD
ATOM      8  H   UNL     1      10.164   7.360   1.264  0.00  0.00    +0.159 HD
ATOM      9  H   UNL     1      11.122   6.025   1.773  0.00  0.00    +0.159 HD
ENDROOT
BRANCH   1  10
ATOM     10  C   UNL     1       9.005   7.736  -0.997  0.00  0.00    +0.151 C 
BRANCH  10  11
ATOM     11  C   UNL     1       7.568   7.440  -0.669  0.00  0.00    -0.028 A 
ATOM     12  C   UNL     1       7.101   7.553   0.649  0.00  0.00    +0.005 A 
ATOM     13  C   UNL     1       6.667   7.052  -1.672  0.00  0.00    +0.005 A 
ATOM     14  C   UNL     1       5.758   7.307   0.949  0.00  0.00    +0.000 A 
ATOM     15  C   UNL     1       5.328   6.807  -1.368  0.00  0.00    +0.000 A 
ATOM     16  C   UNL     1       4.874   6.937  -0.058  0.00  0.00    +0.000 A 
ENDBRANCH  10  11
ENDBRANCH   1  10
TORSDOF 2
ENDMDL
MODEL 3
REMARK VINA RESULT:    -5.044      2.999      4.894
REMARK INTER + INTRA:          -5.812
REMARK INTER:                  -5.654
REMARK INTRA:                  -0.158
REMARK UNBOUND:                -0.178
REMARK  Name = 1550473
REMARK  2 active torsions:
REMARK  status: ('A' for Active; 'I' for Inactive)
REMARK    1  A    between atoms: N_1  and  C_4
REMARK    2  A    between atoms: C_4  and  C_5
REMARK                            x       y       z     vdW  Elec       q    Type
REMARK                         _______ _______ _______ _____ _____    ______ ____
ROOT
ATOM      1  N   UNL     1       7.295   7.126   0.518  0.00  0.00    -0.354 N 
ATOM      2  N   UNL     1       6.786   7.493   2.748  0.00  0.00    -0.372 N 
ATOM      3  N   UNL     1       5.073   7.347   1.228  0.00  0.00    -0.372 N 
ATOM      4  C   UNL     1       6.385   7.320   1.482  0.00  0.00    +0.166 C 
ATOM      5  H   UNL     1       8.276   7.147   0.771  0.00  0.00    +0.163 HD
ATOM      6  H   UNL     1       6.123   7.638   3.497  0.00  0.00    +0.159 HD
ATOM      7  H   UNL     1       7.765   7.468   3.005  0.00  0.00    +0.159 HD
ATOM      8  H   UNL     1       4.706   7.228   0.294  0.00  0.00    +0.159 HD
ATOM      9  H   UNL     1       4.394   7.502   1.963  0.00  0.00    +0.159 HD
ENDROOT
BRANCH   1  10
ATOM     10  C   UNL     1       6.961   6.874  -0.882  0.00  0.00    +0.151 C 
BRANCH  10  11
ATOM     11  C   UNL     1       7.179   8.134  -1.674  0.00  0.00    -0.028 A 
ATOM     12  C   UNL     1       8.160   9.058  -1.286  0.00  0.00    +0.005 A 
ATOM     13  C   UNL     1       6.411   8.407  -2.816  0.00  0.00    +0.005 A 
ATOM     14  C   UNL     1       8.383  10.214  -2.038  0.00  0.00    +0.000 A 
ATOM     15  C   UNL     1       6.636   9.563  -3.564  0.00  0.00    +0.000 A 
ATOM     16  C   UNL     1       7.624  10.465  -3.176  0.00  0.00    +0.000 A 
ENDBRANCH  10  11
ENDBRANCH   1  10
TORSDOF 2
ENDMDL
MODEL 4
REMARK VINA RESULT:    -4.935     15.471     16.084
REMARK INTER + INTRA:          -5.690
REMARK INTER:                  -5.568
REMARK INTRA:                  -0.122
REMARK UNBOUND:                -0.178
REMARK  Name = 1550473
REMARK  2 active torsions:
REMARK  status: ('A' for Active; 'I' for Inactive)
REMARK    1  A    between atoms: N_1  and  C_4
REMARK    2  A    between atoms: C_4  and  C_5
REMARK                            x       y       z     vdW  Elec       q    Type
REMARK                         _______ _______ _______ _____ _____    ______ ____
ROOT
ATOM      1  N   UNL     1      12.679  -7.665   0.440  0.00  0.00    -0.354 N 
ATOM      2  N   UNL     1      14.604  -8.881   0.866  0.00  0.00    -0.372 N 
ATOM      3  N   UNL     1      14.661  -6.598   1.092  0.00  0.00    -0.372 N 
ATOM      4  C   UNL     1      13.970  -7.704   0.797  0.00  0.00    +0.166 C 
ATOM      5  H   UNL     1      12.220  -8.536   0.199  0.00  0.00    +0.163 HD
ATOM      6  H   UNL     1      15.577  -8.941   1.135  0.00  0.00    +0.159 HD
ATOM      7  H   UNL     1      14.130  -9.754   0.669  0.00  0.00    +0.159 HD
ATOM      8  H   UNL     1      14.241  -5.678   1.054  0.00  0.00    +0.159 HD
ATOM      9  H   UNL     1      15.638  -6.637   1.353  0.00  0.00    +0.159 HD
ENDROOT
BRANCH   1  10
ATOM     10  C   UNL     1      11.882  -6.441   0.386  0.00  0.00    +0.151 C 
BRANCH  10  11
ATOM     11  C   UNL     1      10.685  -6.673  -0.495  0.00  0.00    -0.028 A 
ATOM     12  C   UNL     1      10.235  -7.975  -0.756  0.00  0.00    +0.005 A 
ATOM     13  C   UNL     1       9.993  -5.594  -1.066  0.00  0.00    +0.005 A 
ATOM     14  C   UNL     1       9.105  -8.189  -1.550  0.00  0.00    +0.000 A 
ATOM     15  C   UNL     1       8.866  -5.812  -1.858  0.00  0.00    +0.000 A 
ATOM     16  C   UNL     1       8.421  -7.109  -2.098  0.00  0.00    +0.000 A 
ENDBRANCH  10  11
ENDBRANCH   1  10
TORSDOF 2
ENDMDL
MODEL 5
REMARK VINA RESULT:    -4.846     31.006     32.387
REMARK INTER + INTRA:          -5.590
REMARK INTER:                  -5.497
REMARK INTRA:                  -0.093
REMARK UNBOUND:                -0.178
REMARK  Name = 1550473
REMARK  2 active torsions:
REMARK  status: ('A' for Active; 'I' for Inactive)
REMARK    1  A    between atoms: N_1  and  C_4
REMARK    2  A    between atoms: C_4  and  C_5
REMARK                            x       y       z     vdW  Elec       q    Type
REMARK                         _______ _______ _______ _____ _____    ______ ____
ROOT
ATOM      1  N   UNL     1     -11.409 -17.167   0.442  0.00  0.00    -0.354 N 
ATOM      2  N   UNL     1     -10.330 -15.554   1.706  0.00  0.00    -0.372 N 
ATOM      3  N   UNL     1     -11.903 -16.884   2.715  0.00  0.00    -0.372 N 
ATOM      4  C   UNL     1     -11.223 -16.546   1.615  0.00  0.00    +0.166 C 
ATOM      5  H   UNL     1     -10.884 -16.843  -0.362  0.00  0.00    +0.163 HD
ATOM      6  H   UNL     1     -10.165 -15.070   2.578  0.00  0.00    +0.159 HD
ATOM      7  H   UNL     1      -9.773 -15.263   0.911  0.00  0.00    +0.159 HD
ATOM      8  H   UNL     1     -12.596 -17.621   2.711  0.00  0.00    +0.159 HD
ATOM      9  H   UNL     1     -11.761 -16.403   3.595  0.00  0.00    +0.159 HD
ENDROOT
BRANCH   1  10
ATOM     10  C   UNL     1     -12.318 -18.295   0.249  0.00  0.00    +0.151 C 
BRANCH  10  11
ATOM     11  C   UNL     1     -12.398 -18.616  -1.218  0.00  0.00    -0.028 A 
ATOM     12  C   UNL     1     -11.318 -19.224  -1.874  0.00  0.00    +0.005 A 
ATOM     13  C   UNL     1     -13.554 -18.319  -1.957  0.00  0.00    +0.005 A 
ATOM     14  C   UNL     1     -11.402 -19.550  -3.230  0.00  0.00    +0.000 A 
ATOM     15  C   UNL     1     -13.634 -18.645  -3.311  0.00  0.00    +0.000 A 
ATOM     16  C   UNL     1     -12.559 -19.263  -3.946  0.00  0.00    +0.000 A 
ENDBRANCH  10  11
ENDBRANCH   1  10
TORSDOF 2
ENDMDL
MODEL 6
REMARK VINA RESULT:    -4.799     21.550     22.393
REMARK INTER + INTRA:          -5.538
REMARK INTER:                  -5.447
REMARK INTRA:                  -0.091
REMARK UNBOUND:                -0.178
REMARK  Name = 1550473
REMARK  2 active torsions:
REMARK  status: ('A' for Active; 'I' for Inactive)
REMARK    1  A    between atoms: N_1  and  C_4
REMARK    2  A    between atoms: C_4  and  C_5
REMARK                            x       y       z     vdW  Elec       q    Type
REMARK                         _______ _______ _______ _____ _____    ______ ____
ROOT
ATOM      1  N   UNL     1      -8.822   3.093 -18.580  0.00  0.00    -0.354 N 
ATOM      2  N   UNL     1      -9.038   2.071 -20.647  0.00  0.00    -0.372 N 
ATOM      3  N   UNL     1      -7.046   3.074 -20.108  0.00  0.00    -0.372 N 
ATOM      4  C   UNL     1      -8.298   2.754 -19.765  0.00  0.00    +0.166 C 
ATOM      5  H   UNL     1      -9.788   2.847 -18.393  0.00  0.00    +0.163 HD
ATOM      6  H   UNL     1      -8.668   1.798 -21.548  0.00  0.00    +0.159 HD
ATOM      7  H   UNL     1      -9.987   1.786 -20.439  0.00  0.00    +0.159 HD
ATOM      8  H   UNL     1      -6.438   3.594 -19.490  0.00  0.00    +0.159 HD
ATOM      9  H   UNL     1      -6.662   2.820 -21.010  0.00  0.00    +0.159 HD
ENDROOT
BRANCH   1  10
ATOM     10  C   UNL     1      -8.084   3.790 -17.529  0.00  0.00    +0.151 C 
BRANCH  10  11
ATOM     11  C   UNL     1      -8.867   3.717 -16.247  0.00  0.00    -0.028 A 
ATOM     12  C   UNL     1      -8.602   2.710 -15.307  0.00  0.00    +0.005 A 
ATOM     13  C   UNL     1      -9.872   4.654 -15.964  0.00  0.00    +0.005 A 
ATOM     14  C   UNL     1      -9.309   2.659 -14.103  0.00  0.00    +0.000 A 
ATOM     15  C   UNL     1     -10.576   4.600 -14.761  0.00  0.00    +0.000 A 
ATOM     16  C   UNL     1     -10.292   3.603 -13.830  0.00  0.00    +0.000 A 
ENDBRANCH  10  11
ENDBRANCH   1  10
TORSDOF 2
ENDMDL
MODEL 7
REMARK VINA RESULT:    -4.738     15.267     15.966
REMARK INTER + INTRA:          -5.470
REMARK INTER:                  -5.349
REMARK INTRA:                  -0.121
REMARK UNBOUND:                -0.178
REMARK  Name = 1550473
REMARK  2 active torsions:
REMARK  status: ('A' for Active; 'I' for Inactive)
REMARK    1  A    between atoms: N_1  and  C_4
REMARK    2  A    between atoms: C_4  and  C_5
REMARK                            x       y       z     vdW  Elec       q    Type
REMARK                         _______ _______ _______ _____ _____    ______ ____
ROOT
ATOM      1  N   UNL     1      12.599  -6.839   0.363  0.00  0.00    -0.354 N 
ATOM      2  N   UNL     1      14.066  -6.072   1.983  0.00  0.00    -0.372 N 
ATOM      3  N   UNL     1      14.619  -7.951   0.787  0.00  0.00    -0.372 N 
ATOM      4  C   UNL     1      13.753  -6.961   1.033  0.00  0.00    +0.166 C 
ATOM      5  H   UNL     1      11.972  -6.085   0.618  0.00  0.00    +0.163 HD
ATOM      6  H   UNL     1      14.931  -6.136   2.502  0.00  0.00    +0.159 HD
ATOM      7  H   UNL     1      13.459  -5.292   2.203  0.00  0.00    +0.159 HD
ATOM      8  H   UNL     1      14.439  -8.658   0.087  0.00  0.00    +0.159 HD
ATOM      9  H   UNL     1      15.484  -8.039   1.305  0.00  0.00    +0.159 HD
ENDROOT
BRANCH   1  10
ATOM     10  C   UNL     1      12.189  -7.724  -0.726  0.00  0.00    +0.151 C 
BRANCH  10  11
ATOM     11  C   UNL     1      10.871  -7.249  -1.274  0.00  0.00    -0.028 A 
ATOM     12  C   UNL     1      10.427  -5.942  -1.029  0.00  0.00    +0.005 A 
ATOM     13  C   UNL     1      10.064  -8.101  -2.043  0.00  0.00    +0.005 A 
ATOM     14  C   UNL     1       9.217  -5.491  -1.562  0.00  0.00    +0.000 A 
ATOM     15  C   UNL     1       8.856  -7.648  -2.573  0.00  0.00    +0.000 A 
ATOM     16  C   UNL     1       8.434  -6.342  -2.335  0.00  0.00    +0.000 A 
ENDBRANCH  10  11
ENDBRANCH   1  10
TORSDOF 2
ENDMDL
MODEL 8
REMARK VINA RESULT:    -4.524     16.198     16.807
REMARK INTER + INTRA:          -5.230
REMARK INTER:                  -5.104
REMARK INTRA:                  -0.126
REMARK UNBOUND:                -0.178
REMARK  Name = 1550473
REMARK  2 active torsions:
REMARK  status: ('A' for Active; 'I' for Inactive)
REMARK    1  A    between atoms: N_1  and  C_4
REMARK    2  A    between atoms: C_4  and  C_5
REMARK                            x       y       z     vdW  Elec       q    Type
REMARK                         _______ _______ _______ _____ _____    ______ ____
ROOT
ATOM      1  N   UNL     1       9.793 -10.044  -1.890  0.00  0.00    -0.354 N 
ATOM      2  N   UNL     1      10.736 -12.114  -2.328  0.00  0.00    -0.372 N 
ATOM      3  N   UNL     1       9.155 -11.288  -3.771  0.00  0.00    -0.372 N 
ATOM      4  C   UNL     1       9.887 -11.135  -2.662  0.00  0.00    +0.166 C 
ATOM      5  H   UNL     1      10.353 -10.003  -1.046  0.00  0.00    +0.163 HD
ATOM      6  H   UNL     1      10.831 -12.947  -2.894  0.00  0.00    +0.159 HD
ATOM      7  H   UNL     1      11.328 -12.049  -1.509  0.00  0.00    +0.159 HD
ATOM      8  H   UNL     1       8.491 -10.588  -4.075  0.00  0.00    +0.159 HD
ATOM      9  H   UNL     1       9.227 -12.119  -4.344  0.00  0.00    +0.159 HD
ENDROOT
BRANCH   1  10
ATOM     10  C   UNL     1       8.939  -8.898  -2.194  0.00  0.00    +0.151 C 
BRANCH  10  11
ATOM     11  C   UNL     1       9.519  -7.669  -1.551  0.00  0.00    -0.028 A 
ATOM     12  C   UNL     1      10.524  -7.781  -0.579  0.00  0.00    +0.005 A 
ATOM     13  C   UNL     1       9.073  -6.389  -1.914  0.00  0.00    +0.005 A 
ATOM     14  C   UNL     1      11.085  -6.638  -0.003  0.00  0.00    +0.000 A 
ATOM     15  C   UNL     1       9.635  -5.250  -1.336  0.00  0.00    +0.000 A 
ATOM     16  C   UNL     1      10.642  -5.375  -0.382  0.00  0.00    +0.000 A 
ENDBRANCH  10  11
ENDBRANCH   1  10
TORSDOF 2
ENDMDL
MODEL 9
REMARK VINA RESULT:    -4.493     14.965     15.776
REMARK INTER + INTRA:          -5.196
REMARK INTER:                  -5.040
REMARK INTRA:                  -0.155
REMARK UNBOUND:                -0.178
REMARK  Name = 1550473
REMARK  2 active torsions:
REMARK  status: ('A' for Active; 'I' for Inactive)
REMARK    1  A    between atoms: N_1  and  C_4
REMARK    2  A    between atoms: C_4  and  C_5
REMARK                            x       y       z     vdW  Elec       q    Type
REMARK                         _______ _______ _______ _____ _____    ______ ____
ROOT
ATOM      1  N   UNL     1      -8.750   6.344   1.338  0.00  0.00    -0.354 N 
ATOM      2  N   UNL     1      -8.120   5.243  -0.600  0.00  0.00    -0.372 N 
ATOM      3  N   UNL     1      -9.506   7.065  -0.759  0.00  0.00    -0.372 N 
ATOM      4  C   UNL     1      -8.798   6.226   0.005  0.00  0.00    +0.166 C 
ATOM      5  H   UNL     1      -8.219   5.658   1.863  0.00  0.00    +0.163 HD
ATOM      6  H   UNL     1      -8.135   5.132  -1.605  0.00  0.00    +0.159 HD
ATOM      7  H   UNL     1      -7.554   4.587  -0.077  0.00  0.00    +0.159 HD
ATOM      8  H   UNL     1     -10.045   7.824  -0.364  0.00  0.00    +0.159 HD
ATOM      9  H   UNL     1      -9.543   6.962  -1.766  0.00  0.00    +0.159 HD
ENDROOT
BRANCH   1  10
ATOM     10  C   UNL     1      -9.408   7.411   2.090  0.00  0.00    +0.151 C 
BRANCH  10  11
ATOM     11  C   UNL     1      -8.360   8.293   2.711  0.00  0.00    -0.028 A 
ATOM     12  C   UNL     1      -8.136   9.587   2.220  0.00  0.00    +0.005 A 
ATOM     13  C   UNL     1      -7.592   7.841   3.795  0.00  0.00    +0.005 A 
ATOM     14  C   UNL     1      -7.184  10.417   2.816  0.00  0.00    +0.000 A 
ATOM     15  C   UNL     1      -6.642   8.673   4.387  0.00  0.00    +0.000 A 
ATOM     16  C   UNL     1      -6.440   9.962   3.899  0.00  0.00    +0.000 A 
ENDBRANCH  10  11
ENDBRANCH   1  10
TORSDOF 2
ENDMDL
