MODEL 1
REMARK VINA RESULT:    -6.206      0.000      0.000
REMARK INTER + INTRA:          -7.068
REMARK INTER:                  -6.931
REMARK INTRA:                  -0.137
REMARK UNBOUND:                -0.137
REMARK  Name = 1550473
REMARK  2 active torsions:
REMARK  status: ('A' for Active; 'I' for Inactive)
REMARK    1  A    between atoms: N_1  and  C_4
REMARK    2  A    between atoms: C_4  and  C_5
REMARK                            x       y       z     vdW  Elec       q    Type
REMARK                         _______ _______ _______ _____ _____    ______ ____
ROOT
ATOM      1  N   UNL     1      -0.799  -8.510  -4.981  0.00  0.00    -0.354 N 
ATOM      2  N   UNL     1       0.520  -6.691  -5.545  0.00  0.00    -0.372 N 
ATOM      3  N   UNL     1       0.663  -7.549  -3.421  0.00  0.00    -0.372 N 
ATOM      4  C   UNL     1       0.120  -7.595  -4.643  0.00  0.00    +0.166 C 
ATOM      5  H   UNL     1      -1.194  -8.473  -5.913  0.00  0.00    +0.163 HD
ATOM      6  H   UNL     1       1.214  -5.991  -5.320  0.00  0.00    +0.159 HD
ATOM      7  H   UNL     1       0.157  -6.685  -6.490  0.00  0.00    +0.159 HD
ATOM      8  H   UNL     1       0.400  -8.199  -2.693  0.00  0.00    +0.159 HD
ATOM      9  H   UNL     1       1.351  -6.848  -3.174  0.00  0.00    +0.159 HD
ENDROOT
BRANCH   1  10
ATOM     10  C   UNL     1      -1.263  -9.571  -4.089  0.00  0.00    +0.151 C 
BRANCH  10  11
ATOM     11  C   UNL     1      -2.727  -9.373  -3.810  0.00  0.00    -0.028 A 
ATOM     12  C   UNL     1      -3.442  -8.349  -4.449  0.00  0.00    +0.005 A 
ATOM     13  C   UNL     1      -3.408 -10.210  -2.912  0.00  0.00    +0.005 A 
ATOM     14  C   UNL     1      -4.809  -8.184  -4.214  0.00  0.00    +0.000 A 
ATOM     15  C   UNL     1      -4.773 -10.041  -2.679  0.00  0.00    +0.000 A 
ATOM     16  C   UNL     1      -5.473  -9.030  -3.332  0.00  0.00    +0.000 A 
ENDBRANCH  10  11
ENDBRANCH   1  10
TORSDOF 2
ENDMDL
MODEL 2
REMARK VINA RESULT:    -6.189      0.058      1.455
REMARK INTER + INTRA:          -7.049
REMARK INTER:                  -6.905
REMARK INTRA:                  -0.144
REMARK UNBOUND:                -0.137
REMARK  Name = 1550473
REMARK  2 active torsions:
REMARK  status: ('A' for Active; 'I' for Inactive)
REMARK    1  A    between atoms: N_1  and  C_4
REMARK    2  A    between atoms: C_4  and  C_5
REMARK                            x       y       z     vdW  Elec       q    Type
REMARK                         _______ _______ _______ _____ _____    ______ ____
ROOT
ATOM      1  N   UNL     1      -0.829  -8.511  -4.974  0.00  0.00    -0.354 N 
ATOM      2  N   UNL     1       0.521  -6.718  -5.547  0.00  0.00    -0.372 N 
ATOM      3  N   UNL     1       0.725  -7.636  -3.454  0.00  0.00    -0.372 N 
ATOM      4  C   UNL     1       0.131  -7.634  -4.652  0.00  0.00    +0.166 C 
ATOM      5  H   UNL     1      -1.261  -8.437  -5.888  0.00  0.00    +0.163 HD
ATOM      6  H   UNL     1       1.245  -6.045  -5.333  0.00  0.00    +0.159 HD
ATOM      7  H   UNL     1       0.119  -6.676  -6.475  0.00  0.00    +0.159 HD
ATOM      8  H   UNL     1       0.473  -8.298  -2.732  0.00  0.00    +0.159 HD
ATOM      9  H   UNL     1       1.444  -6.964  -3.217  0.00  0.00    +0.159 HD
ENDROOT
BRANCH   1  10
ATOM     10  C   UNL     1      -1.288  -9.582  -4.092  0.00  0.00    +0.151 C 
BRANCH  10  11
ATOM     11  C   UNL     1      -2.753  -9.391  -3.809  0.00  0.00    -0.028 A 
ATOM     12  C   UNL     1      -3.417 -10.228  -2.901  0.00  0.00    +0.005 A 
ATOM     13  C   UNL     1      -3.481  -8.372  -4.442  0.00  0.00    +0.005 A 
ATOM     14  C   UNL     1      -4.771 -10.033  -2.615  0.00  0.00    +0.000 A 
ATOM     15  C   UNL     1      -4.832  -8.181  -4.155  0.00  0.00    +0.000 A 
ATOM     16  C   UNL     1      -5.476  -9.010  -3.239  0.00  0.00    +0.000 A 
ENDBRANCH  10  11
ENDBRANCH   1  10
TORSDOF 2
ENDMDL
MODEL 3
REMARK VINA RESULT:    -5.861      2.470      3.143
REMARK INTER + INTRA:          -6.683
REMARK INTER:                  -6.541
REMARK INTRA:                  -0.141
REMARK UNBOUND:                -0.137
REMARK  Name = 1550473
REMARK  2 active torsions:
REMARK  status: ('A' for Active; 'I' for Inactive)
REMARK    1  A    between atoms: N_1  and  C_4
REMARK    2  A    between atoms: C_4  and  C_5
REMARK                            x       y       z     vdW  Elec       q    Type
REMARK                         _______ _______ _______ _____ _____    ______ ____
ROOT
ATOM      1  N   UNL     1      -0.193 -10.007  -4.014  0.00  0.00    -0.354 N 
ATOM      2  N   UNL     1       2.064  -9.622  -4.365  0.00  0.00    -0.372 N 
ATOM      3  N   UNL     1       0.534  -8.240  -5.371  0.00  0.00    -0.372 N 
ATOM      4  C   UNL     1       0.786  -9.290  -4.583  0.00  0.00    +0.166 C 
ATOM      5  H   UNL     1       0.064 -10.810  -3.452  0.00  0.00    +0.163 HD
ATOM      6  H   UNL     1       2.824  -9.097  -4.777  0.00  0.00    +0.159 HD
ATOM      7  H   UNL     1       2.319 -10.397  -3.765  0.00  0.00    +0.159 HD
ATOM      8  H   UNL     1      -0.410  -7.941  -5.580  0.00  0.00    +0.159 HD
ATOM      9  H   UNL     1       1.280  -7.709  -5.802  0.00  0.00    +0.159 HD
ENDROOT
BRANCH   1  10
ATOM     10  C   UNL     1      -1.615  -9.697  -4.145  0.00  0.00    +0.151 C 
BRANCH  10  11
ATOM     11  C   UNL     1      -2.361 -10.953  -4.501  0.00  0.00    -0.028 A 
ATOM     12  C   UNL     1      -1.849 -11.838  -5.461  0.00  0.00    +0.005 A 
ATOM     13  C   UNL     1      -3.579 -11.267  -3.877  0.00  0.00    +0.005 A 
ATOM     14  C   UNL     1      -2.526 -13.020  -5.770  0.00  0.00    +0.000 A 
ATOM     15  C   UNL     1      -4.253 -12.448  -4.190  0.00  0.00    +0.000 A 
ATOM     16  C   UNL     1      -3.725 -13.325  -5.134  0.00  0.00    +0.000 A 
ENDBRANCH  10  11
ENDBRANCH   1  10
TORSDOF 2
ENDMDL
MODEL 4
REMARK VINA RESULT:    -5.342      3.352      4.258
REMARK INTER + INTRA:          -6.103
REMARK INTER:                  -5.931
REMARK INTRA:                  -0.172
REMARK UNBOUND:                -0.137
REMARK  Name = 1550473
REMARK  2 active torsions:
REMARK  status: ('A' for Active; 'I' for Inactive)
REMARK    1  A    between atoms: N_1  and  C_4
REMARK    2  A    between atoms: C_4  and  C_5
REMARK                            x       y       z     vdW  Elec       q    Type
REMARK                         _______ _______ _______ _____ _____    ______ ____
ROOT
ATOM      1  N   UNL     1      -2.415 -10.484  -3.319  0.00  0.00    -0.354 N 
ATOM      2  N   UNL     1      -0.438  -9.470  -2.665  0.00  0.00    -0.372 N 
ATOM      3  N   UNL     1      -1.167  -9.190  -4.822  0.00  0.00    -0.372 N 
ATOM      4  C   UNL     1      -1.353  -9.721  -3.609  0.00  0.00    +0.166 C 
ATOM      5  H   UNL     1      -2.483 -10.881  -2.389  0.00  0.00    +0.163 HD
ATOM      6  H   UNL     1       0.372  -8.896  -2.853  0.00  0.00    +0.159 HD
ATOM      7  H   UNL     1      -0.532  -9.831  -1.723  0.00  0.00    +0.159 HD
ATOM      8  H   UNL     1      -1.817  -9.346  -5.580  0.00  0.00    +0.159 HD
ATOM      9  H   UNL     1      -0.356  -8.622  -5.034  0.00  0.00    +0.159 HD
ENDROOT
BRANCH   1  10
ATOM     10  C   UNL     1      -3.496 -10.772  -4.260  0.00  0.00    +0.151 C 
BRANCH  10  11
ATOM     11  C   UNL     1      -3.402 -12.210  -4.689  0.00  0.00    -0.028 A 
ATOM     12  C   UNL     1      -2.520 -12.592  -5.711  0.00  0.00    +0.005 A 
ATOM     13  C   UNL     1      -4.189 -13.197  -4.075  0.00  0.00    +0.005 A 
ATOM     14  C   UNL     1      -2.410 -13.932  -6.090  0.00  0.00    +0.000 A 
ATOM     15  C   UNL     1      -4.077 -14.534  -4.457  0.00  0.00    +0.000 A 
ATOM     16  C   UNL     1      -3.186 -14.901  -5.462  0.00  0.00    +0.000 A 
ENDBRANCH  10  11
ENDBRANCH   1  10
TORSDOF 2
ENDMDL
MODEL 5
REMARK VINA RESULT:    -5.270      5.138      6.220
REMARK INTER + INTRA:          -6.022
REMARK INTER:                  -5.903
REMARK INTRA:                  -0.119
REMARK UNBOUND:                -0.137
REMARK  Name = 1550473
REMARK  2 active torsions:
REMARK  status: ('A' for Active; 'I' for Inactive)
REMARK    1  A    between atoms: N_1  and  C_4
REMARK    2  A    between atoms: C_4  and  C_5
REMARK                            x       y       z     vdW  Elec       q    Type
REMARK                         _______ _______ _______ _____ _____    ______ ____
ROOT
ATOM      1  N   UNL     1      -2.702 -12.467  -4.290  0.00  0.00    -0.354 N 
ATOM      2  N   UNL     1      -1.392 -10.556  -4.299  0.00  0.00    -0.372 N 
ATOM      3  N   UNL     1      -3.673 -10.339  -4.436  0.00  0.00    -0.372 N 
ATOM      4  C   UNL     1      -2.600 -11.132  -4.342  0.00  0.00    +0.166 C 
ATOM      5  H   UNL     1      -1.849 -13.013  -4.250  0.00  0.00    +0.163 HD
ATOM      6  H   UNL     1      -1.285  -9.551  -4.333  0.00  0.00    +0.159 HD
ATOM      7  H   UNL     1      -0.544 -11.103  -4.213  0.00  0.00    +0.159 HD
ATOM      8  H   UNL     1      -4.612 -10.711  -4.479  0.00  0.00    +0.159 HD
ATOM      9  H   UNL     1      -3.584  -9.331  -4.483  0.00  0.00    +0.159 HD
ENDROOT
BRANCH   1  10
ATOM     10  C   UNL     1      -3.972 -13.190  -4.276  0.00  0.00    +0.151 C 
BRANCH  10  11
ATOM     11  C   UNL     1      -3.752 -14.579  -4.809  0.00  0.00    -0.028 A 
ATOM     12  C   UNL     1      -2.502 -15.202  -4.679  0.00  0.00    +0.005 A 
ATOM     13  C   UNL     1      -4.791 -15.280  -5.439  0.00  0.00    +0.005 A 
ATOM     14  C   UNL     1      -2.305 -16.504  -5.146  0.00  0.00    +0.000 A 
ATOM     15  C   UNL     1      -4.591 -16.580  -5.906  0.00  0.00    +0.000 A 
ATOM     16  C   UNL     1      -3.349 -17.192  -5.757  0.00  0.00    +0.000 A 
ENDBRANCH  10  11
ENDBRANCH   1  10
TORSDOF 2
ENDMDL
MODEL 6
REMARK VINA RESULT:    -5.261      2.818      4.720
REMARK INTER + INTRA:          -6.013
REMARK INTER:                  -5.880
REMARK INTRA:                  -0.133
REMARK UNBOUND:                -0.137
REMARK  Name = 1550473
REMARK  2 active torsions:
REMARK  status: ('A' for Active; 'I' for Inactive)
REMARK    1  A    between atoms: N_1  and  C_4
REMARK    2  A    between atoms: C_4  and  C_5
REMARK                            x       y       z     vdW  Elec       q    Type
REMARK                         _______ _______ _______ _____ _____    ______ ____
ROOT
ATOM      1  N   UNL     1      -3.914  -8.312  -3.314  0.00  0.00    -0.354 N 
ATOM      2  N   UNL     1      -5.100  -7.286  -1.610  0.00  0.00    -0.372 N 
ATOM      3  N   UNL     1      -5.263  -9.561  -1.862  0.00  0.00    -0.372 N 
ATOM      4  C   UNL     1      -4.752  -8.396  -2.273  0.00  0.00    +0.166 C 
ATOM      5  H   UNL     1      -3.585  -7.395  -3.595  0.00  0.00    +0.163 HD
ATOM      6  H   UNL     1      -5.728  -7.319  -0.818  0.00  0.00    +0.159 HD
ATOM      7  H   UNL     1      -4.734  -6.377  -1.864  0.00  0.00    +0.159 HD
ATOM      8  H   UNL     1      -5.044 -10.434  -2.323  0.00  0.00    +0.159 HD
ATOM      9  H   UNL     1      -5.902  -9.613  -1.078  0.00  0.00    +0.159 HD
ENDROOT
BRANCH   1  10
ATOM     10  C   UNL     1      -3.430  -9.466  -4.070  0.00  0.00    +0.151 C 
BRANCH  10  11
ATOM     11  C   UNL     1      -1.981  -9.256  -4.413  0.00  0.00    -0.028 A 
ATOM     12  C   UNL     1      -1.396  -7.987  -4.289  0.00  0.00    +0.005 A 
ATOM     13  C   UNL     1      -1.186 -10.324  -4.858  0.00  0.00    +0.005 A 
ATOM     14  C   UNL     1      -0.043  -7.798  -4.579  0.00  0.00    +0.000 A 
ATOM     15  C   UNL     1       0.165 -10.131  -5.147  0.00  0.00    +0.000 A 
ATOM     16  C   UNL     1       0.737  -8.868  -5.005  0.00  0.00    +0.000 A 
ENDBRANCH  10  11
ENDBRANCH   1  10
TORSDOF 2
ENDMDL
MODEL 7
REMARK VINA RESULT:    -5.239      2.090      2.680
REMARK INTER + INTRA:          -5.988
REMARK INTER:                  -5.825
REMARK INTRA:                  -0.164
REMARK UNBOUND:                -0.137
REMARK  Name = 1550473
REMARK  2 active torsions:
REMARK  status: ('A' for Active; 'I' for Inactive)
REMARK    1  A    between atoms: N_1  and  C_4
REMARK    2  A    between atoms: C_4  and  C_5
REMARK                            x       y       z     vdW  Elec       q    Type
REMARK                         _______ _______ _______ _____ _____    ______ ____
ROOT
ATOM      1  N   UNL     1      -2.003 -10.428  -3.388  0.00  0.00    -0.354 N 
ATOM      2  N   UNL     1       0.048 -10.110  -4.417  0.00  0.00    -0.372 N 
ATOM      3  N   UNL     1      -1.452  -8.374  -4.372  0.00  0.00    -0.372 N 
ATOM      4  C   UNL     1      -1.150  -9.637  -4.053  0.00  0.00    +0.166 C 
ATOM      5  H   UNL     1      -1.726 -11.386  -3.203  0.00  0.00    +0.163 HD
ATOM      6  H   UNL     1       0.713  -9.536  -4.917  0.00  0.00    +0.159 HD
ATOM      7  H   UNL     1       0.339 -11.053  -4.191  0.00  0.00    +0.159 HD
ATOM      8  H   UNL     1      -2.342  -7.959  -4.131  0.00  0.00    +0.159 HD
ATOM      9  H   UNL     1      -0.804  -7.787  -4.882  0.00  0.00    +0.159 HD
ENDROOT
BRANCH   1  10
ATOM     10  C   UNL     1      -3.310  -9.994  -2.899  0.00  0.00    +0.151 C 
BRANCH  10  11
ATOM     11  C   UNL     1      -4.353 -10.312  -3.935  0.00  0.00    -0.028 A 
ATOM     12  C   UNL     1      -5.178  -9.301  -4.448  0.00  0.00    +0.005 A 
ATOM     13  C   UNL     1      -4.516 -11.621  -4.412  0.00  0.00    +0.005 A 
ATOM     14  C   UNL     1      -6.127  -9.590  -5.432  0.00  0.00    +0.000 A 
ATOM     15  C   UNL     1      -5.465 -11.906  -5.394  0.00  0.00    +0.000 A 
ATOM     16  C   UNL     1      -6.268 -10.890  -5.906  0.00  0.00    +0.000 A 
ENDBRANCH  10  11
ENDBRANCH   1  10
TORSDOF 2
ENDMDL
MODEL 8
REMARK VINA RESULT:    -5.213      3.955      4.943
REMARK INTER + INTRA:          -5.960
REMARK INTER:                  -5.836
REMARK INTRA:                  -0.123
REMARK UNBOUND:                -0.137
REMARK  Name = 1550473
REMARK  2 active torsions:
REMARK  status: ('A' for Active; 'I' for Inactive)
REMARK    1  A    between atoms: N_1  and  C_4
REMARK    2  A    between atoms: C_4  and  C_5
REMARK                            x       y       z     vdW  Elec       q    Type
REMARK                         _______ _______ _______ _____ _____    ______ ____
ROOT
ATOM      1  N   UNL     1      -5.193  -9.820  -3.478  0.00  0.00    -0.354 N 
ATOM      2  N   UNL     1      -4.733  -8.346  -1.751  0.00  0.00    -0.372 N 
ATOM      3  N   UNL     1      -3.066  -9.735  -2.497  0.00  0.00    -0.372 N 
ATOM      4  C   UNL     1      -4.331  -9.311  -2.587  0.00  0.00    +0.166 C 
ATOM      5  H   UNL     1      -6.146  -9.477  -3.475  0.00  0.00    +0.163 HD
ATOM      6  H   UNL     1      -4.105  -7.941  -1.071  0.00  0.00    +0.159 HD
ATOM      7  H   UNL     1      -5.675  -7.973  -1.781  0.00  0.00    +0.159 HD
ATOM      8  H   UNL     1      -2.702 -10.465  -3.095  0.00  0.00    +0.159 HD
ATOM      9  H   UNL     1      -2.425  -9.349  -1.815  0.00  0.00    +0.159 HD
ENDROOT
BRANCH   1  10
ATOM     10  C   UNL     1      -4.840 -10.836  -4.468  0.00  0.00    +0.151 C 
BRANCH  10  11
ATOM     11  C   UNL     1      -5.867 -10.829  -5.566  0.00  0.00    -0.028 A 
ATOM     12  C   UNL     1      -6.114 -11.987  -6.318  0.00  0.00    +0.005 A 
ATOM     13  C   UNL     1      -6.601  -9.668  -5.857  0.00  0.00    +0.005 A 
ATOM     14  C   UNL     1      -7.090 -11.989  -7.318  0.00  0.00    +0.000 A 
ATOM     15  C   UNL     1      -7.573  -9.674  -6.857  0.00  0.00    +0.000 A 
ATOM     16  C   UNL     1      -7.819 -10.836  -7.585  0.00  0.00    +0.000 A 
ENDBRANCH  10  11
ENDBRANCH   1  10
TORSDOF 2
ENDMDL
MODEL 9
REMARK VINA RESULT:    -5.130      4.076      4.705
REMARK INTER + INTRA:          -5.866
REMARK INTER:                  -5.740
REMARK INTRA:                  -0.126
REMARK UNBOUND:                -0.137
REMARK  Name = 1550473
REMARK  2 active torsions:
REMARK  status: ('A' for Active; 'I' for Inactive)
REMARK    1  A    between atoms: N_1  and  C_4
REMARK    2  A    between atoms: C_4  and  C_5
REMARK                            x       y       z     vdW  Elec       q    Type
REMARK                         _______ _______ _______ _____ _____    ______ ____
ROOT
ATOM      1  N   UNL     1      -4.001 -10.799  -3.536  0.00  0.00    -0.354 N 
ATOM      2  N   UNL     1      -3.963  -8.935  -2.161  0.00  0.00    -0.372 N 
ATOM      3  N   UNL     1      -2.006 -10.069  -2.547  0.00  0.00    -0.372 N 
ATOM      4  C   UNL     1      -3.321  -9.947  -2.757  0.00  0.00    +0.166 C 
ATOM      5  H   UNL     1      -5.002 -10.670  -3.630  0.00  0.00    +0.163 HD
ATOM      6  H   UNL     1      -3.476  -8.274  -1.571  0.00  0.00    +0.159 HD
ATOM      7  H   UNL     1      -4.956  -8.782  -2.294  0.00  0.00    +0.159 HD
ATOM      8  H   UNL     1      -1.464 -10.814  -2.962  0.00  0.00    +0.159 HD
ATOM      9  H   UNL     1      -1.503  -9.424  -1.950  0.00  0.00    +0.159 HD
ENDROOT
BRANCH   1  10
ATOM     10  C   UNL     1      -3.387 -11.902  -4.272  0.00  0.00    +0.151 C 
BRANCH  10  11
ATOM     11  C   UNL     1      -4.295 -12.305  -5.401  0.00  0.00    -0.028 A 
ATOM     12  C   UNL     1      -5.563 -11.721  -5.538  0.00  0.00    +0.005 A 
ATOM     13  C   UNL     1      -3.892 -13.267  -6.340  0.00  0.00    +0.005 A 
ATOM     14  C   UNL     1      -6.395 -12.073  -6.603  0.00  0.00    +0.000 A 
ATOM     15  C   UNL     1      -4.726 -13.617  -7.401  0.00  0.00    +0.000 A 
ATOM     16  C   UNL     1      -5.976 -13.018  -7.534  0.00  0.00    +0.000 A 
ENDBRANCH  10  11
ENDBRANCH   1  10
TORSDOF 2
ENDMDL
