MODEL 1
REMARK VINA RESULT:    -5.983      0.000      0.000
REMARK INTER + INTRA:          -6.837
REMARK INTER:                  -6.683
REMARK INTRA:                  -0.154
REMARK UNBOUND:                -0.154
REMARK  Name = 1550473
REMARK  2 active torsions:
REMARK  status: ('A' for Active; 'I' for Inactive)
REMARK    1  A    between atoms: N_1  and  C_4
REMARK    2  A    between atoms: C_4  and  C_5
REMARK                            x       y       z     vdW  Elec       q    Type
REMARK                         _______ _______ _______ _____ _____    ______ ____
ROOT
ATOM      1  N   UNL     1       6.774   7.328  -2.573  0.00  0.00    -0.354 N 
ATOM      2  N   UNL     1       5.463   6.804  -0.738  0.00  0.00    -0.372 N 
ATOM      3  N   UNL     1       7.509   5.792  -0.964  0.00  0.00    -0.372 N 
ATOM      4  C   UNL     1       6.593   6.643  -1.437  0.00  0.00    +0.166 C 
ATOM      5  H   UNL     1       6.029   7.935  -2.894  0.00  0.00    +0.163 HD
ATOM      6  H   UNL     1       5.299   6.303   0.125  0.00  0.00    +0.159 HD
ATOM      7  H   UNL     1       4.738   7.446  -1.037  0.00  0.00    +0.159 HD
ATOM      8  H   UNL     1       8.381   5.621  -1.447  0.00  0.00    +0.159 HD
ATOM      9  H   UNL     1       7.359   5.272  -0.108  0.00  0.00    +0.159 HD
ENDROOT
BRANCH   1  10
ATOM     10  C   UNL     1       7.992   7.266  -3.380  0.00  0.00    +0.151 C 
BRANCH  10  11
ATOM     11  C   UNL     1       7.678   6.598  -4.691  0.00  0.00    -0.028 A 
ATOM     12  C   UNL     1       6.382   6.651  -5.225  0.00  0.00    +0.005 A 
ATOM     13  C   UNL     1       8.674   5.916  -5.407  0.00  0.00    +0.005 A 
ATOM     14  C   UNL     1       6.097   6.057  -6.457  0.00  0.00    +0.000 A 
ATOM     15  C   UNL     1       8.385   5.323  -6.636  0.00  0.00    +0.000 A 
ATOM     16  C   UNL     1       7.098   5.396  -7.162  0.00  0.00    +0.000 A 
ENDBRANCH  10  11
ENDBRANCH   1  10
TORSDOF 2
ENDMDL
MODEL 2
REMARK VINA RESULT:    -5.875      3.736      5.422
REMARK INTER + INTRA:          -6.716
REMARK INTER:                  -6.549
REMARK INTRA:                  -0.168
REMARK UNBOUND:                -0.154
REMARK  Name = 1550473
REMARK  2 active torsions:
REMARK  status: ('A' for Active; 'I' for Inactive)
REMARK    1  A    between atoms: N_1  and  C_4
REMARK    2  A    between atoms: C_4  and  C_5
REMARK                            x       y       z     vdW  Elec       q    Type
REMARK                         _______ _______ _______ _____ _____    ______ ____
ROOT
ATOM      1  N   UNL     1       7.628   7.056  -8.082  0.00  0.00    -0.354 N 
ATOM      2  N   UNL     1       8.563   8.818  -9.258  0.00  0.00    -0.372 N 
ATOM      3  N   UNL     1       6.374   8.970  -8.588  0.00  0.00    -0.372 N 
ATOM      4  C   UNL     1       7.513   8.271  -8.635  0.00  0.00    +0.166 C 
ATOM      5  H   UNL     1       8.510   6.565  -8.179  0.00  0.00    +0.163 HD
ATOM      6  H   UNL     1       8.508   9.735  -9.682  0.00  0.00    +0.159 HD
ATOM      7  H   UNL     1       9.457   8.345  -9.313  0.00  0.00    +0.159 HD
ATOM      8  H   UNL     1       5.543   8.610  -8.137  0.00  0.00    +0.159 HD
ATOM      9  H   UNL     1       6.295   9.884  -9.015  0.00  0.00    +0.159 HD
ENDROOT
BRANCH   1  10
ATOM     10  C   UNL     1       6.561   6.393  -7.335  0.00  0.00    +0.151 C 
BRANCH  10  11
ATOM     11  C   UNL     1       6.812   6.568  -5.862  0.00  0.00    -0.028 A 
ATOM     12  C   UNL     1       8.117   6.516  -5.351  0.00  0.00    +0.005 A 
ATOM     13  C   UNL     1       5.749   6.791  -4.973  0.00  0.00    +0.005 A 
ATOM     14  C   UNL     1       8.353   6.708  -3.988  0.00  0.00    +0.000 A 
ATOM     15  C   UNL     1       5.989   6.982  -3.613  0.00  0.00    +0.000 A 
ATOM     16  C   UNL     1       7.291   6.942  -3.121  0.00  0.00    +0.000 A 
ENDBRANCH  10  11
ENDBRANCH   1  10
TORSDOF 2
ENDMDL
MODEL 3
REMARK VINA RESULT:    -5.633      2.108      3.144
REMARK INTER + INTRA:          -6.446
REMARK INTER:                  -6.339
REMARK INTRA:                  -0.107
REMARK UNBOUND:                -0.154
REMARK  Name = 1550473
REMARK  2 active torsions:
REMARK  status: ('A' for Active; 'I' for Inactive)
REMARK    1  A    between atoms: N_1  and  C_4
REMARK    2  A    between atoms: C_4  and  C_5
REMARK                            x       y       z     vdW  Elec       q    Type
REMARK                         _______ _______ _______ _____ _____    ______ ____
ROOT
ATOM      1  N   UNL     1       6.343   8.575  -0.639  0.00  0.00    -0.354 N 
ATOM      2  N   UNL     1       6.835  10.389   0.714  0.00  0.00    -0.372 N 
ATOM      3  N   UNL     1       7.381   8.282   1.441  0.00  0.00    -0.372 N 
ATOM      4  C   UNL     1       6.850   9.068   0.498  0.00  0.00    +0.166 C 
ATOM      5  H   UNL     1       5.928   9.220  -1.301  0.00  0.00    +0.163 HD
ATOM      6  H   UNL     1       7.214  10.790   1.561  0.00  0.00    +0.159 HD
ATOM      7  H   UNL     1       6.461  11.036   0.030  0.00  0.00    +0.159 HD
ATOM      8  H   UNL     1       7.417   7.276   1.342  0.00  0.00    +0.159 HD
ATOM      9  H   UNL     1       7.754   8.664   2.301  0.00  0.00    +0.159 HD
ENDROOT
BRANCH   1  10
ATOM     10  C   UNL     1       6.359   7.157  -0.995  0.00  0.00    +0.151 C 
BRANCH  10  11
ATOM     11  C   UNL     1       6.612   7.024  -2.471  0.00  0.00    -0.028 A 
ATOM     12  C   UNL     1       7.918   6.875  -2.960  0.00  0.00    +0.005 A 
ATOM     13  C   UNL     1       5.548   7.039  -3.387  0.00  0.00    +0.005 A 
ATOM     14  C   UNL     1       8.151   6.721  -4.328  0.00  0.00    +0.000 A 
ATOM     15  C   UNL     1       5.785   6.886  -4.753  0.00  0.00    +0.000 A 
ATOM     16  C   UNL     1       7.086   6.725  -5.223  0.00  0.00    +0.000 A 
ENDBRANCH  10  11
ENDBRANCH   1  10
TORSDOF 2
ENDMDL
MODEL 4
REMARK VINA RESULT:    -5.624      2.573      4.030
REMARK INTER + INTRA:          -6.436
REMARK INTER:                  -6.302
REMARK INTRA:                  -0.134
REMARK UNBOUND:                -0.154
REMARK  Name = 1550473
REMARK  2 active torsions:
REMARK  status: ('A' for Active; 'I' for Inactive)
REMARK    1  A    between atoms: N_1  and  C_4
REMARK    2  A    between atoms: C_4  and  C_5
REMARK                            x       y       z     vdW  Elec       q    Type
REMARK                         _______ _______ _______ _____ _____    ______ ____
ROOT
ATOM      1  N   UNL     1       7.229   6.159   1.174  0.00  0.00    -0.354 N 
ATOM      2  N   UNL     1       6.261   5.310   3.099  0.00  0.00    -0.372 N 
ATOM      3  N   UNL     1       8.227   4.394   2.350  0.00  0.00    -0.372 N 
ATOM      4  C   UNL     1       7.247   5.291   2.195  0.00  0.00    +0.166 C 
ATOM      5  H   UNL     1       6.443   6.793   1.096  0.00  0.00    +0.163 HD
ATOM      6  H   UNL     1       6.249   4.670   3.882  0.00  0.00    +0.159 HD
ATOM      7  H   UNL     1       5.500   5.976   3.044  0.00  0.00    +0.159 HD
ATOM      8  H   UNL     1       8.997   4.324   1.699  0.00  0.00    +0.159 HD
ATOM      9  H   UNL     1       8.227   3.737   3.120  0.00  0.00    +0.159 HD
ENDROOT
BRANCH   1  10
ATOM     10  C   UNL     1       8.283   6.257   0.165  0.00  0.00    +0.151 C 
BRANCH  10  11
ATOM     11  C   UNL     1       7.658   6.552  -1.170  0.00  0.00    -0.028 A 
ATOM     12  C   UNL     1       8.444   6.585  -2.332  0.00  0.00    +0.005 A 
ATOM     13  C   UNL     1       6.281   6.795  -1.282  0.00  0.00    +0.005 A 
ATOM     14  C   UNL     1       7.859   6.829  -3.577  0.00  0.00    +0.000 A 
ATOM     15  C   UNL     1       5.701   7.041  -2.527  0.00  0.00    +0.000 A 
ATOM     16  C   UNL     1       6.490   7.055  -3.674  0.00  0.00    +0.000 A 
ENDBRANCH  10  11
ENDBRANCH   1  10
TORSDOF 2
ENDMDL
MODEL 5
REMARK VINA RESULT:    -5.607      3.305      4.657
REMARK INTER + INTRA:          -6.417
REMARK INTER:                  -6.271
REMARK INTRA:                  -0.145
REMARK UNBOUND:                -0.154
REMARK  Name = 1550473
REMARK  2 active torsions:
REMARK  status: ('A' for Active; 'I' for Inactive)
REMARK    1  A    between atoms: N_1  and  C_4
REMARK    2  A    between atoms: C_4  and  C_5
REMARK                            x       y       z     vdW  Elec       q    Type
REMARK                         _______ _______ _______ _____ _____    ______ ____
ROOT
ATOM      1  N   UNL     1       7.601   5.655  -0.414  0.00  0.00    -0.354 N 
ATOM      2  N   UNL     1       8.401   4.175   1.178  0.00  0.00    -0.372 N 
ATOM      3  N   UNL     1       6.666   5.571   1.734  0.00  0.00    -0.372 N 
ATOM      4  C   UNL     1       7.549   5.145   0.824  0.00  0.00    +0.166 C 
ATOM      5  H   UNL     1       8.313   5.310  -1.047  0.00  0.00    +0.163 HD
ATOM      6  H   UNL     1       8.383   3.768   2.104  0.00  0.00    +0.159 HD
ATOM      7  H   UNL     1       9.081   3.800   0.528  0.00  0.00    +0.159 HD
ATOM      8  H   UNL     1       6.000   6.304   1.531  0.00  0.00    +0.159 HD
ATOM      9  H   UNL     1       6.641   5.184   2.669  0.00  0.00    +0.159 HD
ENDROOT
BRANCH   1  10
ATOM     10  C   UNL     1       6.683   6.676  -0.916  0.00  0.00    +0.151 C 
BRANCH  10  11
ATOM     11  C   UNL     1       7.474   7.884  -1.336  0.00  0.00    -0.028 A 
ATOM     12  C   UNL     1       7.605   8.983  -0.475  0.00  0.00    +0.005 A 
ATOM     13  C   UNL     1       8.100   7.933  -2.591  0.00  0.00    +0.005 A 
ATOM     14  C   UNL     1       8.365  10.093  -0.852  0.00  0.00    +0.000 A 
ATOM     15  C   UNL     1       8.857   9.043  -2.964  0.00  0.00    +0.000 A 
ATOM     16  C   UNL     1       8.992  10.122  -2.094  0.00  0.00    +0.000 A 
ENDBRANCH  10  11
ENDBRANCH   1  10
TORSDOF 2
ENDMDL
MODEL 6
REMARK VINA RESULT:    -5.520      2.729      5.590
REMARK INTER + INTRA:          -6.320
REMARK INTER:                  -6.179
REMARK INTRA:                  -0.141
REMARK UNBOUND:                -0.154
REMARK  Name = 1550473
REMARK  2 active torsions:
REMARK  status: ('A' for Active; 'I' for Inactive)
REMARK    1  A    between atoms: N_1  and  C_4
REMARK    2  A    between atoms: C_4  and  C_5
REMARK                            x       y       z     vdW  Elec       q    Type
REMARK                         _______ _______ _______ _____ _____    ______ ____
ROOT
ATOM      1  N   UNL     1       7.416   7.105  -3.488  0.00  0.00    -0.354 N 
ATOM      2  N   UNL     1       7.481   7.076  -5.803  0.00  0.00    -0.372 N 
ATOM      3  N   UNL     1       5.472   6.745  -4.746  0.00  0.00    -0.372 N 
ATOM      4  C   UNL     1       6.787   6.975  -4.663  0.00  0.00    +0.166 C 
ATOM      5  H   UNL     1       8.420   7.248  -3.493  0.00  0.00    +0.163 HD
ATOM      6  H   UNL     1       7.033   6.985  -6.705  0.00  0.00    +0.159 HD
ATOM      7  H   UNL     1       8.476   7.265  -5.806  0.00  0.00    +0.159 HD
ATOM      8  H   UNL     1       4.892   6.652  -3.922  0.00  0.00    +0.159 HD
ATOM      9  H   UNL     1       5.007   6.640  -5.639  0.00  0.00    +0.159 HD
ENDROOT
BRANCH   1  10
ATOM     10  C   UNL     1       6.743   7.065  -2.191  0.00  0.00    +0.151 C 
BRANCH  10  11
ATOM     11  C   UNL     1       7.150   8.271  -1.389  0.00  0.00    -0.028 A 
ATOM     12  C   UNL     1       8.283   9.016  -1.749  0.00  0.00    +0.005 A 
ATOM     13  C   UNL     1       6.403   8.677  -0.273  0.00  0.00    +0.005 A 
ATOM     14  C   UNL     1       8.644  10.153  -1.022  0.00  0.00    +0.000 A 
ATOM     15  C   UNL     1       6.767   9.813   0.450  0.00  0.00    +0.000 A 
ATOM     16  C   UNL     1       7.886  10.552   0.074  0.00  0.00    +0.000 A 
ENDBRANCH  10  11
ENDBRANCH   1  10
TORSDOF 2
ENDMDL
MODEL 7
REMARK VINA RESULT:    -5.405      1.524      2.361
REMARK INTER + INTRA:          -6.192
REMARK INTER:                  -6.053
REMARK INTRA:                  -0.139
REMARK UNBOUND:                -0.154
REMARK  Name = 1550473
REMARK  2 active torsions:
REMARK  status: ('A' for Active; 'I' for Inactive)
REMARK    1  A    between atoms: N_1  and  C_4
REMARK    2  A    between atoms: C_4  and  C_5
REMARK                            x       y       z     vdW  Elec       q    Type
REMARK                         _______ _______ _______ _____ _____    ______ ____
ROOT
ATOM      1  N   UNL     1       7.256   6.470  -0.998  0.00  0.00    -0.354 N 
ATOM      2  N   UNL     1       8.667   6.382   0.837  0.00  0.00    -0.372 N 
ATOM      3  N   UNL     1       7.087   8.043   0.731  0.00  0.00    -0.372 N 
ATOM      4  C   UNL     1       7.659   6.968   0.179  0.00  0.00    +0.166 C 
ATOM      5  H   UNL     1       7.750   5.671  -1.378  0.00  0.00    +0.163 HD
ATOM      6  H   UNL     1       8.991   6.733   1.728  0.00  0.00    +0.159 HD
ATOM      7  H   UNL     1       9.129   5.556   0.477  0.00  0.00    +0.159 HD
ATOM      8  H   UNL     1       6.326   8.535   0.283  0.00  0.00    +0.159 HD
ATOM      9  H   UNL     1       7.405   8.416   1.617  0.00  0.00    +0.159 HD
ENDROOT
BRANCH   1  10
ATOM     10  C   UNL     1       6.133   7.002  -1.769  0.00  0.00    +0.151 C 
BRANCH  10  11
ATOM     11  C   UNL     1       6.533   7.099  -3.215  0.00  0.00    -0.028 A 
ATOM     12  C   UNL     1       5.606   6.819  -4.230  0.00  0.00    +0.005 A 
ATOM     13  C   UNL     1       7.835   7.476  -3.578  0.00  0.00    +0.005 A 
ATOM     14  C   UNL     1       5.968   6.938  -5.574  0.00  0.00    +0.000 A 
ATOM     15  C   UNL     1       8.193   7.592  -4.921  0.00  0.00    +0.000 A 
ATOM     16  C   UNL     1       7.258   7.326  -5.918  0.00  0.00    +0.000 A 
ENDBRANCH  10  11
ENDBRANCH   1  10
TORSDOF 2
ENDMDL
MODEL 8
REMARK VINA RESULT:    -5.291      5.660      6.555
REMARK INTER + INTRA:          -6.065
REMARK INTER:                  -5.934
REMARK INTRA:                  -0.130
REMARK UNBOUND:                -0.154
REMARK  Name = 1550473
REMARK  2 active torsions:
REMARK  status: ('A' for Active; 'I' for Inactive)
REMARK    1  A    between atoms: N_1  and  C_4
REMARK    2  A    between atoms: C_4  and  C_5
REMARK                            x       y       z     vdW  Elec       q    Type
REMARK                         _______ _______ _______ _____ _____    ______ ____
ROOT
ATOM      1  N   UNL     1       7.305   7.009   2.803  0.00  0.00    -0.354 N 
ATOM      2  N   UNL     1       5.963   6.571   4.639  0.00  0.00    -0.372 N 
ATOM      3  N   UNL     1       8.210   6.130   4.777  0.00  0.00    -0.372 N 
ATOM      4  C   UNL     1       7.170   6.572   4.062  0.00  0.00    +0.166 C 
ATOM      5  H   UNL     1       6.473   7.303   2.304  0.00  0.00    +0.163 HD
ATOM      6  H   UNL     1       5.831   6.250   5.589  0.00  0.00    +0.159 HD
ATOM      7  H   UNL     1       5.140   6.908   4.154  0.00  0.00    +0.159 HD
ATOM      8  H   UNL     1       9.147   6.099   4.398  0.00  0.00    +0.159 HD
ATOM      9  H   UNL     1       8.097   5.794   5.726  0.00  0.00    +0.159 HD
ENDROOT
BRANCH   1  10
ATOM     10  C   UNL     1       8.584   7.101   2.101  0.00  0.00    +0.151 C 
BRANCH  10  11
ATOM     11  C   UNL     1       8.508   8.206   1.084  0.00  0.00    -0.028 A 
ATOM     12  C   UNL     1       9.561   8.417   0.182  0.00  0.00    +0.005 A 
ATOM     13  C   UNL     1       7.382   9.041   1.012  0.00  0.00    +0.005 A 
ATOM     14  C   UNL     1       9.478   9.424  -0.783  0.00  0.00    +0.000 A 
ATOM     15  C   UNL     1       7.303  10.045   0.047  0.00  0.00    +0.000 A 
ATOM     16  C   UNL     1       8.350  10.235  -0.851  0.00  0.00    +0.000 A 
ENDBRANCH  10  11
ENDBRANCH   1  10
TORSDOF 2
ENDMDL
MODEL 9
REMARK VINA RESULT:    -5.254      2.919      5.404
REMARK INTER + INTRA:          -6.022
REMARK INTER:                  -5.919
REMARK INTRA:                  -0.104
REMARK UNBOUND:                -0.154
REMARK  Name = 1550473
REMARK  2 active torsions:
REMARK  status: ('A' for Active; 'I' for Inactive)
REMARK    1  A    between atoms: N_1  and  C_4
REMARK    2  A    between atoms: C_4  and  C_5
REMARK                            x       y       z     vdW  Elec       q    Type
REMARK                         _______ _______ _______ _____ _____    ______ ____
ROOT
ATOM      1  N   UNL     1       8.259   7.795  -4.672  0.00  0.00    -0.354 N 
ATOM      2  N   UNL     1       8.162   7.784  -6.986  0.00  0.00    -0.372 N 
ATOM      3  N   UNL     1       8.201   5.780  -5.868  0.00  0.00    -0.372 N 
ATOM      4  C   UNL     1       8.208   7.117  -5.826  0.00  0.00    +0.166 C 
ATOM      5  H   UNL     1       8.292   8.807  -4.709  0.00  0.00    +0.163 HD
ATOM      6  H   UNL     1       8.120   7.299  -7.873  0.00  0.00    +0.159 HD
ATOM      7  H   UNL     1       8.149   8.796  -7.019  0.00  0.00    +0.159 HD
ATOM      8  H   UNL     1       8.240   5.218  -5.028  0.00  0.00    +0.159 HD
ATOM      9  H   UNL     1       8.171   5.277  -6.746  0.00  0.00    +0.159 HD
ENDROOT
BRANCH   1  10
ATOM     10  C   UNL     1       8.258   7.164  -3.353  0.00  0.00    +0.151 C 
BRANCH  10  11
ATOM     11  C   UNL     1       8.103   8.228  -2.301  0.00  0.00    -0.028 A 
ATOM     12  C   UNL     1       7.142   8.093  -1.288  0.00  0.00    +0.005 A 
ATOM     13  C   UNL     1       8.919   9.369  -2.308  0.00  0.00    +0.005 A 
ATOM     14  C   UNL     1       7.019   9.066  -0.293  0.00  0.00    +0.000 A 
ATOM     15  C   UNL     1       8.792  10.339  -1.313  0.00  0.00    +0.000 A 
ATOM     16  C   UNL     1       7.844  10.186  -0.305  0.00  0.00    +0.000 A 
ENDBRANCH  10  11
ENDBRANCH   1  10
TORSDOF 2
ENDMDL
