MODEL 1
REMARK VINA RESULT:    -5.526      0.000      0.000
REMARK INTER + INTRA:          -6.315
REMARK INTER:                  -6.172
REMARK INTRA:                  -0.142
REMARK UNBOUND:                -0.142
REMARK  Name = 1550473
REMARK  2 active torsions:
REMARK  status: ('A' for Active; 'I' for Inactive)
REMARK    1  A    between atoms: N_1  and  C_4
REMARK    2  A    between atoms: C_4  and  C_5
REMARK                            x       y       z     vdW  Elec       q    Type
REMARK                         _______ _______ _______ _____ _____    ______ ____
ROOT
ATOM      1  N   UNL     1      -3.244  14.322  12.232  0.00  0.00    -0.354 N 
ATOM      2  N   UNL     1      -2.711  16.411  11.385  0.00  0.00    -0.372 N 
ATOM      3  N   UNL     1      -3.377  14.762   9.934  0.00  0.00    -0.372 N 
ATOM      4  C   UNL     1      -3.114  15.150  11.187  0.00  0.00    +0.166 C 
ATOM      5  H   UNL     1      -3.000  14.668  13.153  0.00  0.00    +0.163 HD
ATOM      6  H   UNL     1      -2.607  17.059  10.616  0.00  0.00    +0.159 HD
ATOM      7  H   UNL     1      -2.512  16.767  12.312  0.00  0.00    +0.159 HD
ATOM      8  H   UNL     1      -3.680  13.822   9.717  0.00  0.00    +0.159 HD
ATOM      9  H   UNL     1      -3.268  15.393   9.150  0.00  0.00    +0.159 HD
ENDROOT
BRANCH   1  10
ATOM     10  C   UNL     1      -3.728  12.947  12.131  0.00  0.00    +0.151 C 
BRANCH  10  11
ATOM     11  C   UNL     1      -4.896  12.767  13.062  0.00  0.00    -0.028 A 
ATOM     12  C   UNL     1      -5.329  13.826  13.873  0.00  0.00    +0.005 A 
ATOM     13  C   UNL     1      -5.576  11.542  13.133  0.00  0.00    +0.005 A 
ATOM     14  C   UNL     1      -6.432  13.669  14.716  0.00  0.00    +0.000 A 
ATOM     15  C   UNL     1      -6.677  11.389  13.977  0.00  0.00    +0.000 A 
ATOM     16  C   UNL     1      -7.106  12.453  14.766  0.00  0.00    +0.000 A 
ENDBRANCH  10  11
ENDBRANCH   1  10
TORSDOF 2
ENDMDL
MODEL 2
REMARK VINA RESULT:    -5.500     15.336     16.483
REMARK INTER + INTRA:          -6.285
REMARK INTER:                  -6.158
REMARK INTRA:                  -0.128
REMARK UNBOUND:                -0.142
REMARK  Name = 1550473
REMARK  2 active torsions:
REMARK  status: ('A' for Active; 'I' for Inactive)
REMARK    1  A    between atoms: N_1  and  C_4
REMARK    2  A    between atoms: C_4  and  C_5
REMARK                            x       y       z     vdW  Elec       q    Type
REMARK                         _______ _______ _______ _____ _____    ______ ____
ROOT
ATOM      1  N   UNL     1     -13.925   0.229   8.368  0.00  0.00    -0.354 N 
ATOM      2  N   UNL     1     -16.049   1.065   7.976  0.00  0.00    -0.372 N 
ATOM      3  N   UNL     1     -15.673  -0.159   9.880  0.00  0.00    -0.372 N 
ATOM      4  C   UNL     1     -15.203   0.371   8.746  0.00  0.00    +0.166 C 
ATOM      5  H   UNL     1     -13.638   0.629   7.482  0.00  0.00    +0.163 HD
ATOM      6  H   UNL     1     -17.018   1.192   8.237  0.00  0.00    +0.159 HD
ATOM      7  H   UNL     1     -15.749   1.503   7.114  0.00  0.00    +0.159 HD
ATOM      8  H   UNL     1     -15.087  -0.698  10.503  0.00  0.00    +0.159 HD
ATOM      9  H   UNL     1     -16.642  -0.052  10.153  0.00  0.00    +0.159 HD
ENDROOT
BRANCH   1  10
ATOM     10  C   UNL     1     -12.910  -0.462   9.161  0.00  0.00    +0.151 C 
BRANCH  10  11
ATOM     11  C   UNL     1     -11.549   0.027   8.750  0.00  0.00    -0.028 A 
ATOM     12  C   UNL     1     -10.391  -0.578   9.259  0.00  0.00    +0.005 A 
ATOM     13  C   UNL     1     -11.411   1.092   7.846  0.00  0.00    +0.005 A 
ATOM     14  C   UNL     1      -9.126  -0.143   8.854  0.00  0.00    +0.000 A 
ATOM     15  C   UNL     1     -10.146   1.523   7.444  0.00  0.00    +0.000 A 
ATOM     16  C   UNL     1      -9.005   0.904   7.947  0.00  0.00    +0.000 A 
ENDBRANCH  10  11
ENDBRANCH   1  10
TORSDOF 2
ENDMDL
MODEL 3
REMARK VINA RESULT:    -5.296     11.867     12.826
REMARK INTER + INTRA:          -6.057
REMARK INTER:                  -5.900
REMARK INTRA:                  -0.157
REMARK UNBOUND:                -0.142
REMARK  Name = 1550473
REMARK  2 active torsions:
REMARK  status: ('A' for Active; 'I' for Inactive)
REMARK    1  A    between atoms: N_1  and  C_4
REMARK    2  A    between atoms: C_4  and  C_5
REMARK                            x       y       z     vdW  Elec       q    Type
REMARK                         _______ _______ _______ _____ _____    ______ ____
ROOT
ATOM      1  N   UNL     1      -7.869   9.350   2.467  0.00  0.00    -0.354 N 
ATOM      2  N   UNL     1      -8.570  11.259   3.574  0.00  0.00    -0.372 N 
ATOM      3  N   UNL     1      -8.198   9.348   4.788  0.00  0.00    -0.372 N 
ATOM      4  C   UNL     1      -8.208   9.971   3.605  0.00  0.00    +0.166 C 
ATOM      5  H   UNL     1      -7.926   9.870   1.599  0.00  0.00    +0.163 HD
ATOM      6  H   UNL     1      -8.828  11.756   4.417  0.00  0.00    +0.159 HD
ATOM      7  H   UNL     1      -8.582  11.789   2.712  0.00  0.00    +0.159 HD
ATOM      8  H   UNL     1      -7.940   8.374   4.878  0.00  0.00    +0.159 HD
ATOM      9  H   UNL     1      -8.464   9.824   5.640  0.00  0.00    +0.159 HD
ENDROOT
BRANCH   1  10
ATOM     10  C   UNL     1      -7.409   7.964   2.399  0.00  0.00    +0.151 C 
BRANCH  10  11
ATOM     11  C   UNL     1      -8.577   7.073   2.079  0.00  0.00    -0.028 A 
ATOM     12  C   UNL     1      -9.203   6.330   3.090  0.00  0.00    +0.005 A 
ATOM     13  C   UNL     1      -9.067   6.973   0.768  0.00  0.00    +0.005 A 
ATOM     14  C   UNL     1     -10.308   5.525   2.799  0.00  0.00    +0.000 A 
ATOM     15  C   UNL     1     -10.170   6.168   0.481  0.00  0.00    +0.000 A 
ATOM     16  C   UNL     1     -10.791   5.446   1.497  0.00  0.00    +0.000 A 
ENDBRANCH  10  11
ENDBRANCH   1  10
TORSDOF 2
ENDMDL
MODEL 4
REMARK VINA RESULT:    -5.229     15.947     17.178
REMARK INTER + INTRA:          -5.983
REMARK INTER:                  -5.833
REMARK INTRA:                  -0.150
REMARK UNBOUND:                -0.142
REMARK  Name = 1550473
REMARK  2 active torsions:
REMARK  status: ('A' for Active; 'I' for Inactive)
REMARK    1  A    between atoms: N_1  and  C_4
REMARK    2  A    between atoms: C_4  and  C_5
REMARK                            x       y       z     vdW  Elec       q    Type
REMARK                         _______ _______ _______ _____ _____    ______ ____
ROOT
ATOM      1  N   UNL     1     -13.871   0.305   8.505  0.00  0.00    -0.354 N 
ATOM      2  N   UNL     1     -15.763  -0.017   9.803  0.00  0.00    -0.372 N 
ATOM      3  N   UNL     1     -15.437  -1.354   7.966  0.00  0.00    -0.372 N 
ATOM      4  C   UNL     1     -15.012  -0.355   8.747  0.00  0.00    +0.166 C 
ATOM      5  H   UNL     1     -13.620   1.073   9.117  0.00  0.00    +0.163 HD
ATOM      6  H   UNL     1     -16.626  -0.499  10.013  0.00  0.00    +0.159 HD
ATOM      7  H   UNL     1     -15.486   0.720  10.439  0.00  0.00    +0.159 HD
ATOM      8  H   UNL     1     -14.919  -1.653   7.151  0.00  0.00    +0.159 HD
ATOM      9  H   UNL     1     -16.304  -1.841   8.154  0.00  0.00    +0.159 HD
ENDROOT
BRANCH   1  10
ATOM     10  C   UNL     1     -12.955  -0.020   7.414  0.00  0.00    +0.151 C 
BRANCH  10  11
ATOM     11  C   UNL     1     -11.632  -0.440   7.992  0.00  0.00    -0.028 A 
ATOM     12  C   UNL     1     -10.707  -1.149   7.212  0.00  0.00    +0.005 A 
ATOM     13  C   UNL     1     -11.295  -0.128   9.318  0.00  0.00    +0.005 A 
ATOM     14  C   UNL     1      -9.465  -1.513   7.739  0.00  0.00    +0.000 A 
ATOM     15  C   UNL     1     -10.055  -0.494   9.841  0.00  0.00    +0.000 A 
ATOM     16  C   UNL     1      -9.140  -1.185   9.051  0.00  0.00    +0.000 A 
ENDBRANCH  10  11
ENDBRANCH   1  10
TORSDOF 2
ENDMDL
MODEL 5
REMARK VINA RESULT:    -5.214     16.105     17.399
REMARK INTER + INTRA:          -5.966
REMARK INTER:                  -5.830
REMARK INTRA:                  -0.136
REMARK UNBOUND:                -0.142
REMARK  Name = 1550473
REMARK  2 active torsions:
REMARK  status: ('A' for Active; 'I' for Inactive)
REMARK    1  A    between atoms: N_1  and  C_4
REMARK    2  A    between atoms: C_4  and  C_5
REMARK                            x       y       z     vdW  Elec       q    Type
REMARK                         _______ _______ _______ _____ _____    ______ ____
ROOT
ATOM      1  N   UNL     1      -7.511  -3.132   6.889  0.00  0.00    -0.354 N 
ATOM      2  N   UNL     1      -6.940  -4.175   4.902  0.00  0.00    -0.372 N 
ATOM      3  N   UNL     1      -8.190  -5.330   6.441  0.00  0.00    -0.372 N 
ATOM      4  C   UNL     1      -7.552  -4.208   6.092  0.00  0.00    +0.166 C 
ATOM      5  H   UNL     1      -6.985  -2.323   6.580  0.00  0.00    +0.163 HD
ATOM      6  H   UNL     1      -6.956  -4.970   4.277  0.00  0.00    +0.159 HD
ATOM      7  H   UNL     1      -6.454  -3.349   4.575  0.00  0.00    +0.159 HD
ATOM      8  H   UNL     1      -8.667  -5.421   7.328  0.00  0.00    +0.159 HD
ATOM      9  H   UNL     1      -8.208  -6.140   5.834  0.00  0.00    +0.159 HD
ENDROOT
BRANCH   1  10
ATOM     10  C   UNL     1      -8.190  -3.046   8.181  0.00  0.00    +0.151 C 
BRANCH  10  11
ATOM     11  C   UNL     1      -8.991  -1.774   8.231  0.00  0.00    -0.028 A 
ATOM     12  C   UNL     1      -9.434  -1.165   7.048  0.00  0.00    +0.005 A 
ATOM     13  C   UNL     1      -9.315  -1.176   9.458  0.00  0.00    +0.005 A 
ATOM     14  C   UNL     1     -10.204  -0.000   7.095  0.00  0.00    +0.000 A 
ATOM     15  C   UNL     1     -10.083  -0.013   9.501  0.00  0.00    +0.000 A 
ATOM     16  C   UNL     1     -10.529   0.574   8.319  0.00  0.00    +0.000 A 
ENDBRANCH  10  11
ENDBRANCH   1  10
TORSDOF 2
ENDMDL
MODEL 6
REMARK VINA RESULT:    -5.199     11.585     12.605
REMARK INTER + INTRA:          -5.949
REMARK INTER:                  -5.770
REMARK INTRA:                  -0.179
REMARK UNBOUND:                -0.142
REMARK  Name = 1550473
REMARK  2 active torsions:
REMARK  status: ('A' for Active; 'I' for Inactive)
REMARK    1  A    between atoms: N_1  and  C_4
REMARK    2  A    between atoms: C_4  and  C_5
REMARK                            x       y       z     vdW  Elec       q    Type
REMARK                         _______ _______ _______ _____ _____    ______ ____
ROOT
ATOM      1  N   UNL     1      -7.127   7.891   3.393  0.00  0.00    -0.354 N 
ATOM      2  N   UNL     1      -6.238   8.676   5.383  0.00  0.00    -0.372 N 
ATOM      3  N   UNL     1      -8.372   9.288   4.803  0.00  0.00    -0.372 N 
ATOM      4  C   UNL     1      -7.254   8.615   4.513  0.00  0.00    +0.166 C 
ATOM      5  H   UNL     1      -6.242   7.428   3.217  0.00  0.00    +0.163 HD
ATOM      6  H   UNL     1      -6.306   9.211   6.238  0.00  0.00    +0.159 HD
ATOM      7  H   UNL     1      -5.372   8.175   5.226  0.00  0.00    +0.159 HD
ATOM      8  H   UNL     1      -9.173   9.288   4.185  0.00  0.00    +0.159 HD
ATOM      9  H   UNL     1      -8.455   9.839   5.649  0.00  0.00    +0.159 HD
ENDROOT
BRANCH   1  10
ATOM     10  C   UNL     1      -8.192   7.716   2.407  0.00  0.00    +0.151 C 
BRANCH  10  11
ATOM     11  C   UNL     1      -8.786   6.344   2.565  0.00  0.00    -0.028 A 
ATOM     12  C   UNL     1      -9.946   6.154   3.330  0.00  0.00    +0.005 A 
ATOM     13  C   UNL     1      -8.197   5.230   1.948  0.00  0.00    +0.005 A 
ATOM     14  C   UNL     1     -10.516   4.884   3.452  0.00  0.00    +0.000 A 
ATOM     15  C   UNL     1      -8.768   3.963   2.073  0.00  0.00    +0.000 A 
ATOM     16  C   UNL     1      -9.929   3.791   2.823  0.00  0.00    +0.000 A 
ENDBRANCH  10  11
ENDBRANCH   1  10
TORSDOF 2
ENDMDL
MODEL 7
REMARK VINA RESULT:    -5.123     17.243     18.472
REMARK INTER + INTRA:          -5.865
REMARK INTER:                  -5.684
REMARK INTRA:                  -0.181
REMARK UNBOUND:                -0.142
REMARK  Name = 1550473
REMARK  2 active torsions:
REMARK  status: ('A' for Active; 'I' for Inactive)
REMARK    1  A    between atoms: N_1  and  C_4
REMARK    2  A    between atoms: C_4  and  C_5
REMARK                            x       y       z     vdW  Elec       q    Type
REMARK                         _______ _______ _______ _____ _____    ______ ____
ROOT
ATOM      1  N   UNL     1      -5.818  -5.196   6.507  0.00  0.00    -0.354 N 
ATOM      2  N   UNL     1      -4.171  -4.583   4.999  0.00  0.00    -0.372 N 
ATOM      3  N   UNL     1      -6.361  -4.110   4.503  0.00  0.00    -0.372 N 
ATOM      4  C   UNL     1      -5.463  -4.633   5.344  0.00  0.00    +0.166 C 
ATOM      5  H   UNL     1      -5.093  -5.602   7.087  0.00  0.00    +0.163 HD
ATOM      6  H   UNL     1      -3.872  -4.161   4.130  0.00  0.00    +0.159 HD
ATOM      7  H   UNL     1      -3.444  -4.948   5.602  0.00  0.00    +0.159 HD
ATOM      8  H   UNL     1      -7.352  -4.121   4.702  0.00  0.00    +0.159 HD
ATOM      9  H   UNL     1      -6.082  -3.694   3.623  0.00  0.00    +0.159 HD
ENDROOT
BRANCH   1  10
ATOM     10  C   UNL     1      -7.193  -5.254   7.001  0.00  0.00    +0.151 C 
BRANCH  10  11
ATOM     11  C   UNL     1      -7.432  -4.091   7.925  0.00  0.00    -0.028 A 
ATOM     12  C   UNL     1      -6.729  -3.987   9.134  0.00  0.00    +0.005 A 
ATOM     13  C   UNL     1      -8.355  -3.088   7.594  0.00  0.00    +0.005 A 
ATOM     14  C   UNL     1      -6.928  -2.892   9.979  0.00  0.00    +0.000 A 
ATOM     15  C   UNL     1      -8.552  -1.997   8.441  0.00  0.00    +0.000 A 
ATOM     16  C   UNL     1      -7.837  -1.898   9.631  0.00  0.00    +0.000 A 
ENDBRANCH  10  11
ENDBRANCH   1  10
TORSDOF 2
ENDMDL
MODEL 8
REMARK VINA RESULT:    -4.887     14.703     15.472
REMARK INTER + INTRA:          -5.601
REMARK INTER:                  -5.464
REMARK INTRA:                  -0.137
REMARK UNBOUND:                -0.142
REMARK  Name = 1550473
REMARK  2 active torsions:
REMARK  status: ('A' for Active; 'I' for Inactive)
REMARK    1  A    between atoms: N_1  and  C_4
REMARK    2  A    between atoms: C_4  and  C_5
REMARK                            x       y       z     vdW  Elec       q    Type
REMARK                         _______ _______ _______ _____ _____    ______ ____
ROOT
ATOM      1  N   UNL     1      -5.675  -0.967   7.848  0.00  0.00    -0.354 N 
ATOM      2  N   UNL     1      -4.032  -0.358   6.333  0.00  0.00    -0.372 N 
ATOM      3  N   UNL     1      -5.083  -2.381   6.076  0.00  0.00    -0.372 N 
ATOM      4  C   UNL     1      -4.941  -1.242   6.761  0.00  0.00    +0.166 C 
ATOM      5  H   UNL     1      -5.498  -0.099   8.341  0.00  0.00    +0.163 HD
ATOM      6  H   UNL     1      -3.466  -0.537   5.515  0.00  0.00    +0.159 HD
ATOM      7  H   UNL     1      -3.890   0.529   6.801  0.00  0.00    +0.159 HD
ATOM      8  H   UNL     1      -5.748  -3.092   6.350  0.00  0.00    +0.159 HD
ATOM      9  H   UNL     1      -4.518  -2.583   5.261  0.00  0.00    +0.159 HD
ENDROOT
BRANCH   1  10
ATOM     10  C   UNL     1      -6.729  -1.838   8.365  0.00  0.00    +0.151 C 
BRANCH  10  11
ATOM     11  C   UNL     1      -7.968  -1.021   8.606  0.00  0.00    -0.028 A 
ATOM     12  C   UNL     1      -8.260   0.085   7.795  0.00  0.00    +0.005 A 
ATOM     13  C   UNL     1      -8.857  -1.350   9.641  0.00  0.00    +0.005 A 
ATOM     14  C   UNL     1      -9.426   0.827   7.999  0.00  0.00    +0.000 A 
ATOM     15  C   UNL     1     -10.019  -0.606   9.843  0.00  0.00    +0.000 A 
ATOM     16  C   UNL     1     -10.305   0.480   9.020  0.00  0.00    +0.000 A 
ENDBRANCH  10  11
ENDBRANCH   1  10
TORSDOF 2
ENDMDL
MODEL 9
REMARK VINA RESULT:    -4.886      1.547      2.282
REMARK INTER + INTRA:          -5.600
REMARK INTER:                  -5.480
REMARK INTRA:                  -0.120
REMARK UNBOUND:                -0.142
REMARK  Name = 1550473
REMARK  2 active torsions:
REMARK  status: ('A' for Active; 'I' for Inactive)
REMARK    1  A    between atoms: N_1  and  C_4
REMARK    2  A    between atoms: C_4  and  C_5
REMARK                            x       y       z     vdW  Elec       q    Type
REMARK                         _______ _______ _______ _____ _____    ______ ____
ROOT
ATOM      1  N   UNL     1      -4.179  14.963  12.683  0.00  0.00    -0.354 N 
ATOM      2  N   UNL     1      -2.698  16.065  11.284  0.00  0.00    -0.372 N 
ATOM      3  N   UNL     1      -2.621  13.775  11.398  0.00  0.00    -0.372 N 
ATOM      4  C   UNL     1      -3.175  14.924  11.797  0.00  0.00    +0.166 C 
ATOM      5  H   UNL     1      -4.535  15.868  12.967  0.00  0.00    +0.163 HD
ATOM      6  H   UNL     1      -1.943  16.067  10.611  0.00  0.00    +0.159 HD
ATOM      7  H   UNL     1      -3.086  16.966  11.535  0.00  0.00    +0.159 HD
ATOM      8  H   UNL     1      -2.931  12.879  11.752  0.00  0.00    +0.159 HD
ATOM      9  H   UNL     1      -1.857  13.757  10.734  0.00  0.00    +0.159 HD
ENDROOT
BRANCH   1  10
ATOM     10  C   UNL     1      -4.806  13.776  13.261  0.00  0.00    +0.151 C 
BRANCH  10  11
ATOM     11  C   UNL     1      -5.452  14.148  14.567  0.00  0.00    -0.028 A 
ATOM     12  C   UNL     1      -4.788  14.984  15.476  0.00  0.00    +0.005 A 
ATOM     13  C   UNL     1      -6.730  13.672  14.898  0.00  0.00    +0.005 A 
ATOM     14  C   UNL     1      -5.401  15.354  16.676  0.00  0.00    +0.000 A 
ATOM     15  C   UNL     1      -7.337  14.043  16.097  0.00  0.00    +0.000 A 
ATOM     16  C   UNL     1      -6.673  14.886  16.985  0.00  0.00    +0.000 A 
ENDBRANCH  10  11
ENDBRANCH   1  10
TORSDOF 2
ENDMDL
