MODEL 1
REMARK VINA RESULT:    -4.633      0.000      0.000
REMARK INTER + INTRA:          -5.317
REMARK INTER:                  -5.174
REMARK INTRA:                  -0.143
REMARK UNBOUND:                -0.143
REMARK  Name = 1550473
REMARK  2 active torsions:
REMARK  status: ('A' for Active; 'I' for Inactive)
REMARK    1  A    between atoms: N_1  and  C_4
REMARK    2  A    between atoms: C_4  and  C_5
REMARK                            x       y       z     vdW  Elec       q    Type
REMARK                         _______ _______ _______ _____ _____    ______ ____
ROOT
ATOM      1  N   UNL     1       5.327   8.409  -5.688  0.00  0.00    -0.354 N 
ATOM      2  N   UNL     1       3.089   8.780  -5.224  0.00  0.00    -0.372 N 
ATOM      3  N   UNL     1       3.680   8.040  -7.314  0.00  0.00    -0.372 N 
ATOM      4  C   UNL     1       4.047   8.407  -6.081  0.00  0.00    +0.166 C 
ATOM      5  H   UNL     1       5.542   8.726  -4.750  0.00  0.00    +0.163 HD
ATOM      6  H   UNL     1       2.114   8.785  -5.490  0.00  0.00    +0.159 HD
ATOM      7  H   UNL     1       3.302   9.053  -4.272  0.00  0.00    +0.159 HD
ATOM      8  H   UNL     1       4.355   7.754  -8.010  0.00  0.00    +0.159 HD
ATOM      9  H   UNL     1       2.710   8.050  -7.603  0.00  0.00    +0.159 HD
ENDROOT
BRANCH   1  10
ATOM     10  C   UNL     1       6.441   7.969  -6.527  0.00  0.00    +0.151 C 
BRANCH  10  11
ATOM     11  C   UNL     1       7.457   9.075  -6.614  0.00  0.00    -0.028 A 
ATOM     12  C   UNL     1       7.562  10.027  -5.590  0.00  0.00    +0.005 A 
ATOM     13  C   UNL     1       8.321   9.172  -7.715  0.00  0.00    +0.005 A 
ATOM     14  C   UNL     1       8.525  11.036  -5.656  0.00  0.00    +0.000 A 
ATOM     15  C   UNL     1       9.281  10.181  -7.778  0.00  0.00    +0.000 A 
ATOM     16  C   UNL     1       9.385  11.112  -6.747  0.00  0.00    +0.000 A 
ENDBRANCH  10  11
ENDBRANCH   1  10
TORSDOF 2
ENDMDL
MODEL 2
REMARK VINA RESULT:    -4.534     24.413     25.881
REMARK INTER + INTRA:          -5.207
REMARK INTER:                  -5.026
REMARK INTRA:                  -0.181
REMARK UNBOUND:                -0.143
REMARK  Name = 1550473
REMARK  2 active torsions:
REMARK  status: ('A' for Active; 'I' for Inactive)
REMARK    1  A    between atoms: N_1  and  C_4
REMARK    2  A    between atoms: C_4  and  C_5
REMARK                            x       y       z     vdW  Elec       q    Type
REMARK                         _______ _______ _______ _____ _____    ______ ____
ROOT
ATOM      1  N   UNL     1      -0.216  -9.172  12.092  0.00  0.00    -0.354 N 
ATOM      2  N   UNL     1      -1.147  -7.347  13.173  0.00  0.00    -0.372 N 
ATOM      3  N   UNL     1       1.082  -7.297  12.632  0.00  0.00    -0.372 N 
ATOM      4  C   UNL     1      -0.085  -7.949  12.625  0.00  0.00    +0.166 C 
ATOM      5  H   UNL     1      -1.121  -9.625  12.146  0.00  0.00    +0.163 HD
ATOM      6  H   UNL     1      -1.079  -6.423  13.580  0.00  0.00    +0.159 HD
ATOM      7  H   UNL     1      -2.061  -7.784  13.184  0.00  0.00    +0.159 HD
ATOM      8  H   UNL     1       1.923  -7.699  12.239  0.00  0.00    +0.159 HD
ATOM      9  H   UNL     1       1.173  -6.377  13.044  0.00  0.00    +0.159 HD
ENDROOT
BRANCH   1  10
ATOM     10  C   UNL     1       0.865  -9.893  11.424  0.00  0.00    +0.151 C 
BRANCH  10  11
ATOM     11  C   UNL     1       0.669  -9.803   9.936  0.00  0.00    -0.028 A 
ATOM     12  C   UNL     1       1.396  -8.874   9.176  0.00  0.00    +0.005 A 
ATOM     13  C   UNL     1      -0.239 -10.648   9.278  0.00  0.00    +0.005 A 
ATOM     14  C   UNL     1       1.236  -8.811   7.790  0.00  0.00    +0.000 A 
ATOM     15  C   UNL     1      -0.396 -10.581   7.894  0.00  0.00    +0.000 A 
ATOM     16  C   UNL     1       0.343  -9.665   7.150  0.00  0.00    +0.000 A 
ENDBRANCH  10  11
ENDBRANCH   1  10
TORSDOF 2
ENDMDL
MODEL 3
REMARK VINA RESULT:    -4.395      1.400      1.897
REMARK INTER + INTRA:          -5.052
REMARK INTER:                  -4.928
REMARK INTRA:                  -0.123
REMARK UNBOUND:                -0.143
REMARK  Name = 1550473
REMARK  2 active torsions:
REMARK  status: ('A' for Active; 'I' for Inactive)
REMARK    1  A    between atoms: N_1  and  C_4
REMARK    2  A    between atoms: C_4  and  C_5
REMARK                            x       y       z     vdW  Elec       q    Type
REMARK                         _______ _______ _______ _____ _____    ______ ____
ROOT
ATOM      1  N   UNL     1       5.413   9.569  -5.783  0.00  0.00    -0.354 N 
ATOM      2  N   UNL     1       3.267   8.779  -5.418  0.00  0.00    -0.372 N 
ATOM      3  N   UNL     1       4.871   7.322  -6.170  0.00  0.00    -0.372 N 
ATOM      4  C   UNL     1       4.532   8.559  -5.794  0.00  0.00    +0.166 C 
ATOM      5  H   UNL     1       5.087  10.490  -5.517  0.00  0.00    +0.163 HD
ATOM      6  H   UNL     1       2.581   8.037  -5.412  0.00  0.00    +0.159 HD
ATOM      7  H   UNL     1       2.954   9.691  -5.108  0.00  0.00    +0.159 HD
ATOM      8  H   UNL     1       5.809   7.091  -6.471  0.00  0.00    +0.159 HD
ATOM      9  H   UNL     1       4.196   6.568  -6.182  0.00  0.00    +0.159 HD
ENDROOT
BRANCH   1  10
ATOM     10  C   UNL     1       6.828   9.423  -6.123  0.00  0.00    +0.151 C 
BRANCH  10  11
ATOM     11  C   UNL     1       7.504  10.760  -5.995  0.00  0.00    -0.028 A 
ATOM     12  C   UNL     1       6.752  11.917  -5.742  0.00  0.00    +0.005 A 
ATOM     13  C   UNL     1       8.897  10.876  -6.120  0.00  0.00    +0.005 A 
ATOM     14  C   UNL     1       7.383  13.154  -5.594  0.00  0.00    +0.000 A 
ATOM     15  C   UNL     1       9.523  12.114  -5.972  0.00  0.00    +0.000 A 
ATOM     16  C   UNL     1       8.766  13.252  -5.706  0.00  0.00    +0.000 A 
ENDBRANCH  10  11
ENDBRANCH   1  10
TORSDOF 2
ENDMDL
MODEL 4
REMARK VINA RESULT:    -4.345     17.366     19.125
REMARK INTER + INTRA:          -4.995
REMARK INTER:                  -4.887
REMARK INTRA:                  -0.108
REMARK UNBOUND:                -0.143
REMARK  Name = 1550473
REMARK  2 active torsions:
REMARK  status: ('A' for Active; 'I' for Inactive)
REMARK    1  A    between atoms: N_1  and  C_4
REMARK    2  A    between atoms: C_4  and  C_5
REMARK                            x       y       z     vdW  Elec       q    Type
REMARK                         _______ _______ _______ _____ _____    ______ ____
ROOT
ATOM      1  N   UNL     1      -2.673  10.179   8.581  0.00  0.00    -0.354 N 
ATOM      2  N   UNL     1      -3.128   9.035   6.619  0.00  0.00    -0.372 N 
ATOM      3  N   UNL     1      -2.220  11.138   6.492  0.00  0.00    -0.372 N 
ATOM      4  C   UNL     1      -2.670  10.127   7.242  0.00  0.00    +0.166 C 
ATOM      5  H   UNL     1      -3.055   9.391   9.092  0.00  0.00    +0.163 HD
ATOM      6  H   UNL     1      -3.136   8.966   5.610  0.00  0.00    +0.159 HD
ATOM      7  H   UNL     1      -3.467   8.231   7.133  0.00  0.00    +0.159 HD
ATOM      8  H   UNL     1      -1.866  11.993   6.901  0.00  0.00    +0.159 HD
ATOM      9  H   UNL     1      -2.230  11.093   5.480  0.00  0.00    +0.159 HD
ENDROOT
BRANCH   1  10
ATOM     10  C   UNL     1      -2.146  11.299   9.358  0.00  0.00    +0.151 C 
BRANCH  10  11
ATOM     11  C   UNL     1      -1.958  10.863  10.784  0.00  0.00    -0.028 A 
ATOM     12  C   UNL     1      -0.809  11.236  11.497  0.00  0.00    +0.005 A 
ATOM     13  C   UNL     1      -2.928  10.082  11.431  0.00  0.00    +0.005 A 
ATOM     14  C   UNL     1      -0.647  10.856  12.832  0.00  0.00    +0.000 A 
ATOM     15  C   UNL     1      -2.763   9.704  12.763  0.00  0.00    +0.000 A 
ATOM     16  C   UNL     1      -1.624  10.093  13.464  0.00  0.00    +0.000 A 
ENDBRANCH  10  11
ENDBRANCH   1  10
TORSDOF 2
ENDMDL
MODEL 5
REMARK VINA RESULT:    -4.272     13.283     14.547
REMARK INTER + INTRA:          -4.914
REMARK INTER:                  -4.794
REMARK INTRA:                  -0.120
REMARK UNBOUND:                -0.143
REMARK  Name = 1550473
REMARK  2 active torsions:
REMARK  status: ('A' for Active; 'I' for Inactive)
REMARK    1  A    between atoms: N_1  and  C_4
REMARK    2  A    between atoms: C_4  and  C_5
REMARK                            x       y       z     vdW  Elec       q    Type
REMARK                         _______ _______ _______ _____ _____    ______ ____
ROOT
ATOM      1  N   UNL     1       7.017  19.221   2.947  0.00  0.00    -0.354 N 
ATOM      2  N   UNL     1       8.930  20.445   3.404  0.00  0.00    -0.372 N 
ATOM      3  N   UNL     1       8.259  20.209   1.223  0.00  0.00    -0.372 N 
ATOM      4  C   UNL     1       8.056  19.950   2.519  0.00  0.00    +0.166 C 
ATOM      5  H   UNL     1       6.936  19.035   3.940  0.00  0.00    +0.163 HD
ATOM      6  H   UNL     1       9.721  21.001   3.111  0.00  0.00    +0.159 HD
ATOM      7  H   UNL     1       8.821  20.296   4.400  0.00  0.00    +0.159 HD
ATOM      8  H   UNL     1       7.640  19.860   0.504  0.00  0.00    +0.159 HD
ATOM      9  H   UNL     1       9.052  20.755   0.909  0.00  0.00    +0.159 HD
ENDROOT
BRANCH   1  10
ATOM     10  C   UNL     1       5.979  18.682   2.070  0.00  0.00    +0.151 C 
BRANCH  10  11
ATOM     11  C   UNL     1       4.674  18.650   2.815  0.00  0.00    -0.028 A 
ATOM     12  C   UNL     1       4.649  18.412   4.197  0.00  0.00    +0.005 A 
ATOM     13  C   UNL     1       3.459  18.862   2.146  0.00  0.00    +0.005 A 
ATOM     14  C   UNL     1       3.439  18.412   4.895  0.00  0.00    +0.000 A 
ATOM     15  C   UNL     1       2.252  18.860   2.847  0.00  0.00    +0.000 A 
ATOM     16  C   UNL     1       2.243  18.637   4.221  0.00  0.00    +0.000 A 
ENDBRANCH  10  11
ENDBRANCH   1  10
TORSDOF 2
ENDMDL
MODEL 6
REMARK VINA RESULT:    -4.183      2.281      3.242
REMARK INTER + INTRA:          -4.815
REMARK INTER:                  -4.667
REMARK INTRA:                  -0.147
REMARK UNBOUND:                -0.143
REMARK  Name = 1550473
REMARK  2 active torsions:
REMARK  status: ('A' for Active; 'I' for Inactive)
REMARK    1  A    between atoms: N_1  and  C_4
REMARK    2  A    between atoms: C_4  and  C_5
REMARK                            x       y       z     vdW  Elec       q    Type
REMARK                         _______ _______ _______ _____ _____    ______ ____
ROOT
ATOM      1  N   UNL     1       4.570   7.309  -6.289  0.00  0.00    -0.354 N 
ATOM      2  N   UNL     1       3.390   9.002  -5.236  0.00  0.00    -0.372 N 
ATOM      3  N   UNL     1       3.118   8.698  -7.495  0.00  0.00    -0.372 N 
ATOM      4  C   UNL     1       3.700   8.326  -6.349  0.00  0.00    +0.166 C 
ATOM      5  H   UNL     1       5.000   7.096  -5.396  0.00  0.00    +0.163 HD
ATOM      6  H   UNL     1       2.734   9.771  -5.251  0.00  0.00    +0.159 HD
ATOM      7  H   UNL     1       3.786   8.757  -4.337  0.00  0.00    +0.159 HD
ATOM      8  H   UNL     1       3.314   8.233  -8.371  0.00  0.00    +0.159 HD
ATOM      9  H   UNL     1       2.468   9.473  -7.531  0.00  0.00    +0.159 HD
ENDROOT
BRANCH   1  10
ATOM     10  C   UNL     1       4.934   6.475  -7.432  0.00  0.00    +0.151 C 
BRANCH  10  11
ATOM     11  C   UNL     1       6.431   6.477  -7.585  0.00  0.00    -0.028 A 
ATOM     12  C   UNL     1       7.142   5.270  -7.646  0.00  0.00    +0.005 A 
ATOM     13  C   UNL     1       7.142   7.683  -7.676  0.00  0.00    +0.005 A 
ATOM     14  C   UNL     1       8.528   5.271  -7.818  0.00  0.00    +0.000 A 
ATOM     15  C   UNL     1       8.527   7.680  -7.847  0.00  0.00    +0.000 A 
ATOM     16  C   UNL     1       9.219   6.474  -7.920  0.00  0.00    +0.000 A 
ENDBRANCH  10  11
ENDBRANCH   1  10
TORSDOF 2
ENDMDL
MODEL 7
REMARK VINA RESULT:    -4.170     25.825     27.033
REMARK INTER + INTRA:          -4.800
REMARK INTER:                  -4.645
REMARK INTRA:                  -0.155
REMARK UNBOUND:                -0.143
REMARK  Name = 1550473
REMARK  2 active torsions:
REMARK  status: ('A' for Active; 'I' for Inactive)
REMARK    1  A    between atoms: N_1  and  C_4
REMARK    2  A    between atoms: C_4  and  C_5
REMARK                            x       y       z     vdW  Elec       q    Type
REMARK                         _______ _______ _______ _____ _____    ______ ____
ROOT
ATOM      1  N   UNL     1      -7.144  -9.220   6.105  0.00  0.00    -0.354 N 
ATOM      2  N   UNL     1      -6.384  -9.085   3.922  0.00  0.00    -0.372 N 
ATOM      3  N   UNL     1      -8.300 -10.270   4.358  0.00  0.00    -0.372 N 
ATOM      4  C   UNL     1      -7.283  -9.528   4.809  0.00  0.00    +0.166 C 
ATOM      5  H   UNL     1      -6.334  -8.679   6.387  0.00  0.00    +0.163 HD
ATOM      6  H   UNL     1      -6.464  -9.299   2.936  0.00  0.00    +0.159 HD
ATOM      7  H   UNL     1      -5.601  -8.506   4.200  0.00  0.00    +0.159 HD
ATOM      8  H   UNL     1      -9.009 -10.640   4.977  0.00  0.00    +0.159 HD
ATOM      9  H   UNL     1      -8.391 -10.504   3.377  0.00  0.00    +0.159 HD
ENDROOT
BRANCH   1  10
ATOM     10  C   UNL     1      -8.096  -9.607   7.144  0.00  0.00    +0.151 C 
BRANCH  10  11
ATOM     11  C   UNL     1      -8.652  -8.367   7.788  0.00  0.00    -0.028 A 
ATOM     12  C   UNL     1      -9.527  -7.529   7.080  0.00  0.00    +0.005 A 
ATOM     13  C   UNL     1      -8.313  -8.027   9.106  0.00  0.00    +0.005 A 
ATOM     14  C   UNL     1     -10.067  -6.393   7.687  0.00  0.00    +0.000 A 
ATOM     15  C   UNL     1      -8.854  -6.891   9.708  0.00  0.00    +0.000 A 
ATOM     16  C   UNL     1      -9.733  -6.076   8.999  0.00  0.00    +0.000 A 
ENDBRANCH  10  11
ENDBRANCH   1  10
TORSDOF 2
ENDMDL
MODEL 8
REMARK VINA RESULT:    -4.133     15.078     16.717
REMARK INTER + INTRA:          -4.758
REMARK INTER:                  -4.621
REMARK INTRA:                  -0.138
REMARK UNBOUND:                -0.143
REMARK  Name = 1550473
REMARK  2 active torsions:
REMARK  status: ('A' for Active; 'I' for Inactive)
REMARK    1  A    between atoms: N_1  and  C_4
REMARK    2  A    between atoms: C_4  and  C_5
REMARK                            x       y       z     vdW  Elec       q    Type
REMARK                         _______ _______ _______ _____ _____    ______ ____
ROOT
ATOM      1  N   UNL     1     -10.033   5.405  -0.378  0.00  0.00    -0.354 N 
ATOM      2  N   UNL     1     -11.375   3.654   0.329  0.00  0.00    -0.372 N 
ATOM      3  N   UNL     1      -9.549   4.233   1.593  0.00  0.00    -0.372 N 
ATOM      4  C   UNL     1     -10.308   4.442   0.512  0.00  0.00    +0.166 C 
ATOM      5  H   UNL     1     -10.631   5.493  -1.192  0.00  0.00    +0.163 HD
ATOM      6  H   UNL     1     -11.609   2.922   0.985  0.00  0.00    +0.159 HD
ATOM      7  H   UNL     1     -11.996   3.774  -0.461  0.00  0.00    +0.159 HD
ATOM      8  H   UNL     1      -8.727   4.789   1.786  0.00  0.00    +0.159 HD
ATOM      9  H   UNL     1      -9.761   3.497   2.255  0.00  0.00    +0.159 HD
ENDROOT
BRANCH   1  10
ATOM     10  C   UNL     1      -8.927   6.351  -0.243  0.00  0.00    +0.151 C 
BRANCH  10  11
ATOM     11  C   UNL     1      -8.276   6.539  -1.585  0.00  0.00    -0.028 A 
ATOM     12  C   UNL     1      -7.139   7.351  -1.718  0.00  0.00    +0.005 A 
ATOM     13  C   UNL     1      -8.787   5.904  -2.728  0.00  0.00    +0.005 A 
ATOM     14  C   UNL     1      -6.516   7.502  -2.959  0.00  0.00    +0.000 A 
ATOM     15  C   UNL     1      -8.162   6.058  -3.965  0.00  0.00    +0.000 A 
ATOM     16  C   UNL     1      -7.025   6.855  -4.080  0.00  0.00    +0.000 A 
ENDBRANCH  10  11
ENDBRANCH   1  10
TORSDOF 2
ENDMDL
MODEL 9
REMARK VINA RESULT:    -4.074     13.347     14.506
REMARK INTER + INTRA:          -4.693
REMARK INTER:                  -4.546
REMARK INTRA:                  -0.146
REMARK UNBOUND:                -0.143
REMARK  Name = 1550473
REMARK  2 active torsions:
REMARK  status: ('A' for Active; 'I' for Inactive)
REMARK    1  A    between atoms: N_1  and  C_4
REMARK    2  A    between atoms: C_4  and  C_5
REMARK                            x       y       z     vdW  Elec       q    Type
REMARK                         _______ _______ _______ _____ _____    ______ ____
ROOT
ATOM      1  N   UNL     1       4.056  16.982   5.462  0.00  0.00    -0.354 N 
ATOM      2  N   UNL     1       4.365  14.964   6.557  0.00  0.00    -0.372 N 
ATOM      3  N   UNL     1       4.870  16.912   7.659  0.00  0.00    -0.372 N 
ATOM      4  C   UNL     1       4.429  16.301   6.554  0.00  0.00    +0.166 C 
ATOM      5  H   UNL     1       3.760  16.458   4.647  0.00  0.00    +0.163 HD
ATOM      6  H   UNL     1       4.637  14.424   7.367  0.00  0.00    +0.159 HD
ATOM      7  H   UNL     1       4.025  14.445   5.756  0.00  0.00    +0.159 HD
ATOM      8  H   UNL     1       4.948  17.919   7.719  0.00  0.00    +0.159 HD
ATOM      9  H   UNL     1       5.158  16.388   8.476  0.00  0.00    +0.159 HD
ENDROOT
BRANCH   1  10
ATOM     10  C   UNL     1       4.037  18.441   5.375  0.00  0.00    +0.151 C 
BRANCH  10  11
ATOM     11  C   UNL     1       5.012  18.882   4.319  0.00  0.00    -0.028 A 
ATOM     12  C   UNL     1       6.136  19.647   4.664  0.00  0.00    +0.005 A 
ATOM     13  C   UNL     1       4.821  18.534   2.973  0.00  0.00    +0.005 A 
ATOM     14  C   UNL     1       7.059  20.033   3.688  0.00  0.00    +0.000 A 
ATOM     15  C   UNL     1       5.744  18.922   2.002  0.00  0.00    +0.000 A 
ATOM     16  C   UNL     1       6.864  19.669   2.360  0.00  0.00    +0.000 A 
ENDBRANCH  10  11
ENDBRANCH   1  10
TORSDOF 2
ENDMDL
