MODEL 1
REMARK VINA RESULT:    -6.118      0.000      0.000
REMARK INTER + INTRA:          -6.990
REMARK INTER:                  -6.833
REMARK INTRA:                  -0.156
REMARK UNBOUND:                -0.156
REMARK  Name = 1550473
REMARK  2 active torsions:
REMARK  status: ('A' for Active; 'I' for Inactive)
REMARK    1  A    between atoms: N_1  and  C_4
REMARK    2  A    between atoms: C_4  and  C_5
REMARK                            x       y       z     vdW  Elec       q    Type
REMARK                         _______ _______ _______ _____ _____    ______ ____
ROOT
ATOM      1  N   UNL     1      -7.357   3.403  -5.119  0.00  0.00    -0.354 N 
ATOM      2  N   UNL     1      -8.211   1.378  -4.387  0.00  0.00    -0.372 N 
ATOM      3  N   UNL     1      -5.965   1.786  -4.149  0.00  0.00    -0.372 N 
ATOM      4  C   UNL     1      -7.169   2.202  -4.556  0.00  0.00    +0.166 C 
ATOM      5  H   UNL     1      -8.290   3.646  -5.433  0.00  0.00    +0.163 HD
ATOM      6  H   UNL     1      -8.100   0.466  -3.963  0.00  0.00    +0.159 HD
ATOM      7  H   UNL     1      -9.149   1.642  -4.661  0.00  0.00    +0.159 HD
ATOM      8  H   UNL     1      -5.138   2.358  -4.254  0.00  0.00    +0.159 HD
ATOM      9  H   UNL     1      -5.832   0.873  -3.733  0.00  0.00    +0.159 HD
ENDROOT
BRANCH   1  10
ATOM     10  C   UNL     1      -6.300   4.396  -5.299  0.00  0.00    +0.151 C 
BRANCH  10  11
ATOM     11  C   UNL     1      -5.707   4.238  -6.671  0.00  0.00    -0.028 A 
ATOM     12  C   UNL     1      -4.434   3.671  -6.836  0.00  0.00    +0.005 A 
ATOM     13  C   UNL     1      -6.414   4.648  -7.812  0.00  0.00    +0.005 A 
ATOM     14  C   UNL     1      -3.895   3.497  -8.113  0.00  0.00    +0.000 A 
ATOM     15  C   UNL     1      -5.872   4.473  -9.085  0.00  0.00    +0.000 A 
ATOM     16  C   UNL     1      -4.614   3.895  -9.236  0.00  0.00    +0.000 A 
ENDBRANCH  10  11
ENDBRANCH   1  10
TORSDOF 2
ENDMDL
MODEL 2
REMARK VINA RESULT:    -5.857      4.057      5.315
REMARK INTER + INTRA:          -6.698
REMARK INTER:                  -6.574
REMARK INTRA:                  -0.124
REMARK UNBOUND:                -0.156
REMARK  Name = 1550473
REMARK  2 active torsions:
REMARK  status: ('A' for Active; 'I' for Inactive)
REMARK    1  A    between atoms: N_1  and  C_4
REMARK    2  A    between atoms: C_4  and  C_5
REMARK                            x       y       z     vdW  Elec       q    Type
REMARK                         _______ _______ _______ _____ _____    ______ ____
ROOT
ATOM      1  N   UNL     1      -6.012   3.445 -11.315  0.00  0.00    -0.354 N 
ATOM      2  N   UNL     1      -6.110   2.184 -13.255  0.00  0.00    -0.372 N 
ATOM      3  N   UNL     1      -8.005   3.259 -12.534  0.00  0.00    -0.372 N 
ATOM      4  C   UNL     1      -6.711   2.971 -12.355  0.00  0.00    +0.166 C 
ATOM      5  H   UNL     1      -5.043   3.165 -11.219  0.00  0.00    +0.163 HD
ATOM      6  H   UNL     1      -6.611   1.814 -14.052  0.00  0.00    +0.159 HD
ATOM      7  H   UNL     1      -5.129   1.943 -13.182  0.00  0.00    +0.159 HD
ATOM      8  H   UNL     1      -8.518   3.843 -11.888  0.00  0.00    +0.159 HD
ATOM      9  H   UNL     1      -8.526   2.889 -13.320  0.00  0.00    +0.159 HD
ENDROOT
BRANCH   1  10
ATOM     10  C   UNL     1      -6.558   4.353 -10.308  0.00  0.00    +0.151 C 
BRANCH  10  11
ATOM     11  C   UNL     1      -5.805   4.169  -9.020  0.00  0.00    -0.028 A 
ATOM     12  C   UNL     1      -4.533   3.577  -9.017  0.00  0.00    +0.005 A 
ATOM     13  C   UNL     1      -6.356   4.589  -7.799  0.00  0.00    +0.005 A 
ATOM     14  C   UNL     1      -3.821   3.433  -7.824  0.00  0.00    +0.000 A 
ATOM     15  C   UNL     1      -5.641   4.442  -6.610  0.00  0.00    +0.000 A 
ATOM     16  C   UNL     1      -4.373   3.866  -6.623  0.00  0.00    +0.000 A 
ENDBRANCH  10  11
ENDBRANCH   1  10
TORSDOF 2
ENDMDL
MODEL 3
REMARK VINA RESULT:    -5.755      3.159      4.756
REMARK INTER + INTRA:          -6.584
REMARK INTER:                  -6.436
REMARK INTRA:                  -0.148
REMARK UNBOUND:                -0.156
REMARK  Name = 1550473
REMARK  2 active torsions:
REMARK  status: ('A' for Active; 'I' for Inactive)
REMARK    1  A    between atoms: N_1  and  C_4
REMARK    2  A    between atoms: C_4  and  C_5
REMARK                            x       y       z     vdW  Elec       q    Type
REMARK                         _______ _______ _______ _____ _____    ______ ____
ROOT
ATOM      1  N   UNL     1      -5.189   3.229  -9.221  0.00  0.00    -0.354 N 
ATOM      2  N   UNL     1      -5.897   2.797 -11.383  0.00  0.00    -0.372 N 
ATOM      3  N   UNL     1      -6.724   4.638 -10.292  0.00  0.00    -0.372 N 
ATOM      4  C   UNL     1      -5.934   3.560 -10.284  0.00  0.00    +0.166 C 
ATOM      5  H   UNL     1      -4.633   2.383  -9.267  0.00  0.00    +0.163 HD
ATOM      6  H   UNL     1      -6.445   3.024 -12.202  0.00  0.00    +0.159 HD
ATOM      7  H   UNL     1      -5.306   1.977 -11.443  0.00  0.00    +0.159 HD
ATOM      8  H   UNL     1      -6.802   5.252  -9.492  0.00  0.00    +0.159 HD
ATOM      9  H   UNL     1      -7.290   4.875 -11.098  0.00  0.00    +0.159 HD
ENDROOT
BRANCH   1  10
ATOM     10  C   UNL     1      -5.116   4.022  -7.995  0.00  0.00    +0.151 C 
BRANCH  10  11
ATOM     11  C   UNL     1      -5.550   3.172  -6.833  0.00  0.00    -0.028 A 
ATOM     12  C   UNL     1      -5.514   1.772  -6.923  0.00  0.00    +0.005 A 
ATOM     13  C   UNL     1      -5.993   3.759  -5.638  0.00  0.00    +0.005 A 
ATOM     14  C   UNL     1      -5.889   0.982  -5.833  0.00  0.00    +0.000 A 
ATOM     15  C   UNL     1      -6.366   2.966  -4.553  0.00  0.00    +0.000 A 
ATOM     16  C   UNL     1      -6.312   1.578  -4.650  0.00  0.00    +0.000 A 
ENDBRANCH  10  11
ENDBRANCH   1  10
TORSDOF 2
ENDMDL
MODEL 4
REMARK VINA RESULT:    -5.718     19.880     21.230
REMARK INTER + INTRA:          -6.543
REMARK INTER:                  -6.459
REMARK INTRA:                  -0.084
REMARK UNBOUND:                -0.156
REMARK  Name = 1550473
REMARK  2 active torsions:
REMARK  status: ('A' for Active; 'I' for Inactive)
REMARK    1  A    between atoms: N_1  and  C_4
REMARK    2  A    between atoms: C_4  and  C_5
REMARK                            x       y       z     vdW  Elec       q    Type
REMARK                         _______ _______ _______ _____ _____    ______ ____
ROOT
ATOM      1  N   UNL     1      -2.484  -6.763 -23.460  0.00  0.00    -0.354 N 
ATOM      2  N   UNL     1      -2.278  -5.199 -21.764  0.00  0.00    -0.372 N 
ATOM      3  N   UNL     1      -2.106  -4.501 -23.943  0.00  0.00    -0.372 N 
ATOM      4  C   UNL     1      -2.290  -5.496 -23.069  0.00  0.00    +0.166 C 
ATOM      5  H   UNL     1      -2.588  -7.476 -22.747  0.00  0.00    +0.163 HD
ATOM      6  H   UNL     1      -2.137  -4.252 -21.439  0.00  0.00    +0.159 HD
ATOM      7  H   UNL     1      -2.427  -5.906 -21.055  0.00  0.00    +0.159 HD
ATOM      8  H   UNL     1      -2.098  -4.660 -24.941  0.00  0.00    +0.159 HD
ATOM      9  H   UNL     1      -1.951  -3.548 -23.637  0.00  0.00    +0.159 HD
ENDROOT
BRANCH   1  10
ATOM     10  C   UNL     1      -2.569  -7.183 -24.857  0.00  0.00    +0.151 C 
BRANCH  10  11
ATOM     11  C   UNL     1      -4.008  -7.447 -25.204  0.00  0.00    -0.028 A 
ATOM     12  C   UNL     1      -4.367  -7.839 -26.502  0.00  0.00    +0.005 A 
ATOM     13  C   UNL     1      -5.017  -7.312 -24.238  0.00  0.00    +0.005 A 
ATOM     14  C   UNL     1      -5.701  -8.113 -26.818  0.00  0.00    +0.000 A 
ATOM     15  C   UNL     1      -6.347  -7.586 -24.557  0.00  0.00    +0.000 A 
ATOM     16  C   UNL     1      -6.688  -7.988 -25.846  0.00  0.00    +0.000 A 
ENDBRANCH  10  11
ENDBRANCH   1  10
TORSDOF 2
ENDMDL
MODEL 5
REMARK VINA RESULT:    -5.570     18.306     19.306
REMARK INTER + INTRA:          -6.378
REMARK INTER:                  -6.244
REMARK INTRA:                  -0.134
REMARK UNBOUND:                -0.156
REMARK  Name = 1550473
REMARK  2 active torsions:
REMARK  status: ('A' for Active; 'I' for Inactive)
REMARK    1  A    between atoms: N_1  and  C_4
REMARK    2  A    between atoms: C_4  and  C_5
REMARK                            x       y       z     vdW  Elec       q    Type
REMARK                         _______ _______ _______ _____ _____    ______ ____
ROOT
ATOM      1  N   UNL     1      -2.190 -11.708 -16.669  0.00  0.00    -0.354 N 
ATOM      2  N   UNL     1      -0.662 -10.346 -15.586  0.00  0.00    -0.372 N 
ATOM      3  N   UNL     1      -0.208 -11.041 -17.725  0.00  0.00    -0.372 N 
ATOM      4  C   UNL     1      -1.028 -11.041 -16.670  0.00  0.00    +0.166 C 
ATOM      5  H   UNL     1      -2.754 -11.693 -15.827  0.00  0.00    +0.163 HD
ATOM      6  H   UNL     1       0.207  -9.830 -15.559  0.00  0.00    +0.159 HD
ATOM      7  H   UNL     1      -1.248 -10.295 -14.762  0.00  0.00    +0.159 HD
ATOM      8  H   UNL     1      -0.423 -11.551 -18.572  0.00  0.00    +0.159 HD
ATOM      9  H   UNL     1       0.672 -10.540 -17.713  0.00  0.00    +0.159 HD
ENDROOT
BRANCH   1  10
ATOM     10  C   UNL     1      -2.707 -12.451 -17.817  0.00  0.00    +0.151 C 
BRANCH  10  11
ATOM     11  C   UNL     1      -4.198 -12.269 -17.889  0.00  0.00    -0.028 A 
ATOM     12  C   UNL     1      -5.010 -13.263 -18.456  0.00  0.00    +0.005 A 
ATOM     13  C   UNL     1      -4.806 -11.108 -17.388  0.00  0.00    +0.005 A 
ATOM     14  C   UNL     1      -6.398 -13.107 -18.496  0.00  0.00    +0.000 A 
ATOM     15  C   UNL     1      -6.192 -10.956 -17.431  0.00  0.00    +0.000 A 
ATOM     16  C   UNL     1      -6.987 -11.957 -17.982  0.00  0.00    +0.000 A 
ENDBRANCH  10  11
ENDBRANCH   1  10
TORSDOF 2
ENDMDL
MODEL 6
REMARK VINA RESULT:    -5.548      2.938      4.673
REMARK INTER + INTRA:          -6.353
REMARK INTER:                  -6.189
REMARK INTRA:                  -0.164
REMARK UNBOUND:                -0.156
REMARK  Name = 1550473
REMARK  2 active torsions:
REMARK  status: ('A' for Active; 'I' for Inactive)
REMARK    1  A    between atoms: N_1  and  C_4
REMARK    2  A    between atoms: C_4  and  C_5
REMARK                            x       y       z     vdW  Elec       q    Type
REMARK                         _______ _______ _______ _____ _____    ______ ____
ROOT
ATOM      1  N   UNL     1      -5.711   4.452  -8.680  0.00  0.00    -0.354 N 
ATOM      2  N   UNL     1      -7.205   4.868 -10.400  0.00  0.00    -0.372 N 
ATOM      3  N   UNL     1      -5.756   3.099 -10.593  0.00  0.00    -0.372 N 
ATOM      4  C   UNL     1      -6.213   4.135  -9.881  0.00  0.00    +0.166 C 
ATOM      5  H   UNL     1      -6.079   5.267  -8.204  0.00  0.00    +0.163 HD
ATOM      6  H   UNL     1      -7.606   4.651 -11.302  0.00  0.00    +0.159 HD
ATOM      7  H   UNL     1      -7.603   5.655  -9.901  0.00  0.00    +0.159 HD
ATOM      8  H   UNL     1      -5.005   2.510 -10.260  0.00  0.00    +0.159 HD
ATOM      9  H   UNL     1      -6.137   2.873 -11.504  0.00  0.00    +0.159 HD
ENDROOT
BRANCH   1  10
ATOM     10  C   UNL     1      -4.666   3.686  -8.002  0.00  0.00    +0.151 C 
BRANCH  10  11
ATOM     11  C   UNL     1      -5.266   2.975  -6.821  0.00  0.00    -0.028 A 
ATOM     12  C   UNL     1      -5.694   3.698  -5.697  0.00  0.00    +0.005 A 
ATOM     13  C   UNL     1      -5.415   1.580  -6.821  0.00  0.00    +0.005 A 
ATOM     14  C   UNL     1      -6.279   3.041  -4.612  0.00  0.00    +0.000 A 
ATOM     15  C   UNL     1      -5.999   0.928  -5.735  0.00  0.00    +0.000 A 
ATOM     16  C   UNL     1      -6.433   1.659  -4.632  0.00  0.00    +0.000 A 
ENDBRANCH  10  11
ENDBRANCH   1  10
TORSDOF 2
ENDMDL
MODEL 7
REMARK VINA RESULT:    -5.274     19.913     20.803
REMARK INTER + INTRA:          -6.047
REMARK INTER:                  -5.910
REMARK INTRA:                  -0.137
REMARK UNBOUND:                -0.156
REMARK  Name = 1550473
REMARK  2 active torsions:
REMARK  status: ('A' for Active; 'I' for Inactive)
REMARK    1  A    between atoms: N_1  and  C_4
REMARK    2  A    between atoms: C_4  and  C_5
REMARK                            x       y       z     vdW  Elec       q    Type
REMARK                         _______ _______ _______ _____ _____    ______ ____
ROOT
ATOM      1  N   UNL     1      -8.570 -13.920 -19.052  0.00  0.00    -0.354 N 
ATOM      2  N   UNL     1      -9.078 -15.585 -20.580  0.00  0.00    -0.372 N 
ATOM      3  N   UNL     1      -9.194 -13.392 -21.248  0.00  0.00    -0.372 N 
ATOM      4  C   UNL     1      -8.944 -14.286 -20.285  0.00  0.00    +0.166 C 
ATOM      5  H   UNL     1      -8.425 -14.645 -18.358  0.00  0.00    +0.163 HD
ATOM      6  H   UNL     1      -9.355 -15.891 -21.503  0.00  0.00    +0.159 HD
ATOM      7  H   UNL     1      -8.888 -16.308 -19.898  0.00  0.00    +0.159 HD
ATOM      8  H   UNL     1      -9.117 -12.397 -21.088  0.00  0.00    +0.159 HD
ATOM      9  H   UNL     1      -9.484 -13.679 -22.175  0.00  0.00    +0.159 HD
ENDROOT
BRANCH   1  10
ATOM     10  C   UNL     1      -8.344 -12.535 -18.643  0.00  0.00    +0.151 C 
BRANCH  10  11
ATOM     11  C   UNL     1      -6.927 -12.391 -18.160  0.00  0.00    -0.028 A 
ATOM     12  C   UNL     1      -6.058 -13.492 -18.163  0.00  0.00    +0.005 A 
ATOM     13  C   UNL     1      -6.445 -11.154 -17.705  0.00  0.00    +0.005 A 
ATOM     14  C   UNL     1      -4.733 -13.351 -17.743  0.00  0.00    +0.000 A 
ATOM     15  C   UNL     1      -5.122 -11.017 -17.286  0.00  0.00    +0.000 A 
ATOM     16  C   UNL     1      -4.266 -12.115 -17.307  0.00  0.00    +0.000 A 
ENDBRANCH  10  11
ENDBRANCH   1  10
TORSDOF 2
ENDMDL
MODEL 8
REMARK VINA RESULT:    -5.217     19.646     21.009
REMARK INTER + INTRA:          -5.983
REMARK INTER:                  -5.821
REMARK INTRA:                  -0.162
REMARK UNBOUND:                -0.156
REMARK  Name = 1550473
REMARK  2 active torsions:
REMARK  status: ('A' for Active; 'I' for Inactive)
REMARK    1  A    between atoms: N_1  and  C_4
REMARK    2  A    between atoms: C_4  and  C_5
REMARK                            x       y       z     vdW  Elec       q    Type
REMARK                         _______ _______ _______ _____ _____    ______ ____
ROOT
ATOM      1  N   UNL     1      -1.488  -6.199 -24.068  0.00  0.00    -0.354 N 
ATOM      2  N   UNL     1      -0.906  -4.017 -23.553  0.00  0.00    -0.372 N 
ATOM      3  N   UNL     1      -2.268  -5.171 -22.112  0.00  0.00    -0.372 N 
ATOM      4  C   UNL     1      -1.560  -5.144 -23.246  0.00  0.00    +0.166 C 
ATOM      5  H   UNL     1      -0.958  -6.105 -24.927  0.00  0.00    +0.163 HD
ATOM      6  H   UNL     1      -0.939  -3.206 -22.951  0.00  0.00    +0.159 HD
ATOM      7  H   UNL     1      -0.341  -3.941 -24.390  0.00  0.00    +0.159 HD
ATOM      8  H   UNL     1      -2.789  -5.989 -21.825  0.00  0.00    +0.159 HD
ATOM      9  H   UNL     1      -2.323  -4.365 -21.501  0.00  0.00    +0.159 HD
ENDROOT
BRANCH   1  10
ATOM     10  C   UNL     1      -2.118  -7.491 -23.798  0.00  0.00    +0.151 C 
BRANCH  10  11
ATOM     11  C   UNL     1      -3.461  -7.532 -24.474  0.00  0.00    -0.028 A 
ATOM     12  C   UNL     1      -4.639  -7.405 -23.725  0.00  0.00    +0.005 A 
ATOM     13  C   UNL     1      -3.561  -7.694 -25.864  0.00  0.00    +0.005 A 
ATOM     14  C   UNL     1      -5.886  -7.413 -24.356  0.00  0.00    +0.000 A 
ATOM     15  C   UNL     1      -4.807  -7.703 -26.490  0.00  0.00    +0.000 A 
ATOM     16  C   UNL     1      -5.969  -7.560 -25.736  0.00  0.00    +0.000 A 
ENDBRANCH  10  11
ENDBRANCH   1  10
TORSDOF 2
ENDMDL
MODEL 9
REMARK VINA RESULT:    -4.981      2.422      3.343
REMARK INTER + INTRA:          -5.720
REMARK INTER:                  -5.601
REMARK INTRA:                  -0.119
REMARK UNBOUND:                -0.156
REMARK  Name = 1550473
REMARK  2 active torsions:
REMARK  status: ('A' for Active; 'I' for Inactive)
REMARK    1  A    between atoms: N_1  and  C_4
REMARK    2  A    between atoms: C_4  and  C_5
REMARK                            x       y       z     vdW  Elec       q    Type
REMARK                         _______ _______ _______ _____ _____    ______ ____
ROOT
ATOM      1  N   UNL     1      -9.410   3.197  -4.994  0.00  0.00    -0.354 N 
ATOM      2  N   UNL     1     -11.555   3.959  -5.423  0.00  0.00    -0.372 N 
ATOM      3  N   UNL     1     -11.223   1.714  -5.085  0.00  0.00    -0.372 N 
ATOM      4  C   UNL     1     -10.716   2.949  -5.164  0.00  0.00    +0.166 C 
ATOM      5  H   UNL     1      -9.084   4.151  -5.097  0.00  0.00    +0.163 HD
ATOM      6  H   UNL     1     -12.545   3.803  -5.553  0.00  0.00    +0.159 HD
ATOM      7  H   UNL     1     -11.233   4.918  -5.480  0.00  0.00    +0.159 HD
ATOM      8  H   UNL     1     -10.642   0.908  -4.898  0.00  0.00    +0.159 HD
ATOM      9  H   UNL     1     -12.210   1.536  -5.223  0.00  0.00    +0.159 HD
ENDROOT
BRANCH   1  10
ATOM     10  C   UNL     1      -8.421   2.175  -4.656  0.00  0.00    +0.151 C 
BRANCH  10  11
ATOM     11  C   UNL     1      -7.246   2.302  -5.585  0.00  0.00    -0.028 A 
ATOM     12  C   UNL     1      -6.312   3.335  -5.415  0.00  0.00    +0.005 A 
ATOM     13  C   UNL     1      -7.056   1.389  -6.634  0.00  0.00    +0.005 A 
ATOM     14  C   UNL     1      -5.204   3.436  -6.259  0.00  0.00    +0.000 A 
ATOM     15  C   UNL     1      -5.949   1.494  -7.476  0.00  0.00    +0.000 A 
ATOM     16  C   UNL     1      -5.021   2.516  -7.286  0.00  0.00    +0.000 A 
ENDBRANCH  10  11
ENDBRANCH   1  10
TORSDOF 2
ENDMDL
