MODEL 1
REMARK VINA RESULT:    -6.197      0.000      0.000
REMARK INTER + INTRA:          -7.022
REMARK INTER:                  -6.922
REMARK INTRA:                  -0.100
REMARK UNBOUND:                -0.100
REMARK  Name = 1550473
REMARK  2 active torsions:
REMARK  status: ('A' for Active; 'I' for Inactive)
REMARK    1  A    between atoms: N_1  and  C_4
REMARK    2  A    between atoms: C_4  and  C_5
REMARK                            x       y       z     vdW  Elec       q    Type
REMARK                         _______ _______ _______ _____ _____    ______ ____
ROOT
ATOM      1  N   UNL     1      -0.134   0.497  -8.924  0.00  0.00    -0.354 N 
ATOM      2  N   UNL     1       1.373   2.136  -8.287  0.00  0.00    -0.372 N 
ATOM      3  N   UNL     1       1.599   1.164 -10.353  0.00  0.00    -0.372 N 
ATOM      4  C   UNL     1       0.937   1.254  -9.195  0.00  0.00    +0.166 C 
ATOM      5  H   UNL     1      -0.574   0.591  -8.015  0.00  0.00    +0.163 HD
ATOM      6  H   UNL     1       2.177   2.723  -8.465  0.00  0.00    +0.159 HD
ATOM      7  H   UNL     1       0.904   2.261  -7.398  0.00  0.00    +0.159 HD
ATOM      8  H   UNL     1       1.324   0.514 -11.078  0.00  0.00    +0.159 HD
ATOM      9  H   UNL     1       2.412   1.735 -10.545  0.00  0.00    +0.159 HD
ENDROOT
BRANCH   1  10
ATOM     10  C   UNL     1      -0.722  -0.456  -9.865  0.00  0.00    +0.151 C 
BRANCH  10  11
ATOM     11  C   UNL     1      -1.815  -1.220  -9.172  0.00  0.00    -0.028 A 
ATOM     12  C   UNL     1      -2.891  -0.544  -8.578  0.00  0.00    +0.005 A 
ATOM     13  C   UNL     1      -1.785  -2.622  -9.111  0.00  0.00    +0.005 A 
ATOM     14  C   UNL     1      -3.922  -1.255  -7.960  0.00  0.00    +0.000 A 
ATOM     15  C   UNL     1      -2.816  -3.328  -8.492  0.00  0.00    +0.000 A 
ATOM     16  C   UNL     1      -3.886  -2.645  -7.919  0.00  0.00    +0.000 A 
ENDBRANCH  10  11
ENDBRANCH   1  10
TORSDOF 2
ENDMDL
MODEL 2
REMARK VINA RESULT:    -5.292     13.333     14.188
REMARK INTER + INTRA:          -6.011
REMARK INTER:                  -5.892
REMARK INTRA:                  -0.119
REMARK UNBOUND:                -0.100
REMARK  Name = 1550473
REMARK  2 active torsions:
REMARK  status: ('A' for Active; 'I' for Inactive)
REMARK    1  A    between atoms: N_1  and  C_4
REMARK    2  A    between atoms: C_4  and  C_5
REMARK                            x       y       z     vdW  Elec       q    Type
REMARK                         _______ _______ _______ _____ _____    ______ ____
ROOT
ATOM      1  N   UNL     1       8.532  -9.349 -11.676  0.00  0.00    -0.354 N 
ATOM      2  N   UNL     1       7.111 -10.346 -10.142  0.00  0.00    -0.372 N 
ATOM      3  N   UNL     1       9.374 -10.432  -9.776  0.00  0.00    -0.372 N 
ATOM      4  C   UNL     1       8.351 -10.037 -10.540  0.00  0.00    +0.166 C 
ATOM      5  H   UNL     1       7.716  -9.105 -12.226  0.00  0.00    +0.163 HD
ATOM      6  H   UNL     1       6.943 -10.860  -9.288  0.00  0.00    +0.159 HD
ATOM      7  H   UNL     1       6.295 -10.060 -10.670  0.00  0.00    +0.159 HD
ATOM      8  H   UNL     1      10.335 -10.236 -10.024  0.00  0.00    +0.159 HD
ATOM      9  H   UNL     1       9.227 -10.959  -8.924  0.00  0.00    +0.159 HD
ENDROOT
BRANCH   1  10
ATOM     10  C   UNL     1       9.838  -8.916 -12.170  0.00  0.00    +0.151 C 
BRANCH  10  11
ATOM     11  C   UNL     1       9.639  -7.864 -13.225  0.00  0.00    -0.028 A 
ATOM     12  C   UNL     1       8.446  -7.808 -13.960  0.00  0.00    +0.005 A 
ATOM     13  C   UNL     1      10.639  -6.915 -13.492  0.00  0.00    +0.005 A 
ATOM     14  C   UNL     1       8.249  -6.812 -14.919  0.00  0.00    +0.000 A 
ATOM     15  C   UNL     1      10.438  -5.923 -14.451  0.00  0.00    +0.000 A 
ATOM     16  C   UNL     1       9.243  -5.870 -15.163  0.00  0.00    +0.000 A 
ENDBRANCH  10  11
ENDBRANCH   1  10
TORSDOF 2
ENDMDL
MODEL 3
REMARK VINA RESULT:    -5.243      2.023      2.879
REMARK INTER + INTRA:          -5.956
REMARK INTER:                  -5.802
REMARK INTRA:                  -0.154
REMARK UNBOUND:                -0.100
REMARK  Name = 1550473
REMARK  2 active torsions:
REMARK  status: ('A' for Active; 'I' for Inactive)
REMARK    1  A    between atoms: N_1  and  C_4
REMARK    2  A    between atoms: C_4  and  C_5
REMARK                            x       y       z     vdW  Elec       q    Type
REMARK                         _______ _______ _______ _____ _____    ______ ____
ROOT
ATOM      1  N   UNL     1       0.555   1.895  -8.948  0.00  0.00    -0.354 N 
ATOM      2  N   UNL     1       1.879   2.675  -7.215  0.00  0.00    -0.372 N 
ATOM      3  N   UNL     1       2.832   2.342  -9.276  0.00  0.00    -0.372 N 
ATOM      4  C   UNL     1       1.749   2.299  -8.493  0.00  0.00    +0.166 C 
ATOM      5  H   UNL     1      -0.220   1.856  -8.296  0.00  0.00    +0.163 HD
ATOM      6  H   UNL     1       2.767   2.987  -6.845  0.00  0.00    +0.159 HD
ATOM      7  H   UNL     1       1.092   2.679  -6.578  0.00  0.00    +0.159 HD
ATOM      8  H   UNL     1       2.801   2.066 -10.248  0.00  0.00    +0.159 HD
ATOM      9  H   UNL     1       3.731   2.641  -8.920  0.00  0.00    +0.159 HD
ENDROOT
BRANCH   1  10
ATOM     10  C   UNL     1       0.294   1.516 -10.335  0.00  0.00    +0.151 C 
BRANCH  10  11
ATOM     11  C   UNL     1       0.026   0.038 -10.399  0.00  0.00    -0.028 A 
ATOM     12  C   UNL     1      -0.774  -0.583  -9.428  0.00  0.00    +0.005 A 
ATOM     13  C   UNL     1       0.563  -0.747 -11.430  0.00  0.00    +0.005 A 
ATOM     14  C   UNL     1      -1.048  -1.951  -9.503  0.00  0.00    +0.000 A 
ATOM     15  C   UNL     1       0.288  -2.112 -11.501  0.00  0.00    +0.000 A 
ATOM     16  C   UNL     1      -0.520  -2.713 -10.539  0.00  0.00    +0.000 A 
ENDBRANCH  10  11
ENDBRANCH   1  10
TORSDOF 2
ENDMDL
MODEL 4
REMARK VINA RESULT:    -4.740     20.322     21.341
REMARK INTER + INTRA:          -5.395
REMARK INTER:                  -5.229
REMARK INTRA:                  -0.165
REMARK UNBOUND:                -0.100
REMARK  Name = 1550473
REMARK  2 active torsions:
REMARK  status: ('A' for Active; 'I' for Inactive)
REMARK    1  A    between atoms: N_1  and  C_4
REMARK    2  A    between atoms: C_4  and  C_5
REMARK                            x       y       z     vdW  Elec       q    Type
REMARK                         _______ _______ _______ _____ _____    ______ ____
ROOT
ATOM      1  N   UNL     1       8.739 -16.336   2.177  0.00  0.00    -0.354 N 
ATOM      2  N   UNL     1       9.293 -14.714   3.734  0.00  0.00    -0.372 N 
ATOM      3  N   UNL     1       8.451 -16.717   4.472  0.00  0.00    -0.372 N 
ATOM      4  C   UNL     1       8.823 -15.935   3.452  0.00  0.00    +0.166 C 
ATOM      5  H   UNL     1       9.008 -15.685   1.449  0.00  0.00    +0.163 HD
ATOM      6  H   UNL     1       9.372 -14.385   4.687  0.00  0.00    +0.159 HD
ATOM      7  H   UNL     1       9.605 -14.082   3.006  0.00  0.00    +0.159 HD
ATOM      8  H   UNL     1       8.082 -17.647   4.326  0.00  0.00    +0.159 HD
ATOM      9  H   UNL     1       8.511 -16.401   5.432  0.00  0.00    +0.159 HD
ENDROOT
BRANCH   1  10
ATOM     10  C   UNL     1       8.291 -17.666   1.766  0.00  0.00    +0.151 C 
BRANCH  10  11
ATOM     11  C   UNL     1       6.865 -17.581   1.297  0.00  0.00    -0.028 A 
ATOM     12  C   UNL     1       5.807 -17.733   2.205  0.00  0.00    +0.005 A 
ATOM     13  C   UNL     1       6.565 -17.343  -0.053  0.00  0.00    +0.005 A 
ATOM     14  C   UNL     1       4.482 -17.624   1.775  0.00  0.00    +0.000 A 
ATOM     15  C   UNL     1       5.242 -17.236  -0.479  0.00  0.00    +0.000 A 
ATOM     16  C   UNL     1       4.200 -17.374   0.436  0.00  0.00    +0.000 A 
ENDBRANCH  10  11
ENDBRANCH   1  10
TORSDOF 2
ENDMDL
MODEL 5
REMARK VINA RESULT:    -4.619     13.940     15.267
REMARK INTER + INTRA:          -5.259
REMARK INTER:                  -5.146
REMARK INTRA:                  -0.114
REMARK UNBOUND:                -0.100
REMARK  Name = 1550473
REMARK  2 active torsions:
REMARK  status: ('A' for Active; 'I' for Inactive)
REMARK    1  A    between atoms: N_1  and  C_4
REMARK    2  A    between atoms: C_4  and  C_5
REMARK                            x       y       z     vdW  Elec       q    Type
REMARK                         _______ _______ _______ _____ _____    ______ ____
ROOT
ATOM      1  N   UNL     1       9.096  -7.274 -14.544  0.00  0.00    -0.354 N 
ATOM      2  N   UNL     1       7.230  -8.272 -15.484  0.00  0.00    -0.372 N 
ATOM      3  N   UNL     1       7.300  -7.971 -13.210  0.00  0.00    -0.372 N 
ATOM      4  C   UNL     1       7.887  -7.833 -14.404  0.00  0.00    +0.166 C 
ATOM      5  H   UNL     1       9.500  -7.225 -15.473  0.00  0.00    +0.163 HD
ATOM      6  H   UNL     1       6.314  -8.695 -15.409  0.00  0.00    +0.159 HD
ATOM      7  H   UNL     1       7.615  -8.181 -16.416  0.00  0.00    +0.159 HD
ATOM      8  H   UNL     1       7.746  -7.665 -12.356  0.00  0.00    +0.159 HD
ATOM      9  H   UNL     1       6.390  -8.402 -13.114  0.00  0.00    +0.159 HD
ENDROOT
BRANCH   1  10
ATOM     10  C   UNL     1       9.872  -6.714 -13.438  0.00  0.00    +0.151 C 
BRANCH  10  11
ATOM     11  C   UNL     1      11.069  -7.589 -13.187  0.00  0.00    -0.028 A 
ATOM     12  C   UNL     1      12.359  -7.039 -13.157  0.00  0.00    +0.005 A 
ATOM     13  C   UNL     1      10.920  -8.968 -12.972  0.00  0.00    +0.005 A 
ATOM     14  C   UNL     1      13.469  -7.846 -12.893  0.00  0.00    +0.000 A 
ATOM     15  C   UNL     1      12.031  -9.770 -12.710  0.00  0.00    +0.000 A 
ATOM     16  C   UNL     1      13.304  -9.208 -12.668  0.00  0.00    +0.000 A 
ENDBRANCH  10  11
ENDBRANCH   1  10
TORSDOF 2
ENDMDL
MODEL 6
REMARK VINA RESULT:    -4.614     14.944     16.603
REMARK INTER + INTRA:          -5.254
REMARK INTER:                  -5.076
REMARK INTRA:                  -0.178
REMARK UNBOUND:                -0.100
REMARK  Name = 1550473
REMARK  2 active torsions:
REMARK  status: ('A' for Active; 'I' for Inactive)
REMARK    1  A    between atoms: N_1  and  C_4
REMARK    2  A    between atoms: C_4  and  C_5
REMARK                            x       y       z     vdW  Elec       q    Type
REMARK                         _______ _______ _______ _____ _____    ______ ____
ROOT
ATOM      1  N   UNL     1      -5.735 -15.503  -3.717  0.00  0.00    -0.354 N 
ATOM      2  N   UNL     1      -6.164 -16.792  -5.593  0.00  0.00    -0.372 N 
ATOM      3  N   UNL     1      -5.313 -17.809  -3.720  0.00  0.00    -0.372 N 
ATOM      4  C   UNL     1      -5.734 -16.695  -4.329  0.00  0.00    +0.166 C 
ATOM      5  H   UNL     1      -6.038 -14.692  -4.244  0.00  0.00    +0.163 HD
ATOM      6  H   UNL     1      -6.178 -17.678  -6.080  0.00  0.00    +0.159 HD
ATOM      7  H   UNL     1      -6.509 -15.987  -6.102  0.00  0.00    +0.159 HD
ATOM      8  H   UNL     1      -4.970 -17.802  -2.769  0.00  0.00    +0.159 HD
ATOM      9  H   UNL     1      -5.308 -18.703  -4.195  0.00  0.00    +0.159 HD
ENDROOT
BRANCH   1  10
ATOM     10  C   UNL     1      -5.337 -15.299  -2.325  0.00  0.00    +0.151 C 
BRANCH  10  11
ATOM     11  C   UNL     1      -3.989 -14.633  -2.293  0.00  0.00    -0.028 A 
ATOM     12  C   UNL     1      -2.820 -15.397  -2.172  0.00  0.00    +0.005 A 
ATOM     13  C   UNL     1      -3.875 -13.237  -2.389  0.00  0.00    +0.005 A 
ATOM     14  C   UNL     1      -1.566 -14.781  -2.172  0.00  0.00    +0.000 A 
ATOM     15  C   UNL     1      -2.621 -12.626  -2.388  0.00  0.00    +0.000 A 
ATOM     16  C   UNL     1      -1.467 -13.398  -2.282  0.00  0.00    +0.000 A 
ENDBRANCH  10  11
ENDBRANCH   1  10
TORSDOF 2
ENDMDL
MODEL 7
REMARK VINA RESULT:    -4.600     14.232     15.516
REMARK INTER + INTRA:          -5.238
REMARK INTER:                  -5.101
REMARK INTRA:                  -0.138
REMARK UNBOUND:                -0.100
REMARK  Name = 1550473
REMARK  2 active torsions:
REMARK  status: ('A' for Active; 'I' for Inactive)
REMARK    1  A    between atoms: N_1  and  C_4
REMARK    2  A    between atoms: C_4  and  C_5
REMARK                            x       y       z     vdW  Elec       q    Type
REMARK                         _______ _______ _______ _____ _____    ______ ____
ROOT
ATOM      1  N   UNL     1       9.648 -10.380 -11.270  0.00  0.00    -0.354 N 
ATOM      2  N   UNL     1       7.748 -10.120  -9.972  0.00  0.00    -0.372 N 
ATOM      3  N   UNL     1       7.561  -9.972 -12.254  0.00  0.00    -0.372 N 
ATOM      4  C   UNL     1       8.330 -10.158 -11.176  0.00  0.00    +0.166 C 
ATOM      5  H   UNL     1      10.181 -10.484 -10.414  0.00  0.00    +0.163 HD
ATOM      6  H   UNL     1       6.755  -9.958  -9.870  0.00  0.00    +0.159 HD
ATOM      7  H   UNL     1       8.274 -10.270  -9.120  0.00  0.00    +0.159 HD
ATOM      8  H   UNL     1       7.941  -9.983 -13.191  0.00  0.00    +0.159 HD
ATOM      9  H   UNL     1       6.567  -9.796 -12.172  0.00  0.00    +0.159 HD
ENDROOT
BRANCH   1  10
ATOM     10  C   UNL     1      10.371 -10.494 -12.536  0.00  0.00    +0.151 C 
BRANCH  10  11
ATOM     11  C   UNL     1      11.102  -9.207 -12.801  0.00  0.00    -0.028 A 
ATOM     12  C   UNL     1      10.424  -8.099 -13.330  0.00  0.00    +0.005 A 
ATOM     13  C   UNL     1      12.472  -9.088 -12.522  0.00  0.00    +0.005 A 
ATOM     14  C   UNL     1      11.096  -6.894 -13.549  0.00  0.00    +0.000 A 
ATOM     15  C   UNL     1      13.139  -7.883 -12.743  0.00  0.00    +0.000 A 
ATOM     16  C   UNL     1      12.451  -6.786 -13.254  0.00  0.00    +0.000 A 
ENDBRANCH  10  11
ENDBRANCH   1  10
TORSDOF 2
ENDMDL
MODEL 8
REMARK VINA RESULT:    -4.568     13.276     14.119
REMARK INTER + INTRA:          -5.202
REMARK INTER:                  -5.076
REMARK INTRA:                  -0.126
REMARK UNBOUND:                -0.100
REMARK  Name = 1550473
REMARK  2 active torsions:
REMARK  status: ('A' for Active; 'I' for Inactive)
REMARK    1  A    between atoms: N_1  and  C_4
REMARK    2  A    between atoms: C_4  and  C_5
REMARK                            x       y       z     vdW  Elec       q    Type
REMARK                         _______ _______ _______ _____ _____    ______ ____
ROOT
ATOM      1  N   UNL     1      11.381  -3.395 -14.151  0.00  0.00    -0.354 N 
ATOM      2  N   UNL     1      10.694  -1.185 -14.253  0.00  0.00    -0.372 N 
ATOM      3  N   UNL     1      11.914  -2.048 -15.994  0.00  0.00    -0.372 N 
ATOM      4  C   UNL     1      11.336  -2.224 -14.801  0.00  0.00    +0.166 C 
ATOM      5  H   UNL     1      10.949  -3.455 -13.237  0.00  0.00    +0.163 HD
ATOM      6  H   UNL     1      10.640  -0.291 -14.721  0.00  0.00    +0.159 HD
ATOM      7  H   UNL     1      10.223  -1.261 -13.359  0.00  0.00    +0.159 HD
ATOM      8  H   UNL     1      12.419  -2.791 -16.459  0.00  0.00    +0.159 HD
ATOM      9  H   UNL     1      11.881  -1.157 -16.473  0.00  0.00    +0.159 HD
ENDROOT
BRANCH   1  10
ATOM     10  C   UNL     1      12.009  -4.602 -14.685  0.00  0.00    +0.151 C 
BRANCH  10  11
ATOM     11  C   UNL     1      11.132  -5.786 -14.384  0.00  0.00    -0.028 A 
ATOM     12  C   UNL     1       9.846  -5.878 -14.936  0.00  0.00    +0.005 A 
ATOM     13  C   UNL     1      11.583  -6.822 -13.552  0.00  0.00    +0.005 A 
ATOM     14  C   UNL     1       9.042  -6.992 -14.681  0.00  0.00    +0.000 A 
ATOM     15  C   UNL     1      10.777  -7.931 -13.298  0.00  0.00    +0.000 A 
ATOM     16  C   UNL     1       9.507  -8.017 -13.865  0.00  0.00    +0.000 A 
ENDBRANCH  10  11
ENDBRANCH   1  10
TORSDOF 2
ENDMDL
MODEL 9
REMARK VINA RESULT:    -4.398     25.349     26.401
REMARK INTER + INTRA:          -5.013
REMARK INTER:                  -4.899
REMARK INTRA:                  -0.114
REMARK UNBOUND:                -0.100
REMARK  Name = 1550473
REMARK  2 active torsions:
REMARK  status: ('A' for Active; 'I' for Inactive)
REMARK    1  A    between atoms: N_1  and  C_4
REMARK    2  A    between atoms: C_4  and  C_5
REMARK                            x       y       z     vdW  Elec       q    Type
REMARK                         _______ _______ _______ _____ _____    ______ ____
ROOT
ATOM      1  N   UNL     1     -14.740 -15.481 -25.128  0.00  0.00    -0.354 N 
ATOM      2  N   UNL     1     -13.439 -16.032 -23.293  0.00  0.00    -0.372 N 
ATOM      3  N   UNL     1     -12.412 -15.218 -25.176  0.00  0.00    -0.372 N 
ATOM      4  C   UNL     1     -13.537 -15.573 -24.546  0.00  0.00    +0.166 C 
ATOM      5  H   UNL     1     -15.551 -15.795 -24.608  0.00  0.00    +0.163 HD
ATOM      6  H   UNL     1     -12.545 -16.110 -22.826  0.00  0.00    +0.159 HD
ATOM      7  H   UNL     1     -14.256 -16.302 -22.759  0.00  0.00    +0.159 HD
ATOM      8  H   UNL     1     -12.417 -14.869 -26.125  0.00  0.00    +0.159 HD
ATOM      9  H   UNL     1     -11.506 -15.299 -24.730  0.00  0.00    +0.159 HD
ENDROOT
BRANCH   1  10
ATOM     10  C   UNL     1     -14.961 -14.944 -26.469  0.00  0.00    +0.151 C 
BRANCH  10  11
ATOM     11  C   UNL     1     -16.279 -14.221 -26.498  0.00  0.00    -0.028 A 
ATOM     12  C   UNL     1     -16.404 -12.995 -27.169  0.00  0.00    +0.005 A 
ATOM     13  C   UNL     1     -17.408 -14.759 -25.861  0.00  0.00    +0.005 A 
ATOM     14  C   UNL     1     -17.636 -12.338 -27.221  0.00  0.00    +0.000 A 
ATOM     15  C   UNL     1     -18.635 -14.099 -25.915  0.00  0.00    +0.000 A 
ATOM     16  C   UNL     1     -18.750 -12.890 -26.597  0.00  0.00    +0.000 A 
ENDBRANCH  10  11
ENDBRANCH   1  10
TORSDOF 2
ENDMDL
