MODEL 1
REMARK VINA RESULT:    -5.160      0.000      0.000
REMARK INTER + INTRA:          -5.887
REMARK INTER:                  -5.763
REMARK INTRA:                  -0.124
REMARK UNBOUND:                -0.124
REMARK  Name = 1550473
REMARK  2 active torsions:
REMARK  status: ('A' for Active; 'I' for Inactive)
REMARK    1  A    between atoms: N_1  and  C_4
REMARK    2  A    between atoms: C_4  and  C_5
REMARK                            x       y       z     vdW  Elec       q    Type
REMARK                         _______ _______ _______ _____ _____    ______ ____
ROOT
ATOM      1  N   UNL     1      -2.301  -3.243 -12.728  0.00  0.00    -0.354 N 
ATOM      2  N   UNL     1      -2.192  -3.841 -14.963  0.00  0.00    -0.372 N 
ATOM      3  N   UNL     1      -1.081  -5.122 -13.417  0.00  0.00    -0.372 N 
ATOM      4  C   UNL     1      -1.857  -4.066 -13.687  0.00  0.00    +0.166 C 
ATOM      5  H   UNL     1      -2.861  -2.443 -13.002  0.00  0.00    +0.163 HD
ATOM      6  H   UNL     1      -1.875  -4.447 -15.708  0.00  0.00    +0.159 HD
ATOM      7  H   UNL     1      -2.789  -3.067 -15.228  0.00  0.00    +0.159 HD
ATOM      8  H   UNL     1      -0.788  -5.344 -12.475  0.00  0.00    +0.159 HD
ATOM      9  H   UNL     1      -0.744  -5.733 -14.150  0.00  0.00    +0.159 HD
ENDROOT
BRANCH   1  10
ATOM     10  C   UNL     1      -2.039  -3.431 -11.302  0.00  0.00    +0.151 C 
BRANCH  10  11
ATOM     11  C   UNL     1      -2.955  -2.538 -10.512  0.00  0.00    -0.028 A 
ATOM     12  C   UNL     1      -2.985  -2.609  -9.112  0.00  0.00    +0.005 A 
ATOM     13  C   UNL     1      -3.792  -1.615 -11.158  0.00  0.00    +0.005 A 
ATOM     14  C   UNL     1      -3.814  -1.759  -8.376  0.00  0.00    +0.000 A 
ATOM     15  C   UNL     1      -4.619  -0.769 -10.419  0.00  0.00    +0.000 A 
ATOM     16  C   UNL     1      -4.628  -0.839  -9.029  0.00  0.00    +0.000 A 
ENDBRANCH  10  11
ENDBRANCH   1  10
TORSDOF 2
ENDMDL
MODEL 2
REMARK VINA RESULT:    -4.645     30.282     31.327
REMARK INTER + INTRA:          -5.312
REMARK INTER:                  -5.165
REMARK INTRA:                  -0.147
REMARK UNBOUND:                -0.124
REMARK  Name = 1550473
REMARK  2 active torsions:
REMARK  status: ('A' for Active; 'I' for Inactive)
REMARK    1  A    between atoms: N_1  and  C_4
REMARK    2  A    between atoms: C_4  and  C_5
REMARK                            x       y       z     vdW  Elec       q    Type
REMARK                         _______ _______ _______ _____ _____    ______ ____
ROOT
ATOM      1  N   UNL     1       2.758   0.554  18.756  0.00  0.00    -0.354 N 
ATOM      2  N   UNL     1       2.943   2.630  19.768  0.00  0.00    -0.372 N 
ATOM      3  N   UNL     1       4.556   1.978  18.272  0.00  0.00    -0.372 N 
ATOM      4  C   UNL     1       3.420   1.707  18.924  0.00  0.00    +0.166 C 
ATOM      5  H   UNL     1       1.919   0.397  19.303  0.00  0.00    +0.163 HD
ATOM      6  H   UNL     1       3.419   3.510  19.913  0.00  0.00    +0.159 HD
ATOM      7  H   UNL     1       2.079   2.489  20.278  0.00  0.00    +0.159 HD
ATOM      8  H   UNL     1       4.972   1.321  17.626  0.00  0.00    +0.159 HD
ATOM      9  H   UNL     1       5.053   2.849  18.412  0.00  0.00    +0.159 HD
ENDROOT
BRANCH   1  10
ATOM     10  C   UNL     1       3.165  -0.493  17.821  0.00  0.00    +0.151 C 
BRANCH  10  11
ATOM     11  C   UNL     1       3.266  -1.799  18.560  0.00  0.00    -0.028 A 
ATOM     12  C   UNL     1       4.055  -1.904  19.716  0.00  0.00    +0.005 A 
ATOM     13  C   UNL     1       2.572  -2.934  18.114  0.00  0.00    +0.005 A 
ATOM     14  C   UNL     1       4.125  -3.108  20.419  0.00  0.00    +0.000 A 
ATOM     15  C   UNL     1       2.646  -4.135  18.819  0.00  0.00    +0.000 A 
ATOM     16  C   UNL     1       3.421  -4.221  19.973  0.00  0.00    +0.000 A 
ENDBRANCH  10  11
ENDBRANCH   1  10
TORSDOF 2
ENDMDL
MODEL 3
REMARK VINA RESULT:    -4.469     14.899     16.398
REMARK INTER + INTRA:          -5.116
REMARK INTER:                  -5.002
REMARK INTRA:                  -0.114
REMARK UNBOUND:                -0.124
REMARK  Name = 1550473
REMARK  2 active torsions:
REMARK  status: ('A' for Active; 'I' for Inactive)
REMARK    1  A    between atoms: N_1  and  C_4
REMARK    2  A    between atoms: C_4  and  C_5
REMARK                            x       y       z     vdW  Elec       q    Type
REMARK                         _______ _______ _______ _____ _____    ______ ____
ROOT
ATOM      1  N   UNL     1      -5.990  12.631 -10.511  0.00  0.00    -0.354 N 
ATOM      2  N   UNL     1      -3.740  12.347 -10.038  0.00  0.00    -0.372 N 
ATOM      3  N   UNL     1      -5.016  10.499 -10.511  0.00  0.00    -0.372 N 
ATOM      4  C   UNL     1      -4.931  11.825 -10.357  0.00  0.00    +0.166 C 
ATOM      5  H   UNL     1      -5.866  13.624 -10.351  0.00  0.00    +0.163 HD
ATOM      6  H   UNL     1      -2.923  11.764  -9.918  0.00  0.00    +0.159 HD
ATOM      7  H   UNL     1      -3.609  13.344  -9.923  0.00  0.00    +0.159 HD
ATOM      8  H   UNL     1      -5.887  10.042 -10.746  0.00  0.00    +0.159 HD
ATOM      9  H   UNL     1      -4.212   9.898 -10.384  0.00  0.00    +0.159 HD
ENDROOT
BRANCH   1  10
ATOM     10  C   UNL     1      -7.318  12.169 -10.911  0.00  0.00    +0.151 C 
BRANCH  10  11
ATOM     11  C   UNL     1      -8.355  12.900 -10.104  0.00  0.00    -0.028 A 
ATOM     12  C   UNL     1      -8.792  12.388  -8.874  0.00  0.00    +0.005 A 
ATOM     13  C   UNL     1      -8.901  14.109 -10.562  0.00  0.00    +0.005 A 
ATOM     14  C   UNL     1      -9.733  13.082  -8.110  0.00  0.00    +0.000 A 
ATOM     15  C   UNL     1      -9.842  14.799  -9.797  0.00  0.00    +0.000 A 
ATOM     16  C   UNL     1     -10.256  14.287  -8.570  0.00  0.00    +0.000 A 
ENDBRANCH  10  11
ENDBRANCH   1  10
TORSDOF 2
ENDMDL
MODEL 4
REMARK VINA RESULT:    -4.433     29.208     30.464
REMARK INTER + INTRA:          -5.075
REMARK INTER:                  -4.894
REMARK INTRA:                  -0.181
REMARK UNBOUND:                -0.124
REMARK  Name = 1550473
REMARK  2 active torsions:
REMARK  status: ('A' for Active; 'I' for Inactive)
REMARK    1  A    between atoms: N_1  and  C_4
REMARK    2  A    between atoms: C_4  and  C_5
REMARK                            x       y       z     vdW  Elec       q    Type
REMARK                         _______ _______ _______ _____ _____    ______ ____
ROOT
ATOM      1  N   UNL     1       2.958  -2.881  17.700  0.00  0.00    -0.354 N 
ATOM      2  N   UNL     1       2.646  -4.851  18.877  0.00  0.00    -0.372 N 
ATOM      3  N   UNL     1       0.823  -3.540  18.406  0.00  0.00    -0.372 N 
ATOM      4  C   UNL     1       2.141  -3.744  18.320  0.00  0.00    +0.166 C 
ATOM      5  H   UNL     1       3.952  -3.078  17.695  0.00  0.00    +0.163 HD
ATOM      6  H   UNL     1       2.054  -5.522  19.349  0.00  0.00    +0.159 HD
ATOM      7  H   UNL     1       3.634  -5.068  18.831  0.00  0.00    +0.159 HD
ATOM      8  H   UNL     1       0.380  -2.721  18.012  0.00  0.00    +0.159 HD
ATOM      9  H   UNL     1       0.215  -4.194  18.884  0.00  0.00    +0.159 HD
ENDROOT
BRANCH   1  10
ATOM     10  C   UNL     1       2.503  -1.673  17.014  0.00  0.00    +0.151 C 
BRANCH  10  11
ATOM     11  C   UNL     1       2.780  -0.480  17.886  0.00  0.00    -0.028 A 
ATOM     12  C   UNL     1       1.725   0.240  18.466  0.00  0.00    +0.005 A 
ATOM     13  C   UNL     1       4.097  -0.067  18.142  0.00  0.00    +0.005 A 
ATOM     14  C   UNL     1       1.983   1.330  19.300  0.00  0.00    +0.000 A 
ATOM     15  C   UNL     1       4.350   1.023  18.975  0.00  0.00    +0.000 A 
ATOM     16  C   UNL     1       3.293   1.720  19.556  0.00  0.00    +0.000 A 
ENDBRANCH  10  11
ENDBRANCH   1  10
TORSDOF 2
ENDMDL
MODEL 5
REMARK VINA RESULT:    -4.357     13.671     14.934
REMARK INTER + INTRA:          -4.990
REMARK INTER:                  -4.810
REMARK INTRA:                  -0.180
REMARK UNBOUND:                -0.124
REMARK  Name = 1550473
REMARK  2 active torsions:
REMARK  status: ('A' for Active; 'I' for Inactive)
REMARK    1  A    between atoms: N_1  and  C_4
REMARK    2  A    between atoms: C_4  and  C_5
REMARK                            x       y       z     vdW  Elec       q    Type
REMARK                         _______ _______ _______ _____ _____    ______ ____
ROOT
ATOM      1  N   UNL     1      -5.857  12.444 -10.349  0.00  0.00    -0.354 N 
ATOM      2  N   UNL     1      -3.604  12.480  -9.813  0.00  0.00    -0.372 N 
ATOM      3  N   UNL     1      -4.460  10.642 -10.887  0.00  0.00    -0.372 N 
ATOM      4  C   UNL     1      -4.655  11.852 -10.354  0.00  0.00    +0.166 C 
ATOM      5  H   UNL     1      -5.946  13.350  -9.903  0.00  0.00    +0.163 HD
ATOM      6  H   UNL     1      -2.684  12.060  -9.806  0.00  0.00    +0.159 HD
ATOM      7  H   UNL     1      -3.686  13.405  -9.409  0.00  0.00    +0.159 HD
ATOM      8  H   UNL     1      -5.213  10.113 -11.305  0.00  0.00    +0.159 HD
ATOM      9  H   UNL     1      -3.549  10.200 -10.879  0.00  0.00    +0.159 HD
ENDROOT
BRANCH   1  10
ATOM     10  C   UNL     1      -7.055  11.869 -10.959  0.00  0.00    +0.151 C 
BRANCH  10  11
ATOM     11  C   UNL     1      -7.918  11.273  -9.881  0.00  0.00    -0.028 A 
ATOM     12  C   UNL     1      -8.768  12.088  -9.119  0.00  0.00    +0.005 A 
ATOM     13  C   UNL     1      -7.895   9.895  -9.622  0.00  0.00    +0.005 A 
ATOM     14  C   UNL     1      -9.592  11.531  -8.138  0.00  0.00    +0.000 A 
ATOM     15  C   UNL     1      -8.719   9.343  -8.641  0.00  0.00    +0.000 A 
ATOM     16  C   UNL     1      -9.569  10.161  -7.901  0.00  0.00    +0.000 A 
ENDBRANCH  10  11
ENDBRANCH   1  10
TORSDOF 2
ENDMDL
MODEL 6
REMARK VINA RESULT:    -4.308     14.319     15.784
REMARK INTER + INTRA:          -4.935
REMARK INTER:                  -4.767
REMARK INTRA:                  -0.168
REMARK UNBOUND:                -0.124
REMARK  Name = 1550473
REMARK  2 active torsions:
REMARK  status: ('A' for Active; 'I' for Inactive)
REMARK    1  A    between atoms: N_1  and  C_4
REMARK    2  A    between atoms: C_4  and  C_5
REMARK                            x       y       z     vdW  Elec       q    Type
REMARK                         _______ _______ _______ _____ _____    ______ ____
ROOT
ATOM      1  N   UNL     1      -5.298  12.423 -10.414  0.00  0.00    -0.354 N 
ATOM      2  N   UNL     1      -3.281  12.234 -11.536  0.00  0.00    -0.372 N 
ATOM      3  N   UNL     1      -4.502  10.336 -11.124  0.00  0.00    -0.372 N 
ATOM      4  C   UNL     1      -4.374  11.663 -11.017  0.00  0.00    +0.166 C 
ATOM      5  H   UNL     1      -5.127  13.419 -10.339  0.00  0.00    +0.163 HD
ATOM      6  H   UNL     1      -2.568  11.687 -12.000  0.00  0.00    +0.159 HD
ATOM      7  H   UNL     1      -3.135  13.235 -11.500  0.00  0.00    +0.159 HD
ATOM      8  H   UNL     1      -5.301   9.843 -10.748  0.00  0.00    +0.159 HD
ATOM      9  H   UNL     1      -3.795   9.769 -11.575  0.00  0.00    +0.159 HD
ENDROOT
BRANCH   1  10
ATOM     10  C   UNL     1      -6.549  11.906  -9.863  0.00  0.00    +0.151 C 
BRANCH  10  11
ATOM     11  C   UNL     1      -7.689  12.339 -10.743  0.00  0.00    -0.028 A 
ATOM     12  C   UNL     1      -8.353  11.410 -11.557  0.00  0.00    +0.005 A 
ATOM     13  C   UNL     1      -8.114  13.677 -10.763  0.00  0.00    +0.005 A 
ATOM     14  C   UNL     1      -9.431  11.806 -12.352  0.00  0.00    +0.000 A 
ATOM     15  C   UNL     1      -9.190  14.068 -11.559  0.00  0.00    +0.000 A 
ATOM     16  C   UNL     1      -9.850  13.132 -12.351  0.00  0.00    +0.000 A 
ENDBRANCH  10  11
ENDBRANCH   1  10
TORSDOF 2
ENDMDL
MODEL 7
REMARK VINA RESULT:    -4.220     12.070     13.533
REMARK INTER + INTRA:          -4.837
REMARK INTER:                  -4.696
REMARK INTRA:                  -0.140
REMARK UNBOUND:                -0.124
REMARK  Name = 1550473
REMARK  2 active torsions:
REMARK  status: ('A' for Active; 'I' for Inactive)
REMARK    1  A    between atoms: N_1  and  C_4
REMARK    2  A    between atoms: C_4  and  C_5
REMARK                            x       y       z     vdW  Elec       q    Type
REMARK                         _______ _______ _______ _____ _____    ______ ____
ROOT
ATOM      1  N   UNL     1      -5.440  10.468 -10.278  0.00  0.00    -0.354 N 
ATOM      2  N   UNL     1      -3.775  12.078 -10.305  0.00  0.00    -0.372 N 
ATOM      3  N   UNL     1      -5.957  12.735 -10.574  0.00  0.00    -0.372 N 
ATOM      4  C   UNL     1      -5.071  11.751 -10.386  0.00  0.00    +0.166 C 
ATOM      5  H   UNL     1      -4.717   9.767 -10.167  0.00  0.00    +0.163 HD
ATOM      6  H   UNL     1      -3.467  13.038 -10.379  0.00  0.00    +0.159 HD
ATOM      7  H   UNL     1      -3.059  11.380 -10.148  0.00  0.00    +0.159 HD
ATOM      8  H   UNL     1      -6.949  12.554 -10.649  0.00  0.00    +0.159 HD
ATOM      9  H   UNL     1      -5.667  13.700 -10.662  0.00  0.00    +0.159 HD
ENDROOT
BRANCH   1  10
ATOM     10  C   UNL     1      -6.829  10.012 -10.299  0.00  0.00    +0.151 C 
BRANCH  10  11
ATOM     11  C   UNL     1      -6.998   9.001 -11.399  0.00  0.00    -0.028 A 
ATOM     12  C   UNL     1      -7.732   7.826 -11.180  0.00  0.00    +0.005 A 
ATOM     13  C   UNL     1      -6.431   9.214 -12.665  0.00  0.00    +0.005 A 
ATOM     14  C   UNL     1      -7.914   6.900 -12.210  0.00  0.00    +0.000 A 
ATOM     15  C   UNL     1      -6.615   8.287 -13.691  0.00  0.00    +0.000 A 
ATOM     16  C   UNL     1      -7.358   7.132 -13.464  0.00  0.00    +0.000 A 
ENDBRANCH  10  11
ENDBRANCH   1  10
TORSDOF 2
ENDMDL
MODEL 8
REMARK VINA RESULT:    -4.183     27.434     28.645
REMARK INTER + INTRA:          -4.796
REMARK INTER:                  -4.677
REMARK INTRA:                  -0.119
REMARK UNBOUND:                -0.124
REMARK  Name = 1550473
REMARK  2 active torsions:
REMARK  status: ('A' for Active; 'I' for Inactive)
REMARK    1  A    between atoms: N_1  and  C_4
REMARK    2  A    between atoms: C_4  and  C_5
REMARK                            x       y       z     vdW  Elec       q    Type
REMARK                         _______ _______ _______ _____ _____    ______ ____
ROOT
ATOM      1  N   UNL     1      10.839  -8.403  12.094  0.00  0.00    -0.354 N 
ATOM      2  N   UNL     1       9.132  -9.489  10.967  0.00  0.00    -0.372 N 
ATOM      3  N   UNL     1       9.857 -10.343  12.970  0.00  0.00    -0.372 N 
ATOM      4  C   UNL     1       9.954  -9.406  12.020  0.00  0.00    +0.166 C 
ATOM      5  H   UNL     1      10.883  -7.743  11.326  0.00  0.00    +0.163 HD
ATOM      6  H   UNL     1       8.451 -10.233  10.885  0.00  0.00    +0.159 HD
ATOM      7  H   UNL     1       9.147  -8.802  10.224  0.00  0.00    +0.159 HD
ATOM      8  H   UNL     1      10.453 -10.340  13.787  0.00  0.00    +0.159 HD
ATOM      9  H   UNL     1       9.191 -11.101  12.900  0.00  0.00    +0.159 HD
ENDROOT
BRANCH   1  10
ATOM     10  C   UNL     1      11.742  -8.192  13.223  0.00  0.00    +0.151 C 
BRANCH  10  11
ATOM     11  C   UNL     1      11.904  -6.714  13.453  0.00  0.00    -0.028 A 
ATOM     12  C   UNL     1      13.147  -6.095  13.257  0.00  0.00    +0.005 A 
ATOM     13  C   UNL     1      10.817  -5.927  13.862  0.00  0.00    +0.005 A 
ATOM     14  C   UNL     1      13.291  -4.718  13.441  0.00  0.00    +0.000 A 
ATOM     15  C   UNL     1      10.965  -4.552  14.045  0.00  0.00    +0.000 A 
ATOM     16  C   UNL     1      12.201  -3.948  13.832  0.00  0.00    +0.000 A 
ENDBRANCH  10  11
ENDBRANCH   1  10
TORSDOF 2
ENDMDL
MODEL 9
REMARK VINA RESULT:    -3.912     12.206     13.396
REMARK INTER + INTRA:          -4.493
REMARK INTER:                  -4.385
REMARK INTRA:                  -0.107
REMARK UNBOUND:                -0.124
REMARK  Name = 1550473
REMARK  2 active torsions:
REMARK  status: ('A' for Active; 'I' for Inactive)
REMARK    1  A    between atoms: N_1  and  C_4
REMARK    2  A    between atoms: C_4  and  C_5
REMARK                            x       y       z     vdW  Elec       q    Type
REMARK                         _______ _______ _______ _____ _____    ______ ____
ROOT
ATOM      1  N   UNL     1      -5.918  10.255 -10.841  0.00  0.00    -0.354 N 
ATOM      2  N   UNL     1      -3.711  10.701 -11.385  0.00  0.00    -0.372 N 
ATOM      3  N   UNL     1      -5.036  12.416 -10.630  0.00  0.00    -0.372 N 
ATOM      4  C   UNL     1      -4.904  11.124 -10.948  0.00  0.00    +0.166 C 
ATOM      5  H   UNL     1      -5.761   9.295 -11.126  0.00  0.00    +0.163 HD
ATOM      6  H   UNL     1      -2.926  11.333 -11.473  0.00  0.00    +0.159 HD
ATOM      7  H   UNL     1      -3.545   9.732 -11.626  0.00  0.00    +0.159 HD
ATOM      8  H   UNL     1      -5.911  12.799 -10.299  0.00  0.00    +0.159 HD
ATOM      9  H   UNL     1      -4.265  13.066 -10.722  0.00  0.00    +0.159 HD
ENDROOT
BRANCH   1  10
ATOM     10  C   UNL     1      -7.240  10.602 -10.324  0.00  0.00    +0.151 C 
BRANCH  10  11
ATOM     11  C   UNL     1      -7.981   9.339  -9.982  0.00  0.00    -0.028 A 
ATOM     12  C   UNL     1      -8.722   9.247  -8.794  0.00  0.00    +0.005 A 
ATOM     13  C   UNL     1      -7.950   8.231 -10.843  0.00  0.00    +0.005 A 
ATOM     14  C   UNL     1      -9.434   8.085  -8.490  0.00  0.00    +0.000 A 
ATOM     15  C   UNL     1      -8.662   7.072 -10.535  0.00  0.00    +0.000 A 
ATOM     16  C   UNL     1      -9.406   7.000  -9.360  0.00  0.00    +0.000 A 
ENDBRANCH  10  11
ENDBRANCH   1  10
TORSDOF 2
ENDMDL
