MODEL 1
REMARK VINA RESULT:    -6.404      0.000      0.000
REMARK INTER + INTRA:          -7.296
REMARK INTER:                  -7.153
REMARK INTRA:                  -0.142
REMARK UNBOUND:                -0.142
REMARK  Name = 1550473
REMARK  2 active torsions:
REMARK  status: ('A' for Active; 'I' for Inactive)
REMARK    1  A    between atoms: N_1  and  C_4
REMARK    2  A    between atoms: C_4  and  C_5
REMARK                            x       y       z     vdW  Elec       q    Type
REMARK                         _______ _______ _______ _____ _____    ______ ____
ROOT
ATOM      1  N   UNL     1       8.023   0.119   5.395  0.00  0.00    -0.354 N 
ATOM      2  N   UNL     1       8.854  -2.025   5.667  0.00  0.00    -0.372 N 
ATOM      3  N   UNL     1       9.774  -0.676   4.055  0.00  0.00    -0.372 N 
ATOM      4  C   UNL     1       8.880  -0.846   5.035  0.00  0.00    +0.166 C 
ATOM      5  H   UNL     1       7.349  -0.083   6.124  0.00  0.00    +0.163 HD
ATOM      6  H   UNL     1       9.491  -2.771   5.420  0.00  0.00    +0.159 HD
ATOM      7  H   UNL     1       8.211  -2.209   6.427  0.00  0.00    +0.159 HD
ATOM      8  H   UNL     1       9.840   0.189   3.535  0.00  0.00    +0.159 HD
ATOM      9  H   UNL     1      10.412  -1.414   3.786  0.00  0.00    +0.159 HD
ENDROOT
BRANCH   1  10
ATOM     10  C   UNL     1       8.004   1.457   4.806  0.00  0.00    +0.151 C 
BRANCH  10  11
ATOM     11  C   UNL     1       8.302   2.469   5.877  0.00  0.00    -0.028 A 
ATOM     12  C   UNL     1       9.186   3.530   5.629  0.00  0.00    +0.005 A 
ATOM     13  C   UNL     1       7.701   2.376   7.142  0.00  0.00    +0.005 A 
ATOM     14  C   UNL     1       9.440   4.487   6.614  0.00  0.00    +0.000 A 
ATOM     15  C   UNL     1       7.958   3.334   8.123  0.00  0.00    +0.000 A 
ATOM     16  C   UNL     1       8.826   4.390   7.858  0.00  0.00    +0.000 A 
ENDBRANCH  10  11
ENDBRANCH   1  10
TORSDOF 2
ENDMDL
MODEL 2
REMARK VINA RESULT:    -6.167      3.096      4.512
REMARK INTER + INTRA:          -7.030
REMARK INTER:                  -6.892
REMARK INTRA:                  -0.138
REMARK UNBOUND:                -0.142
REMARK  Name = 1550473
REMARK  2 active torsions:
REMARK  status: ('A' for Active; 'I' for Inactive)
REMARK    1  A    between atoms: N_1  and  C_4
REMARK    2  A    between atoms: C_4  and  C_5
REMARK                            x       y       z     vdW  Elec       q    Type
REMARK                         _______ _______ _______ _____ _____    ______ ____
ROOT
ATOM      1  N   UNL     1       8.325   2.425   9.261  0.00  0.00    -0.354 N 
ATOM      2  N   UNL     1       8.576   1.006  11.074  0.00  0.00    -0.372 N 
ATOM      3  N   UNL     1      10.190   2.587  10.671  0.00  0.00    -0.372 N 
ATOM      4  C   UNL     1       9.031   2.016  10.324  0.00  0.00    +0.166 C 
ATOM      5  H   UNL     1       7.470   1.931   9.033  0.00  0.00    +0.163 HD
ATOM      6  H   UNL     1       9.086   0.678  11.884  0.00  0.00    +0.159 HD
ATOM      7  H   UNL     1       7.698   0.544  10.870  0.00  0.00    +0.159 HD
ATOM      8  H   UNL     1      10.590   3.351  10.143  0.00  0.00    +0.159 HD
ATOM      9  H   UNL     1      10.720   2.266  11.471  0.00  0.00    +0.159 HD
ENDROOT
BRANCH   1  10
ATOM     10  C   UNL     1       8.705   3.551   8.410  0.00  0.00    +0.151 C 
BRANCH  10  11
ATOM     11  C   UNL     1       8.617   3.130   6.969  0.00  0.00    -0.028 A 
ATOM     12  C   UNL     1       7.833   2.029   6.596  0.00  0.00    +0.005 A 
ATOM     13  C   UNL     1       9.312   3.831   5.972  0.00  0.00    +0.005 A 
ATOM     14  C   UNL     1       7.727   1.656   5.254  0.00  0.00    +0.000 A 
ATOM     15  C   UNL     1       9.204   3.455   4.633  0.00  0.00    +0.000 A 
ATOM     16  C   UNL     1       8.410   2.369   4.274  0.00  0.00    +0.000 A 
ENDBRANCH  10  11
ENDBRANCH   1  10
TORSDOF 2
ENDMDL
MODEL 3
REMARK VINA RESULT:    -5.993      4.106      5.015
REMARK INTER + INTRA:          -6.836
REMARK INTER:                  -6.694
REMARK INTRA:                  -0.142
REMARK UNBOUND:                -0.142
REMARK  Name = 1550473
REMARK  2 active torsions:
REMARK  status: ('A' for Active; 'I' for Inactive)
REMARK    1  A    between atoms: N_1  and  C_4
REMARK    2  A    between atoms: C_4  and  C_5
REMARK                            x       y       z     vdW  Elec       q    Type
REMARK                         _______ _______ _______ _____ _____    ______ ____
ROOT
ATOM      1  N   UNL     1       8.673   1.709  10.987  0.00  0.00    -0.354 N 
ATOM      2  N   UNL     1       9.523   2.499  12.991  0.00  0.00    -0.372 N 
ATOM      3  N   UNL     1      10.848   1.170  11.672  0.00  0.00    -0.372 N 
ATOM      4  C   UNL     1       9.678   1.786  11.869  0.00  0.00    +0.166 C 
ATOM      5  H   UNL     1       7.801   2.174  11.209  0.00  0.00    +0.163 HD
ATOM      6  H   UNL     1      10.264   2.578  13.674  0.00  0.00    +0.159 HD
ATOM      7  H   UNL     1       8.666   3.001  13.189  0.00  0.00    +0.159 HD
ATOM      8  H   UNL     1      11.027   0.611  10.848  0.00  0.00    +0.159 HD
ATOM      9  H   UNL     1      11.599   1.227  12.349  0.00  0.00    +0.159 HD
ENDROOT
BRANCH   1  10
ATOM     10  C   UNL     1       8.759   1.003   9.710  0.00  0.00    +0.151 C 
BRANCH  10  11
ATOM     11  C   UNL     1       8.884   2.009   8.599  0.00  0.00    -0.028 A 
ATOM     12  C   UNL     1       9.389   1.629   7.347  0.00  0.00    +0.005 A 
ATOM     13  C   UNL     1       8.495   3.344   8.791  0.00  0.00    +0.005 A 
ATOM     14  C   UNL     1       9.478   2.556   6.306  0.00  0.00    +0.000 A 
ATOM     15  C   UNL     1       8.586   4.267   7.749  0.00  0.00    +0.000 A 
ATOM     16  C   UNL     1       9.075   3.872   6.507  0.00  0.00    +0.000 A 
ENDBRANCH  10  11
ENDBRANCH   1  10
TORSDOF 2
ENDMDL
MODEL 4
REMARK VINA RESULT:    -5.896      1.340      2.017
REMARK INTER + INTRA:          -6.728
REMARK INTER:                  -6.589
REMARK INTRA:                  -0.139
REMARK UNBOUND:                -0.142
REMARK  Name = 1550473
REMARK  2 active torsions:
REMARK  status: ('A' for Active; 'I' for Inactive)
REMARK    1  A    between atoms: N_1  and  C_4
REMARK    2  A    between atoms: C_4  and  C_5
REMARK                            x       y       z     vdW  Elec       q    Type
REMARK                         _______ _______ _______ _____ _____    ______ ____
ROOT
ATOM      1  N   UNL     1       8.804  -0.721   6.606  0.00  0.00    -0.354 N 
ATOM      2  N   UNL     1       7.469  -2.268   5.514  0.00  0.00    -0.372 N 
ATOM      3  N   UNL     1       9.196  -1.286   4.365  0.00  0.00    -0.372 N 
ATOM      4  C   UNL     1       8.500  -1.414   5.500  0.00  0.00    +0.166 C 
ATOM      5  H   UNL     1       8.218  -0.840   7.425  0.00  0.00    +0.163 HD
ATOM      6  H   UNL     1       7.219  -2.807   4.696  0.00  0.00    +0.159 HD
ATOM      7  H   UNL     1       6.915  -2.419   6.348  0.00  0.00    +0.159 HD
ATOM      8  H   UNL     1       9.981  -0.654   4.287  0.00  0.00    +0.159 HD
ATOM      9  H   UNL     1       8.953  -1.808   3.533  0.00  0.00    +0.159 HD
ENDROOT
BRANCH   1  10
ATOM     10  C   UNL     1       9.939   0.194   6.711  0.00  0.00    +0.151 C 
BRANCH  10  11
ATOM     11  C   UNL     1       9.431   1.572   7.038  0.00  0.00    -0.028 A 
ATOM     12  C   UNL     1       8.844   1.837   8.284  0.00  0.00    +0.005 A 
ATOM     13  C   UNL     1       9.538   2.617   6.107  0.00  0.00    +0.005 A 
ATOM     14  C   UNL     1       8.400   3.124   8.598  0.00  0.00    +0.000 A 
ATOM     15  C   UNL     1       9.092   3.899   6.425  0.00  0.00    +0.000 A 
ATOM     16  C   UNL     1       8.525   4.153   7.672  0.00  0.00    +0.000 A 
ENDBRANCH  10  11
ENDBRANCH   1  10
TORSDOF 2
ENDMDL
MODEL 5
REMARK VINA RESULT:    -5.802      2.594      3.363
REMARK INTER + INTRA:          -6.622
REMARK INTER:                  -6.555
REMARK INTRA:                  -0.067
REMARK UNBOUND:                -0.142
REMARK  Name = 1550473
REMARK  2 active torsions:
REMARK  status: ('A' for Active; 'I' for Inactive)
REMARK    1  A    between atoms: N_1  and  C_4
REMARK    2  A    between atoms: C_4  and  C_5
REMARK                            x       y       z     vdW  Elec       q    Type
REMARK                         _______ _______ _______ _____ _____    ______ ____
ROOT
ATOM      1  N   UNL     1       8.398   0.008   9.222  0.00  0.00    -0.354 N 
ATOM      2  N   UNL     1       8.527  -2.266   8.800  0.00  0.00    -0.372 N 
ATOM      3  N   UNL     1      10.440  -1.133   9.367  0.00  0.00    -0.372 N 
ATOM      4  C   UNL     1       9.124  -1.115   9.133  0.00  0.00    +0.166 C 
ATOM      5  H   UNL     1       7.410  -0.039   9.003  0.00  0.00    +0.163 HD
ATOM      6  H   UNL     1       9.048  -3.129   8.728  0.00  0.00    +0.159 HD
ATOM      7  H   UNL     1       7.531  -2.318   8.626  0.00  0.00    +0.159 HD
ATOM      8  H   UNL     1      10.951  -0.297   9.617  0.00  0.00    +0.159 HD
ATOM      9  H   UNL     1      10.981  -1.985   9.289  0.00  0.00    +0.159 HD
ENDROOT
BRANCH   1  10
ATOM     10  C   UNL     1       8.942   1.302   9.630  0.00  0.00    +0.151 C 
BRANCH  10  11
ATOM     11  C   UNL     1       8.989   2.214   8.435  0.00  0.00    -0.028 A 
ATOM     12  C   UNL     1       8.772   3.592   8.581  0.00  0.00    +0.005 A 
ATOM     13  C   UNL     1       9.255   1.706   7.154  0.00  0.00    +0.005 A 
ATOM     14  C   UNL     1       8.845   4.443   7.476  0.00  0.00    +0.000 A 
ATOM     15  C   UNL     1       9.327   2.559   6.052  0.00  0.00    +0.000 A 
ATOM     16  C   UNL     1       9.124   3.928   6.214  0.00  0.00    +0.000 A 
ENDBRANCH  10  11
ENDBRANCH   1  10
TORSDOF 2
ENDMDL
MODEL 6
REMARK VINA RESULT:    -5.702      2.929      4.221
REMARK INTER + INTRA:          -6.511
REMARK INTER:                  -6.357
REMARK INTRA:                  -0.154
REMARK UNBOUND:                -0.142
REMARK  Name = 1550473
REMARK  2 active torsions:
REMARK  status: ('A' for Active; 'I' for Inactive)
REMARK    1  A    between atoms: N_1  and  C_4
REMARK    2  A    between atoms: C_4  and  C_5
REMARK                            x       y       z     vdW  Elec       q    Type
REMARK                         _______ _______ _______ _____ _____    ______ ____
ROOT
ATOM      1  N   UNL     1       8.094   3.090   8.074  0.00  0.00    -0.354 N 
ATOM      2  N   UNL     1       8.272   2.024  10.122  0.00  0.00    -0.372 N 
ATOM      3  N   UNL     1      10.164   2.889   9.153  0.00  0.00    -0.372 N 
ATOM      4  C   UNL     1       8.845   2.675   9.102  0.00  0.00    +0.166 C 
ATOM      5  H   UNL     1       7.105   2.870   8.080  0.00  0.00    +0.163 HD
ATOM      6  H   UNL     1       8.813   1.702  10.914  0.00  0.00    +0.159 HD
ATOM      7  H   UNL     1       7.276   1.846  10.148  0.00  0.00    +0.159 HD
ATOM      8  H   UNL     1      10.658   3.369   8.413  0.00  0.00    +0.159 HD
ATOM      9  H   UNL     1      10.724   2.564   9.932  0.00  0.00    +0.159 HD
ENDROOT
BRANCH   1  10
ATOM     10  C   UNL     1       8.611   3.854   6.940  0.00  0.00    +0.151 C 
BRANCH  10  11
ATOM     11  C   UNL     1       8.711   2.950   5.742  0.00  0.00    -0.028 A 
ATOM     12  C   UNL     1       9.628   3.225   4.718  0.00  0.00    +0.005 A 
ATOM     13  C   UNL     1       7.896   1.813   5.630  0.00  0.00    +0.005 A 
ATOM     14  C   UNL     1       9.743   2.369   3.620  0.00  0.00    +0.000 A 
ATOM     15  C   UNL     1       8.013   0.961   4.531  0.00  0.00    +0.000 A 
ATOM     16  C   UNL     1       8.938   1.238   3.528  0.00  0.00    +0.000 A 
ENDBRANCH  10  11
ENDBRANCH   1  10
TORSDOF 2
ENDMDL
MODEL 7
REMARK VINA RESULT:    -5.622      5.618      7.163
REMARK INTER + INTRA:          -6.422
REMARK INTER:                  -6.258
REMARK INTRA:                  -0.164
REMARK UNBOUND:                -0.142
REMARK  Name = 1550473
REMARK  2 active torsions:
REMARK  status: ('A' for Active; 'I' for Inactive)
REMARK    1  A    between atoms: N_1  and  C_4
REMARK    2  A    between atoms: C_4  and  C_5
REMARK                            x       y       z     vdW  Elec       q    Type
REMARK                         _______ _______ _______ _____ _____    ______ ____
ROOT
ATOM      1  N   UNL     1       6.490  -3.937   1.480  0.00  0.00    -0.354 N 
ATOM      2  N   UNL     1       4.368  -3.550   0.637  0.00  0.00    -0.372 N 
ATOM      3  N   UNL     1       4.758  -5.479   1.817  0.00  0.00    -0.372 N 
ATOM      4  C   UNL     1       5.219  -4.327   1.318  0.00  0.00    +0.166 C 
ATOM      5  H   UNL     1       6.785  -3.068   1.051  0.00  0.00    +0.163 HD
ATOM      6  H   UNL     1       3.402  -3.817   0.501  0.00  0.00    +0.159 HD
ATOM      7  H   UNL     1       4.653  -2.660   0.248  0.00  0.00    +0.159 HD
ATOM      8  H   UNL     1       5.350  -6.113   2.336  0.00  0.00    +0.159 HD
ATOM      9  H   UNL     1       3.797  -5.769   1.682  0.00  0.00    +0.159 HD
ENDROOT
BRANCH   1  10
ATOM     10  C   UNL     1       7.483  -4.684   2.250  0.00  0.00    +0.151 C 
BRANCH  10  11
ATOM     11  C   UNL     1       7.447  -4.219   3.680  0.00  0.00    -0.028 A 
ATOM     12  C   UNL     1       7.592  -2.859   3.990  0.00  0.00    +0.005 A 
ATOM     13  C   UNL     1       7.262  -5.132   4.729  0.00  0.00    +0.005 A 
ATOM     14  C   UNL     1       7.529  -2.422   5.315  0.00  0.00    +0.000 A 
ATOM     15  C   UNL     1       7.200  -4.693   6.051  0.00  0.00    +0.000 A 
ATOM     16  C   UNL     1       7.331  -3.337   6.344  0.00  0.00    +0.000 A 
ENDBRANCH  10  11
ENDBRANCH   1  10
TORSDOF 2
ENDMDL
MODEL 8
REMARK VINA RESULT:    -5.469      3.046      3.966
REMARK INTER + INTRA:          -6.251
REMARK INTER:                  -6.145
REMARK INTRA:                  -0.106
REMARK UNBOUND:                -0.142
REMARK  Name = 1550473
REMARK  2 active torsions:
REMARK  status: ('A' for Active; 'I' for Inactive)
REMARK    1  A    between atoms: N_1  and  C_4
REMARK    2  A    between atoms: C_4  and  C_5
REMARK                            x       y       z     vdW  Elec       q    Type
REMARK                         _______ _______ _______ _____ _____    ______ ____
ROOT
ATOM      1  N   UNL     1       8.751   0.586   8.745  0.00  0.00    -0.354 N 
ATOM      2  N   UNL     1       8.509   0.908  11.026  0.00  0.00    -0.372 N 
ATOM      3  N   UNL     1      10.206  -0.439  10.269  0.00  0.00    -0.372 N 
ATOM      4  C   UNL     1       9.159   0.347   9.998  0.00  0.00    +0.166 C 
ATOM      5  H   UNL     1       7.932   1.167   8.607  0.00  0.00    +0.163 HD
ATOM      6  H   UNL     1       8.796   0.749  11.982  0.00  0.00    +0.159 HD
ATOM      7  H   UNL     1       7.719   1.525  10.883  0.00  0.00    +0.159 HD
ATOM      8  H   UNL     1      10.735  -0.897   9.539  0.00  0.00    +0.159 HD
ATOM      9  H   UNL     1      10.501  -0.620  11.221  0.00  0.00    +0.159 HD
ENDROOT
BRANCH   1  10
ATOM     10  C   UNL     1       9.423   0.068   7.554  0.00  0.00    +0.151 C 
BRANCH  10  11
ATOM     11  C   UNL     1       9.266   1.058   6.432  0.00  0.00    -0.028 A 
ATOM     12  C   UNL     1      10.105   2.179   6.350  0.00  0.00    +0.005 A 
ATOM     13  C   UNL     1       8.285   0.877   5.445  0.00  0.00    +0.005 A 
ATOM     14  C   UNL     1       9.980   3.082   5.292  0.00  0.00    +0.000 A 
ATOM     15  C   UNL     1       8.163   1.781   4.391  0.00  0.00    +0.000 A 
ATOM     16  C   UNL     1       9.012   2.883   4.313  0.00  0.00    +0.000 A 
ENDBRANCH  10  11
ENDBRANCH   1  10
TORSDOF 2
ENDMDL
MODEL 9
REMARK VINA RESULT:    -5.378      2.020      2.895
REMARK INTER + INTRA:          -6.149
REMARK INTER:                  -5.987
REMARK INTRA:                  -0.163
REMARK UNBOUND:                -0.142
REMARK  Name = 1550473
REMARK  2 active torsions:
REMARK  status: ('A' for Active; 'I' for Inactive)
REMARK    1  A    between atoms: N_1  and  C_4
REMARK    2  A    between atoms: C_4  and  C_5
REMARK                            x       y       z     vdW  Elec       q    Type
REMARK                         _______ _______ _______ _____ _____    ______ ____
ROOT
ATOM      1  N   UNL     1       7.673  -1.681   5.356  0.00  0.00    -0.354 N 
ATOM      2  N   UNL     1       7.010  -3.092   7.068  0.00  0.00    -0.372 N 
ATOM      3  N   UNL     1       9.113  -3.335   6.183  0.00  0.00    -0.372 N 
ATOM      4  C   UNL     1       7.939  -2.694   6.191  0.00  0.00    +0.166 C 
ATOM      5  H   UNL     1       6.753  -1.256   5.391  0.00  0.00    +0.163 HD
ATOM      6  H   UNL     1       7.182  -3.851   7.713  0.00  0.00    +0.159 HD
ATOM      7  H   UNL     1       6.108  -2.636   7.133  0.00  0.00    +0.159 HD
ATOM      8  H   UNL     1       9.853  -3.087   5.541  0.00  0.00    +0.159 HD
ATOM      9  H   UNL     1       9.300  -4.105   6.813  0.00  0.00    +0.159 HD
ENDROOT
BRANCH   1  10
ATOM     10  C   UNL     1       8.635  -1.136   4.399  0.00  0.00    +0.151 C 
BRANCH  10  11
ATOM     11  C   UNL     1       8.964   0.280   4.786  0.00  0.00    -0.028 A 
ATOM     12  C   UNL     1       9.848   0.542   5.842  0.00  0.00    +0.005 A 
ATOM     13  C   UNL     1       8.399   1.363   4.095  0.00  0.00    +0.005 A 
ATOM     14  C   UNL     1      10.177   1.857   6.182  0.00  0.00    +0.000 A 
ATOM     15  C   UNL     1       8.730   2.674   4.438  0.00  0.00    +0.000 A 
ATOM     16  C   UNL     1       9.621   2.920   5.480  0.00  0.00    +0.000 A 
ENDBRANCH  10  11
ENDBRANCH   1  10
TORSDOF 2
ENDMDL
