MODEL 1
REMARK VINA RESULT:    -5.045      0.000      0.000
REMARK INTER + INTRA:          -5.769
REMARK INTER:                  -5.634
REMARK INTRA:                  -0.135
REMARK UNBOUND:                -0.135
REMARK  Name = 1550473
REMARK  2 active torsions:
REMARK  status: ('A' for Active; 'I' for Inactive)
REMARK    1  A    between atoms: N_1  and  C_4
REMARK    2  A    between atoms: C_4  and  C_5
REMARK                            x       y       z     vdW  Elec       q    Type
REMARK                         _______ _______ _______ _____ _____    ______ ____
ROOT
ATOM      1  N   UNL     1      -2.258  11.013  -1.098  0.00  0.00    -0.354 N 
ATOM      2  N   UNL     1      -4.225  12.006  -1.813  0.00  0.00    -0.372 N 
ATOM      3  N   UNL     1      -4.337  10.289  -0.295  0.00  0.00    -0.372 N 
ATOM      4  C   UNL     1      -3.595  11.094  -1.063  0.00  0.00    +0.166 C 
ATOM      5  H   UNL     1      -1.755  11.632  -1.724  0.00  0.00    +0.163 HD
ATOM      6  H   UNL     1      -5.232  12.093  -1.804  0.00  0.00    +0.159 HD
ATOM      7  H   UNL     1      -3.716  12.654  -2.403  0.00  0.00    +0.159 HD
ATOM      8  H   UNL     1      -3.923   9.576   0.291  0.00  0.00    +0.159 HD
ATOM      9  H   UNL     1      -5.347  10.353  -0.281  0.00  0.00    +0.159 HD
ENDROOT
BRANCH   1  10
ATOM     10  C   UNL     1      -1.472  10.091  -0.280  0.00  0.00    +0.151 C 
BRANCH  10  11
ATOM     11  C   UNL     1      -0.264  10.813   0.250  0.00  0.00    -0.028 A 
ATOM     12  C   UNL     1       0.497  10.259   1.290  0.00  0.00    +0.005 A 
ATOM     13  C   UNL     1       0.128  12.049  -0.287  0.00  0.00    +0.005 A 
ATOM     14  C   UNL     1       1.637  10.914   1.762  0.00  0.00    +0.000 A 
ATOM     15  C   UNL     1       1.266  12.700   0.188  0.00  0.00    +0.000 A 
ATOM     16  C   UNL     1       2.022  12.132   1.210  0.00  0.00    +0.000 A 
ENDBRANCH  10  11
ENDBRANCH   1  10
TORSDOF 2
ENDMDL
MODEL 2
REMARK VINA RESULT:    -4.903     17.396     19.061
REMARK INTER + INTRA:          -5.610
REMARK INTER:                  -5.487
REMARK INTRA:                  -0.123
REMARK UNBOUND:                -0.135
REMARK  Name = 1550473
REMARK  2 active torsions:
REMARK  status: ('A' for Active; 'I' for Inactive)
REMARK    1  A    between atoms: N_1  and  C_4
REMARK    2  A    between atoms: C_4  and  C_5
REMARK                            x       y       z     vdW  Elec       q    Type
REMARK                         _______ _______ _______ _____ _____    ______ ____
ROOT
ATOM      1  N   UNL     1       9.462   0.551   9.577  0.00  0.00    -0.354 N 
ATOM      2  N   UNL     1       8.637   0.761   7.423  0.00  0.00    -0.372 N 
ATOM      3  N   UNL     1       9.424   2.630   8.496  0.00  0.00    -0.372 N 
ATOM      4  C   UNL     1       9.180   1.315   8.514  0.00  0.00    +0.166 C 
ATOM      5  H   UNL     1       9.225  -0.434   9.539  0.00  0.00    +0.163 HD
ATOM      6  H   UNL     1       8.416   1.311   6.604  0.00  0.00    +0.159 HD
ATOM      7  H   UNL     1       8.443  -0.232   7.371  0.00  0.00    +0.159 HD
ATOM      8  H   UNL     1       9.828   3.110   9.289  0.00  0.00    +0.159 HD
ATOM      9  H   UNL     1       9.200   3.200   7.690  0.00  0.00    +0.159 HD
ENDROOT
BRANCH   1  10
ATOM     10  C   UNL     1      10.104   1.047  10.793  0.00  0.00    +0.151 C 
BRANCH  10  11
ATOM     11  C   UNL     1       9.690   0.184  11.954  0.00  0.00    -0.028 A 
ATOM     12  C   UNL     1       8.363  -0.249  12.081  0.00  0.00    +0.005 A 
ATOM     13  C   UNL     1      10.623  -0.208  12.926  0.00  0.00    +0.005 A 
ATOM     14  C   UNL     1       7.985  -1.075  13.143  0.00  0.00    +0.000 A 
ATOM     15  C   UNL     1      10.241  -1.032  13.985  0.00  0.00    +0.000 A 
ATOM     16  C   UNL     1       8.923  -1.467  14.091  0.00  0.00    +0.000 A 
ENDBRANCH  10  11
ENDBRANCH   1  10
TORSDOF 2
ENDMDL
MODEL 3
REMARK VINA RESULT:    -4.686     12.003     13.167
REMARK INTER + INTRA:          -5.368
REMARK INTER:                  -5.212
REMARK INTRA:                  -0.156
REMARK UNBOUND:                -0.135
REMARK  Name = 1550473
REMARK  2 active torsions:
REMARK  status: ('A' for Active; 'I' for Inactive)
REMARK    1  A    between atoms: N_1  and  C_4
REMARK    2  A    between atoms: C_4  and  C_5
REMARK                            x       y       z     vdW  Elec       q    Type
REMARK                         _______ _______ _______ _____ _____    ______ ____
ROOT
ATOM      1  N   UNL     1     -10.152  11.030  -9.391  0.00  0.00    -0.354 N 
ATOM      2  N   UNL     1      -8.447  12.574  -9.662  0.00  0.00    -0.372 N 
ATOM      3  N   UNL     1      -9.921  12.842  -7.924  0.00  0.00    -0.372 N 
ATOM      4  C   UNL     1      -9.519  12.140  -8.988  0.00  0.00    +0.166 C 
ATOM      5  H   UNL     1      -9.816  10.560 -10.224  0.00  0.00    +0.163 HD
ATOM      6  H   UNL     1      -7.947  13.406  -9.379  0.00  0.00    +0.159 HD
ATOM      7  H   UNL     1      -8.086  12.076 -10.466  0.00  0.00    +0.159 HD
ATOM      8  H   UNL     1     -10.727  12.571  -7.376  0.00  0.00    +0.159 HD
ATOM      9  H   UNL     1      -9.441  13.684  -7.632  0.00  0.00    +0.159 HD
ENDROOT
BRANCH   1  10
ATOM     10  C   UNL     1     -11.297  10.443  -8.697  0.00  0.00    +0.151 C 
BRANCH  10  11
ATOM     11  C   UNL     1     -10.935   9.057  -8.239  0.00  0.00    -0.028 A 
ATOM     12  C   UNL     1     -10.028   8.869  -7.186  0.00  0.00    +0.005 A 
ATOM     13  C   UNL     1     -11.501   7.927  -8.849  0.00  0.00    +0.005 A 
ATOM     14  C   UNL     1      -9.715   7.583  -6.740  0.00  0.00    +0.000 A 
ATOM     15  C   UNL     1     -11.186   6.645  -8.402  0.00  0.00    +0.000 A 
ATOM     16  C   UNL     1     -10.294   6.473  -7.346  0.00  0.00    +0.000 A 
ENDBRANCH  10  11
ENDBRANCH   1  10
TORSDOF 2
ENDMDL
MODEL 4
REMARK VINA RESULT:    -4.613     25.518     26.774
REMARK INTER + INTRA:          -5.287
REMARK INTER:                  -5.177
REMARK INTRA:                  -0.110
REMARK UNBOUND:                -0.135
REMARK  Name = 1550473
REMARK  2 active torsions:
REMARK  status: ('A' for Active; 'I' for Inactive)
REMARK    1  A    between atoms: N_1  and  C_4
REMARK    2  A    between atoms: C_4  and  C_5
REMARK                            x       y       z     vdW  Elec       q    Type
REMARK                         _______ _______ _______ _____ _____    ______ ____
ROOT
ATOM      1  N   UNL     1      -7.168  -9.388 -16.888  0.00  0.00    -0.354 N 
ATOM      2  N   UNL     1      -7.495 -10.904 -15.168  0.00  0.00    -0.372 N 
ATOM      3  N   UNL     1      -6.204 -11.523 -16.961  0.00  0.00    -0.372 N 
ATOM      4  C   UNL     1      -6.952 -10.597 -16.352  0.00  0.00    +0.166 C 
ATOM      5  H   UNL     1      -7.770  -8.742 -16.391  0.00  0.00    +0.163 HD
ATOM      6  H   UNL     1      -7.346 -11.807 -14.737  0.00  0.00    +0.159 HD
ATOM      7  H   UNL     1      -8.058 -10.240 -14.651  0.00  0.00    +0.159 HD
ATOM      8  H   UNL     1      -5.771 -11.355 -17.860  0.00  0.00    +0.159 HD
ATOM      9  H   UNL     1      -6.053 -12.436 -16.551  0.00  0.00    +0.159 HD
ENDROOT
BRANCH   1  10
ATOM     10  C   UNL     1      -6.579  -8.935 -18.147  0.00  0.00    +0.151 C 
BRANCH  10  11
ATOM     11  C   UNL     1      -6.454  -7.437 -18.119  0.00  0.00    -0.028 A 
ATOM     12  C   UNL     1      -5.296  -6.810 -18.601  0.00  0.00    +0.005 A 
ATOM     13  C   UNL     1      -7.493  -6.638 -17.617  0.00  0.00    +0.005 A 
ATOM     14  C   UNL     1      -5.192  -5.417 -18.604  0.00  0.00    +0.000 A 
ATOM     15  C   UNL     1      -7.385  -5.247 -17.620  0.00  0.00    +0.000 A 
ATOM     16  C   UNL     1      -6.235  -4.637 -18.116  0.00  0.00    +0.000 A 
ENDBRANCH  10  11
ENDBRANCH   1  10
TORSDOF 2
ENDMDL
MODEL 5
REMARK VINA RESULT:    -4.590     12.063     13.428
REMARK INTER + INTRA:          -5.261
REMARK INTER:                  -5.087
REMARK INTRA:                  -0.174
REMARK UNBOUND:                -0.135
REMARK  Name = 1550473
REMARK  2 active torsions:
REMARK  status: ('A' for Active; 'I' for Inactive)
REMARK    1  A    between atoms: N_1  and  C_4
REMARK    2  A    between atoms: C_4  and  C_5
REMARK                            x       y       z     vdW  Elec       q    Type
REMARK                         _______ _______ _______ _____ _____    ______ ____
ROOT
ATOM      1  N   UNL     1     -12.684   5.077  -3.889  0.00  0.00    -0.354 N 
ATOM      2  N   UNL     1     -11.961   3.564  -2.292  0.00  0.00    -0.372 N 
ATOM      3  N   UNL     1     -11.376   5.772  -2.073  0.00  0.00    -0.372 N 
ATOM      4  C   UNL     1     -12.010   4.816  -2.761  0.00  0.00    +0.166 C 
ATOM      5  H   UNL     1     -13.118   4.304  -4.380  0.00  0.00    +0.163 HD
ATOM      6  H   UNL     1     -11.464   3.337  -1.441  0.00  0.00    +0.159 HD
ATOM      7  H   UNL     1     -12.435   2.801  -2.760  0.00  0.00    +0.159 HD
ATOM      8  H   UNL     1     -11.370   6.736  -2.377  0.00  0.00    +0.159 HD
ATOM      9  H   UNL     1     -10.863   5.563  -1.226  0.00  0.00    +0.159 HD
ENDROOT
BRANCH   1  10
ATOM     10  C   UNL     1     -12.844   6.415  -4.456  0.00  0.00    +0.151 C 
BRANCH  10  11
ATOM     11  C   UNL     1     -11.927   6.561  -5.639  0.00  0.00    -0.028 A 
ATOM     12  C   UNL     1     -12.387   6.279  -6.934  0.00  0.00    +0.005 A 
ATOM     13  C   UNL     1     -10.600   6.985  -5.473  0.00  0.00    +0.005 A 
ATOM     14  C   UNL     1     -11.545   6.442  -8.037  0.00  0.00    +0.000 A 
ATOM     15  C   UNL     1      -9.762   7.146  -6.576  0.00  0.00    +0.000 A 
ATOM     16  C   UNL     1     -10.236   6.877  -7.858  0.00  0.00    +0.000 A 
ENDBRANCH  10  11
ENDBRANCH   1  10
TORSDOF 2
ENDMDL
MODEL 6
REMARK VINA RESULT:    -4.578     25.325     26.524
REMARK INTER + INTRA:          -5.248
REMARK INTER:                  -5.099
REMARK INTRA:                  -0.149
REMARK UNBOUND:                -0.135
REMARK  Name = 1550473
REMARK  2 active torsions:
REMARK  status: ('A' for Active; 'I' for Inactive)
REMARK    1  A    between atoms: N_1  and  C_4
REMARK    2  A    between atoms: C_4  and  C_5
REMARK                            x       y       z     vdW  Elec       q    Type
REMARK                         _______ _______ _______ _____ _____    ______ ____
ROOT
ATOM      1  N   UNL     1      -7.664  -7.968 -17.711  0.00  0.00    -0.354 N 
ATOM      2  N   UNL     1      -7.049 -10.184 -17.982  0.00  0.00    -0.372 N 
ATOM      3  N   UNL     1      -5.717  -8.810 -16.716  0.00  0.00    -0.372 N 
ATOM      4  C   UNL     1      -6.811  -8.972 -17.466  0.00  0.00    +0.166 C 
ATOM      5  H   UNL     1      -8.459  -8.147 -18.313  0.00  0.00    +0.163 HD
ATOM      6  H   UNL     1      -6.425 -10.962 -17.812  0.00  0.00    +0.159 HD
ATOM      7  H   UNL     1      -7.869 -10.372 -18.545  0.00  0.00    +0.159 HD
ATOM      8  H   UNL     1      -5.477  -7.919 -16.303  0.00  0.00    +0.159 HD
ATOM      9  H   UNL     1      -5.074  -9.574 -16.544  0.00  0.00    +0.159 HD
ENDROOT
BRANCH   1  10
ATOM     10  C   UNL     1      -7.525  -6.623 -17.153  0.00  0.00    +0.151 C 
BRANCH  10  11
ATOM     11  C   UNL     1      -7.292  -5.648 -18.274  0.00  0.00    -0.028 A 
ATOM     12  C   UNL     1      -6.388  -4.587 -18.118  0.00  0.00    +0.005 A 
ATOM     13  C   UNL     1      -7.967  -5.783 -19.497  0.00  0.00    +0.005 A 
ATOM     14  C   UNL     1      -6.148  -3.699 -19.169  0.00  0.00    +0.000 A 
ATOM     15  C   UNL     1      -7.725  -4.893 -20.543  0.00  0.00    +0.000 A 
ATOM     16  C   UNL     1      -6.814  -3.853 -20.380  0.00  0.00    +0.000 A 
ENDBRANCH  10  11
ENDBRANCH   1  10
TORSDOF 2
ENDMDL
MODEL 7
REMARK VINA RESULT:    -4.575     13.743     15.011
REMARK INTER + INTRA:          -5.245
REMARK INTER:                  -5.092
REMARK INTRA:                  -0.153
REMARK UNBOUND:                -0.135
REMARK  Name = 1550473
REMARK  2 active torsions:
REMARK  status: ('A' for Active; 'I' for Inactive)
REMARK    1  A    between atoms: N_1  and  C_4
REMARK    2  A    between atoms: C_4  and  C_5
REMARK                            x       y       z     vdW  Elec       q    Type
REMARK                         _______ _______ _______ _____ _____    ______ ____
ROOT
ATOM      1  N   UNL     1      12.925   8.425  -6.399  0.00  0.00    -0.354 N 
ATOM      2  N   UNL     1      13.712   7.521  -4.417  0.00  0.00    -0.372 N 
ATOM      3  N   UNL     1      13.299   9.776  -4.521  0.00  0.00    -0.372 N 
ATOM      4  C   UNL     1      13.307   8.582  -5.125  0.00  0.00    +0.166 C 
ATOM      5  H   UNL     1      12.982   7.499  -6.808  0.00  0.00    +0.163 HD
ATOM      6  H   UNL     1      14.003   7.608  -3.453  0.00  0.00    +0.159 HD
ATOM      7  H   UNL     1      13.725   6.589  -4.815  0.00  0.00    +0.159 HD
ATOM      8  H   UNL     1      13.010  10.617  -5.001  0.00  0.00    +0.159 HD
ATOM      9  H   UNL     1      13.598   9.885  -3.560  0.00  0.00    +0.159 HD
ENDROOT
BRANCH   1  10
ATOM     10  C   UNL     1      12.416   9.507  -7.240  0.00  0.00    +0.151 C 
BRANCH  10  11
ATOM     11  C   UNL     1      10.984   9.219  -7.599  0.00  0.00    -0.028 A 
ATOM     12  C   UNL     1       9.936   9.828  -6.894  0.00  0.00    +0.005 A 
ATOM     13  C   UNL     1      10.669   8.340  -8.647  0.00  0.00    +0.005 A 
ATOM     14  C   UNL     1       8.607   9.584  -7.247  0.00  0.00    +0.000 A 
ATOM     15  C   UNL     1       9.341   8.098  -8.996  0.00  0.00    +0.000 A 
ATOM     16  C   UNL     1       8.310   8.722  -8.297  0.00  0.00    +0.000 A 
ENDBRANCH  10  11
ENDBRANCH   1  10
TORSDOF 2
ENDMDL
MODEL 8
REMARK VINA RESULT:    -4.502      4.214      5.762
REMARK INTER + INTRA:          -5.163
REMARK INTER:                  -4.986
REMARK INTRA:                  -0.178
REMARK UNBOUND:                -0.135
REMARK  Name = 1550473
REMARK  2 active torsions:
REMARK  status: ('A' for Active; 'I' for Inactive)
REMARK    1  A    between atoms: N_1  and  C_4
REMARK    2  A    between atoms: C_4  and  C_5
REMARK                            x       y       z     vdW  Elec       q    Type
REMARK                         _______ _______ _______ _____ _____    ______ ____
ROOT
ATOM      1  N   UNL     1       3.406  10.446   1.994  0.00  0.00    -0.354 N 
ATOM      2  N   UNL     1       5.604  10.169   1.320  0.00  0.00    -0.372 N 
ATOM      3  N   UNL     1       4.736  12.290   1.426  0.00  0.00    -0.372 N 
ATOM      4  C   UNL     1       4.567  10.973   1.584  0.00  0.00    +0.166 C 
ATOM      5  H   UNL     1       3.333   9.437   2.065  0.00  0.00    +0.163 HD
ATOM      6  H   UNL     1       6.494  10.538   1.013  0.00  0.00    +0.159 HD
ATOM      7  H   UNL     1       5.543   9.165   1.436  0.00  0.00    +0.159 HD
ATOM      8  H   UNL     1       3.990  12.950   1.603  0.00  0.00    +0.159 HD
ATOM      9  H   UNL     1       5.615  12.678   1.108  0.00  0.00    +0.159 HD
ENDROOT
BRANCH   1  10
ATOM     10  C   UNL     1       2.232  11.237   2.359  0.00  0.00    +0.151 C 
BRANCH  10  11
ATOM     11  C   UNL     1       1.210  11.134   1.261  0.00  0.00    -0.028 A 
ATOM     12  C   UNL     1       0.430   9.977   1.121  0.00  0.00    +0.005 A 
ATOM     13  C   UNL     1       1.011  12.192   0.362  0.00  0.00    +0.005 A 
ATOM     14  C   UNL     1      -0.541   9.892   0.121  0.00  0.00    +0.000 A 
ATOM     15  C   UNL     1       0.041  12.104  -0.637  0.00  0.00    +0.000 A 
ATOM     16  C   UNL     1      -0.737  10.955  -0.755  0.00  0.00    +0.000 A 
ENDBRANCH  10  11
ENDBRANCH   1  10
TORSDOF 2
ENDMDL
MODEL 9
REMARK VINA RESULT:    -4.411     20.174     21.075
REMARK INTER + INTRA:          -5.061
REMARK INTER:                  -4.944
REMARK INTRA:                  -0.117
REMARK UNBOUND:                -0.135
REMARK  Name = 1550473
REMARK  2 active torsions:
REMARK  status: ('A' for Active; 'I' for Inactive)
REMARK    1  A    between atoms: N_1  and  C_4
REMARK    2  A    between atoms: C_4  and  C_5
REMARK                            x       y       z     vdW  Elec       q    Type
REMARK                         _______ _______ _______ _____ _____    ______ ____
ROOT
ATOM      1  N   UNL     1      -6.283   5.963 -19.892  0.00  0.00    -0.354 N 
ATOM      2  N   UNL     1      -8.454   6.005 -20.697  0.00  0.00    -0.372 N 
ATOM      3  N   UNL     1      -7.936   7.248 -18.839  0.00  0.00    -0.372 N 
ATOM      4  C   UNL     1      -7.544   6.406 -19.802  0.00  0.00    +0.166 C 
ATOM      5  H   UNL     1      -6.057   5.303 -20.627  0.00  0.00    +0.163 HD
ATOM      6  H   UNL     1      -9.413   6.325 -20.656  0.00  0.00    +0.159 HD
ATOM      7  H   UNL     1      -8.214   5.381 -21.458  0.00  0.00    +0.159 HD
ATOM      8  H   UNL     1      -7.299   7.584 -18.129  0.00  0.00    +0.159 HD
ATOM      9  H   UNL     1      -8.893   7.571 -18.775  0.00  0.00    +0.159 HD
ENDROOT
BRANCH   1  10
ATOM     10  C   UNL     1      -5.203   6.381 -19.000  0.00  0.00    +0.151 C 
BRANCH  10  11
ATOM     11  C   UNL     1      -3.994   6.732 -19.823  0.00  0.00    -0.028 A 
ATOM     12  C   UNL     1      -3.398   7.997 -19.709  0.00  0.00    +0.005 A 
ATOM     13  C   UNL     1      -3.437   5.802 -20.714  0.00  0.00    +0.005 A 
ATOM     14  C   UNL     1      -2.258   8.312 -20.451  0.00  0.00    +0.000 A 
ATOM     15  C   UNL     1      -2.298   6.122 -21.453  0.00  0.00    +0.000 A 
ATOM     16  C   UNL     1      -1.707   7.376 -21.320  0.00  0.00    +0.000 A 
ENDBRANCH  10  11
ENDBRANCH   1  10
TORSDOF 2
ENDMDL
