MODEL 1
REMARK VINA RESULT:    -5.469      0.000      0.000
REMARK INTER + INTRA:          -6.229
REMARK INTER:                  -6.108
REMARK INTRA:                  -0.121
REMARK UNBOUND:                -0.121
REMARK  Name = 1550473
REMARK  2 active torsions:
REMARK  status: ('A' for Active; 'I' for Inactive)
REMARK    1  A    between atoms: N_1  and  C_4
REMARK    2  A    between atoms: C_4  and  C_5
REMARK                            x       y       z     vdW  Elec       q    Type
REMARK                         _______ _______ _______ _____ _____    ______ ____
ROOT
ATOM      1  N   UNL     1      13.820  -4.107   5.617  0.00  0.00    -0.354 N 
ATOM      2  N   UNL     1      16.044  -3.476   5.476  0.00  0.00    -0.372 N 
ATOM      3  N   UNL     1      15.084  -3.704   7.548  0.00  0.00    -0.372 N 
ATOM      4  C   UNL     1      14.967  -3.766   6.217  0.00  0.00    +0.166 C 
ATOM      5  H   UNL     1      13.788  -4.107   4.603  0.00  0.00    +0.163 HD
ATOM      6  H   UNL     1      16.924  -3.218   5.902  0.00  0.00    +0.159 HD
ATOM      7  H   UNL     1      16.022  -3.520   4.465  0.00  0.00    +0.159 HD
ATOM      8  H   UNL     1      14.307  -3.906   8.164  0.00  0.00    +0.159 HD
ATOM      9  H   UNL     1      15.954  -3.437   7.992  0.00  0.00    +0.159 HD
ENDROOT
BRANCH   1  10
ATOM     10  C   UNL     1      12.605  -4.494   6.333  0.00  0.00    +0.151 C 
BRANCH  10  11
ATOM     11  C   UNL     1      12.220  -5.890   5.927  0.00  0.00    -0.028 A 
ATOM     12  C   UNL     1      10.899  -6.337   6.080  0.00  0.00    +0.005 A 
ATOM     13  C   UNL     1      13.170  -6.769   5.384  0.00  0.00    +0.005 A 
ATOM     14  C   UNL     1      10.534  -7.623   5.676  0.00  0.00    +0.000 A 
ATOM     15  C   UNL     1      12.801  -8.053   4.983  0.00  0.00    +0.000 A 
ATOM     16  C   UNL     1      11.483  -8.479   5.126  0.00  0.00    +0.000 A 
ENDBRANCH  10  11
ENDBRANCH   1  10
TORSDOF 2
ENDMDL
MODEL 2
REMARK VINA RESULT:    -4.985      0.644      1.825
REMARK INTER + INTRA:          -5.689
REMARK INTER:                  -5.541
REMARK INTRA:                  -0.148
REMARK UNBOUND:                -0.121
REMARK  Name = 1550473
REMARK  2 active torsions:
REMARK  status: ('A' for Active; 'I' for Inactive)
REMARK    1  A    between atoms: N_1  and  C_4
REMARK    2  A    between atoms: C_4  and  C_5
REMARK                            x       y       z     vdW  Elec       q    Type
REMARK                         _______ _______ _______ _____ _____    ______ ____
ROOT
ATOM      1  N   UNL     1      13.446  -4.394   7.075  0.00  0.00    -0.354 N 
ATOM      2  N   UNL     1      15.527  -3.875   7.948  0.00  0.00    -0.372 N 
ATOM      3  N   UNL     1      15.194  -3.683   5.686  0.00  0.00    -0.372 N 
ATOM      4  C   UNL     1      14.709  -3.987   6.895  0.00  0.00    +0.166 C 
ATOM      5  H   UNL     1      13.148  -4.639   8.012  0.00  0.00    +0.163 HD
ATOM      6  H   UNL     1      16.484  -3.566   7.844  0.00  0.00    +0.159 HD
ATOM      7  H   UNL     1      15.213  -4.076   8.890  0.00  0.00    +0.159 HD
ATOM      8  H   UNL     1      14.630  -3.752   4.850  0.00  0.00    +0.159 HD
ATOM      9  H   UNL     1      16.153  -3.383   5.560  0.00  0.00    +0.159 HD
ENDROOT
BRANCH   1  10
ATOM     10  C   UNL     1      12.459  -4.499   6.001  0.00  0.00    +0.151 C 
BRANCH  10  11
ATOM     11  C   UNL     1      12.114  -5.947   5.790  0.00  0.00    -0.028 A 
ATOM     12  C   UNL     1      13.088  -6.854   5.348  0.00  0.00    +0.005 A 
ATOM     13  C   UNL     1      10.816  -6.420   6.036  0.00  0.00    +0.005 A 
ATOM     14  C   UNL     1      12.775  -8.206   5.181  0.00  0.00    +0.000 A 
ATOM     15  C   UNL     1      10.507  -7.769   5.868  0.00  0.00    +0.000 A 
ATOM     16  C   UNL     1      11.488  -8.662   5.442  0.00  0.00    +0.000 A 
ENDBRANCH  10  11
ENDBRANCH   1  10
TORSDOF 2
ENDMDL
MODEL 3
REMARK VINA RESULT:    -4.898     24.561     25.379
REMARK INTER + INTRA:          -5.592
REMARK INTER:                  -5.492
REMARK INTRA:                  -0.100
REMARK UNBOUND:                -0.121
REMARK  Name = 1550473
REMARK  2 active torsions:
REMARK  status: ('A' for Active; 'I' for Inactive)
REMARK    1  A    between atoms: N_1  and  C_4
REMARK    2  A    between atoms: C_4  and  C_5
REMARK                            x       y       z     vdW  Elec       q    Type
REMARK                         _______ _______ _______ _____ _____    ______ ____
ROOT
ATOM      1  N   UNL     1      -5.328  -1.052 -11.173  0.00  0.00    -0.354 N 
ATOM      2  N   UNL     1      -7.638  -1.117 -11.029  0.00  0.00    -0.372 N 
ATOM      3  N   UNL     1      -6.405  -1.163  -9.095  0.00  0.00    -0.372 N 
ATOM      4  C   UNL     1      -6.441  -1.111 -10.431  0.00  0.00    +0.166 C 
ATOM      5  H   UNL     1      -5.422  -1.045 -12.182  0.00  0.00    +0.163 HD
ATOM      6  H   UNL     1      -8.496  -1.157 -10.495  0.00  0.00    +0.159 HD
ATOM      7  H   UNL     1      -7.731  -1.064 -12.037  0.00  0.00    +0.159 HD
ATOM      8  H   UNL     1      -5.533  -1.168  -8.583  0.00  0.00    +0.159 HD
ATOM      9  H   UNL     1      -7.252  -1.216  -8.543  0.00  0.00    +0.159 HD
ENDROOT
BRANCH   1  10
ATOM     10  C   UNL     1      -3.977  -0.986 -10.617  0.00  0.00    +0.151 C 
BRANCH  10  11
ATOM     11  C   UNL     1      -3.075  -0.293 -11.601  0.00  0.00    -0.028 A 
ATOM     12  C   UNL     1      -2.325  -1.035 -12.525  0.00  0.00    +0.005 A 
ATOM     13  C   UNL     1      -2.970   1.107 -11.617  0.00  0.00    +0.005 A 
ATOM     14  C   UNL     1      -1.510  -0.389 -13.458  0.00  0.00    +0.000 A 
ATOM     15  C   UNL     1      -2.154   1.747 -12.549  0.00  0.00    +0.000 A 
ATOM     16  C   UNL     1      -1.426   0.999 -13.472  0.00  0.00    +0.000 A 
ENDBRANCH  10  11
ENDBRANCH   1  10
TORSDOF 2
ENDMDL
MODEL 4
REMARK VINA RESULT:    -4.854     24.070     25.049
REMARK INTER + INTRA:          -5.543
REMARK INTER:                  -5.374
REMARK INTRA:                  -0.168
REMARK UNBOUND:                -0.121
REMARK  Name = 1550473
REMARK  2 active torsions:
REMARK  status: ('A' for Active; 'I' for Inactive)
REMARK    1  A    between atoms: N_1  and  C_4
REMARK    2  A    between atoms: C_4  and  C_5
REMARK                            x       y       z     vdW  Elec       q    Type
REMARK                         _______ _______ _______ _____ _____    ______ ____
ROOT
ATOM      1  N   UNL     1      -2.291  -0.385 -11.333  0.00  0.00    -0.354 N 
ATOM      2  N   UNL     1      -0.750  -0.759 -13.021  0.00  0.00    -0.372 N 
ATOM      3  N   UNL     1      -1.841   1.259 -12.942  0.00  0.00    -0.372 N 
ATOM      4  C   UNL     1      -1.638   0.043 -12.422  0.00  0.00    +0.166 C 
ATOM      5  H   UNL     1      -2.115  -1.328 -11.006  0.00  0.00    +0.163 HD
ATOM      6  H   UNL     1      -0.240  -0.462 -13.842  0.00  0.00    +0.159 HD
ATOM      7  H   UNL     1      -0.542  -1.684 -12.665  0.00  0.00    +0.159 HD
ATOM      8  H   UNL     1      -2.502   1.910 -12.540  0.00  0.00    +0.159 HD
ATOM      9  H   UNL     1      -1.348   1.569 -13.770  0.00  0.00    +0.159 HD
ENDROOT
BRANCH   1  10
ATOM     10  C   UNL     1      -3.238   0.430 -10.574  0.00  0.00    +0.151 C 
BRANCH  10  11
ATOM     11  C   UNL     1      -4.619  -0.144 -10.734  0.00  0.00    -0.028 A 
ATOM     12  C   UNL     1      -5.473   0.326 -11.742  0.00  0.00    +0.005 A 
ATOM     13  C   UNL     1      -5.076  -1.164  -9.885  0.00  0.00    +0.005 A 
ATOM     14  C   UNL     1      -6.745  -0.228 -11.910  0.00  0.00    +0.000 A 
ATOM     15  C   UNL     1      -6.346  -1.714 -10.056  0.00  0.00    +0.000 A 
ATOM     16  C   UNL     1      -7.179  -1.248 -11.070  0.00  0.00    +0.000 A 
ENDBRANCH  10  11
ENDBRANCH   1  10
TORSDOF 2
ENDMDL
MODEL 5
REMARK VINA RESULT:    -4.775     24.123     25.447
REMARK INTER + INTRA:          -5.455
REMARK INTER:                  -5.332
REMARK INTRA:                  -0.123
REMARK UNBOUND:                -0.121
REMARK  Name = 1550473
REMARK  2 active torsions:
REMARK  status: ('A' for Active; 'I' for Inactive)
REMARK    1  A    between atoms: N_1  and  C_4
REMARK    2  A    between atoms: C_4  and  C_5
REMARK                            x       y       z     vdW  Elec       q    Type
REMARK                         _______ _______ _______ _____ _____    ______ ____
ROOT
ATOM      1  N   UNL     1      -2.862  14.715   8.330  0.00  0.00    -0.354 N 
ATOM      2  N   UNL     1      -4.724  13.733   9.297  0.00  0.00    -0.372 N 
ATOM      3  N   UNL     1      -5.026  15.418   7.769  0.00  0.00    -0.372 N 
ATOM      4  C   UNL     1      -4.193  14.631   8.457  0.00  0.00    +0.166 C 
ATOM      5  H   UNL     1      -2.284  14.111   8.903  0.00  0.00    +0.163 HD
ATOM      6  H   UNL     1      -5.724  13.644   9.411  0.00  0.00    +0.159 HD
ATOM      7  H   UNL     1      -4.145  13.099   9.834  0.00  0.00    +0.159 HD
ATOM      8  H   UNL     1      -4.689  16.120   7.123  0.00  0.00    +0.159 HD
ATOM      9  H   UNL     1      -6.030  15.352   7.878  0.00  0.00    +0.159 HD
ENDROOT
BRANCH   1  10
ATOM     10  C   UNL     1      -2.185  15.621   7.404  0.00  0.00    +0.151 C 
BRANCH  10  11
ATOM     11  C   UNL     1      -0.865  15.021   7.006  0.00  0.00    -0.028 A 
ATOM     12  C   UNL     1      -0.233  15.415   5.818  0.00  0.00    +0.005 A 
ATOM     13  C   UNL     1      -0.239  14.061   7.816  0.00  0.00    +0.005 A 
ATOM     14  C   UNL     1       1.007  14.880   5.462  0.00  0.00    +0.000 A 
ATOM     15  C   UNL     1       1.000  13.529   7.457  0.00  0.00    +0.000 A 
ATOM     16  C   UNL     1       1.623  13.940   6.282  0.00  0.00    +0.000 A 
ENDBRANCH  10  11
ENDBRANCH   1  10
TORSDOF 2
ENDMDL
MODEL 6
REMARK VINA RESULT:    -4.714      2.197      2.797
REMARK INTER + INTRA:          -5.386
REMARK INTER:                  -5.220
REMARK INTRA:                  -0.166
REMARK UNBOUND:                -0.121
REMARK  Name = 1550473
REMARK  2 active torsions:
REMARK  status: ('A' for Active; 'I' for Inactive)
REMARK    1  A    between atoms: N_1  and  C_4
REMARK    2  A    between atoms: C_4  and  C_5
REMARK                            x       y       z     vdW  Elec       q    Type
REMARK                         _______ _______ _______ _____ _____    ______ ____
ROOT
ATOM      1  N   UNL     1      12.921  -5.025   8.234  0.00  0.00    -0.354 N 
ATOM      2  N   UNL     1      12.858  -5.110  10.547  0.00  0.00    -0.372 N 
ATOM      3  N   UNL     1      11.071  -4.215   9.421  0.00  0.00    -0.372 N 
ATOM      4  C   UNL     1      12.281  -4.781   9.385  0.00  0.00    +0.166 C 
ATOM      5  H   UNL     1      13.850  -5.429   8.275  0.00  0.00    +0.163 HD
ATOM      6  H   UNL     1      12.398  -4.942  11.432  0.00  0.00    +0.159 HD
ATOM      7  H   UNL     1      13.766  -5.556  10.584  0.00  0.00    +0.159 HD
ATOM      8  H   UNL     1      10.584  -3.938   8.579  0.00  0.00    +0.159 HD
ATOM      9  H   UNL     1      10.599  -4.027  10.297  0.00  0.00    +0.159 HD
ENDROOT
BRANCH   1  10
ATOM     10  C   UNL     1      12.359  -4.755   6.912  0.00  0.00    +0.151 C 
BRANCH  10  11
ATOM     11  C   UNL     1      12.076  -6.061   6.222  0.00  0.00    -0.028 A 
ATOM     12  C   UNL     1      10.790  -6.620   6.257  0.00  0.00    +0.005 A 
ATOM     13  C   UNL     1      13.088  -6.740   5.526  0.00  0.00    +0.005 A 
ATOM     14  C   UNL     1      10.520  -7.818   5.591  0.00  0.00    +0.000 A 
ATOM     15  C   UNL     1      12.814  -7.936   4.863  0.00  0.00    +0.000 A 
ATOM     16  C   UNL     1      11.529  -8.474   4.894  0.00  0.00    +0.000 A 
ENDBRANCH  10  11
ENDBRANCH   1  10
TORSDOF 2
ENDMDL
MODEL 7
REMARK VINA RESULT:    -4.532     24.461     25.380
REMARK INTER + INTRA:          -5.184
REMARK INTER:                  -5.005
REMARK INTRA:                  -0.178
REMARK UNBOUND:                -0.121
REMARK  Name = 1550473
REMARK  2 active torsions:
REMARK  status: ('A' for Active; 'I' for Inactive)
REMARK    1  A    between atoms: N_1  and  C_4
REMARK    2  A    between atoms: C_4  and  C_5
REMARK                            x       y       z     vdW  Elec       q    Type
REMARK                         _______ _______ _______ _____ _____    ______ ____
ROOT
ATOM      1  N   UNL     1      -2.020   0.784 -14.215  0.00  0.00    -0.354 N 
ATOM      2  N   UNL     1      -1.790  -0.994 -15.681  0.00  0.00    -0.372 N 
ATOM      3  N   UNL     1      -0.731  -1.089 -13.647  0.00  0.00    -0.372 N 
ATOM      4  C   UNL     1      -1.513  -0.422 -14.503  0.00  0.00    +0.166 C 
ATOM      5  H   UNL     1      -2.581   1.251 -14.918  0.00  0.00    +0.163 HD
ATOM      6  H   UNL     1      -1.425  -1.905 -15.925  0.00  0.00    +0.159 HD
ATOM      7  H   UNL     1      -2.388  -0.546 -16.364  0.00  0.00    +0.159 HD
ATOM      8  H   UNL     1      -0.480  -0.710 -12.744  0.00  0.00    +0.159 HD
ATOM      9  H   UNL     1      -0.347  -1.997 -13.878  0.00  0.00    +0.159 HD
ENDROOT
BRANCH   1  10
ATOM     10  C   UNL     1      -1.824   1.470 -12.939  0.00  0.00    +0.151 C 
BRANCH  10  11
ATOM     11  C   UNL     1      -2.984   1.163 -12.033  0.00  0.00    -0.028 A 
ATOM     12  C   UNL     1      -2.776   0.515 -10.806  0.00  0.00    +0.005 A 
ATOM     13  C   UNL     1      -4.292   1.522 -12.392  0.00  0.00    +0.005 A 
ATOM     14  C   UNL     1      -3.850   0.256  -9.950  0.00  0.00    +0.000 A 
ATOM     15  C   UNL     1      -5.361   1.261 -11.535  0.00  0.00    +0.000 A 
ATOM     16  C   UNL     1      -5.139   0.630 -10.313  0.00  0.00    +0.000 A 
ENDBRANCH  10  11
ENDBRANCH   1  10
TORSDOF 2
ENDMDL
MODEL 8
REMARK VINA RESULT:    -4.482      4.938      6.219
REMARK INTER + INTRA:          -5.128
REMARK INTER:                  -4.997
REMARK INTRA:                  -0.131
REMARK UNBOUND:                -0.121
REMARK  Name = 1550473
REMARK  2 active torsions:
REMARK  status: ('A' for Active; 'I' for Inactive)
REMARK    1  A    between atoms: N_1  and  C_4
REMARK    2  A    between atoms: C_4  and  C_5
REMARK                            x       y       z     vdW  Elec       q    Type
REMARK                         _______ _______ _______ _____ _____    ______ ____
ROOT
ATOM      1  N   UNL     1      10.367 -10.154   8.342  0.00  0.00    -0.354 N 
ATOM      2  N   UNL     1      10.910 -12.113   9.451  0.00  0.00    -0.372 N 
ATOM      3  N   UNL     1       9.201 -12.143   7.920  0.00  0.00    -0.372 N 
ATOM      4  C   UNL     1      10.154 -11.458   8.562  0.00  0.00    +0.166 C 
ATOM      5  H   UNL     1      11.085  -9.685   8.883  0.00  0.00    +0.163 HD
ATOM      6  H   UNL     1      10.775 -13.098   9.636  0.00  0.00    +0.159 HD
ATOM      7  H   UNL     1      11.657 -11.653   9.957  0.00  0.00    +0.159 HD
ATOM      8  H   UNL     1       8.592 -11.705   7.242  0.00  0.00    +0.159 HD
ATOM      9  H   UNL     1       9.043 -13.126   8.100  0.00  0.00    +0.159 HD
ENDROOT
BRANCH   1  10
ATOM     10  C   UNL     1       9.634  -9.361   7.357  0.00  0.00    +0.151 C 
BRANCH  10  11
ATOM     11  C   UNL     1      10.611  -8.533   6.568  0.00  0.00    -0.028 A 
ATOM     12  C   UNL     1      10.585  -7.133   6.648  0.00  0.00    +0.005 A 
ATOM     13  C   UNL     1      11.569  -9.143   5.743  0.00  0.00    +0.005 A 
ATOM     14  C   UNL     1      11.512  -6.364   5.939  0.00  0.00    +0.000 A 
ATOM     15  C   UNL     1      12.491  -8.372   5.036  0.00  0.00    +0.000 A 
ATOM     16  C   UNL     1      12.464  -6.983   5.137  0.00  0.00    +0.000 A 
ENDBRANCH  10  11
ENDBRANCH   1  10
TORSDOF 2
ENDMDL
MODEL 9
REMARK VINA RESULT:    -4.465     24.502     25.540
REMARK INTER + INTRA:          -5.109
REMARK INTER:                  -4.924
REMARK INTRA:                  -0.185
REMARK UNBOUND:                -0.121
REMARK  Name = 1550473
REMARK  2 active torsions:
REMARK  status: ('A' for Active; 'I' for Inactive)
REMARK    1  A    between atoms: N_1  and  C_4
REMARK    2  A    between atoms: C_4  and  C_5
REMARK                            x       y       z     vdW  Elec       q    Type
REMARK                         _______ _______ _______ _____ _____    ______ ____
ROOT
ATOM      1  N   UNL     1      -4.136   0.080 -11.782  0.00  0.00    -0.354 N 
ATOM      2  N   UNL     1      -1.892  -0.471 -11.942  0.00  0.00    -0.372 N 
ATOM      3  N   UNL     1      -2.854  -0.332  -9.863  0.00  0.00    -0.372 N 
ATOM      4  C   UNL     1      -2.975  -0.237 -11.192  0.00  0.00    +0.166 C 
ATOM      5  H   UNL     1      -4.155   0.165 -12.791  0.00  0.00    +0.163 HD
ATOM      6  H   UNL     1      -1.004  -0.716 -11.525  0.00  0.00    +0.159 HD
ATOM      7  H   UNL     1      -1.925  -0.431 -12.953  0.00  0.00    +0.159 HD
ATOM      8  H   UNL     1      -3.632  -0.161  -9.241  0.00  0.00    +0.159 HD
ATOM      9  H   UNL     1      -1.970  -0.564  -9.427  0.00  0.00    +0.159 HD
ENDROOT
BRANCH   1  10
ATOM     10  C   UNL     1      -5.387   0.301 -11.059  0.00  0.00    +0.151 C 
BRANCH  10  11
ATOM     11  C   UNL     1      -6.221  -0.948 -11.127  0.00  0.00    -0.028 A 
ATOM     12  C   UNL     1      -6.810  -1.346 -12.336  0.00  0.00    +0.005 A 
ATOM     13  C   UNL     1      -6.422  -1.741  -9.987  0.00  0.00    +0.005 A 
ATOM     14  C   UNL     1      -7.560  -2.522 -12.407  0.00  0.00    +0.000 A 
ATOM     15  C   UNL     1      -7.173  -2.915 -10.062  0.00  0.00    +0.000 A 
ATOM     16  C   UNL     1      -7.739  -3.306 -11.272  0.00  0.00    +0.000 A 
ENDBRANCH  10  11
ENDBRANCH   1  10
TORSDOF 2
ENDMDL
