MODEL 1
REMARK VINA RESULT:    -4.180      0.000      0.000
REMARK INTER + INTRA:          -4.849
REMARK INTER:                  -4.669
REMARK INTRA:                  -0.180
REMARK UNBOUND:                -0.180
REMARK  Name = 1550473
REMARK  2 active torsions:
REMARK  status: ('A' for Active; 'I' for Inactive)
REMARK    1  A    between atoms: N_1  and  C_4
REMARK    2  A    between atoms: C_4  and  C_5
REMARK                            x       y       z     vdW  Elec       q    Type
REMARK                         _______ _______ _______ _____ _____    ______ ____
ROOT
ATOM      1  N   UNL     1     -19.420 -36.943 -35.491  0.00  0.00    -0.354 N 
ATOM      2  N   UNL     1     -20.418 -38.467 -36.922  0.00  0.00    -0.372 N 
ATOM      3  N   UNL     1     -19.889 -39.130 -34.790  0.00  0.00    -0.372 N 
ATOM      4  C   UNL     1     -19.902 -38.172 -35.723  0.00  0.00    +0.166 C 
ATOM      5  H   UNL     1     -19.432 -36.271 -36.250  0.00  0.00    +0.163 HD
ATOM      6  H   UNL     1     -20.793 -39.384 -37.125  0.00  0.00    +0.159 HD
ATOM      7  H   UNL     1     -20.471 -37.779 -37.664  0.00  0.00    +0.159 HD
ATOM      8  H   UNL     1     -19.507 -38.973 -33.867  0.00  0.00    +0.159 HD
ATOM      9  H   UNL     1     -20.248 -40.058 -34.978  0.00  0.00    +0.159 HD
ENDROOT
BRANCH   1  10
ATOM     10  C   UNL     1     -18.886 -36.504 -34.204  0.00  0.00    +0.151 C 
BRANCH  10  11
ATOM     11  C   UNL     1     -19.970 -35.800 -33.436  0.00  0.00    -0.028 A 
ATOM     12  C   UNL     1     -20.398 -34.520 -33.819  0.00  0.00    +0.005 A 
ATOM     13  C   UNL     1     -20.579 -36.410 -32.328  0.00  0.00    +0.005 A 
ATOM     14  C   UNL     1     -21.426 -33.879 -33.124  0.00  0.00    +0.000 A 
ATOM     15  C   UNL     1     -21.604 -35.765 -31.637  0.00  0.00    +0.000 A 
ATOM     16  C   UNL     1     -22.030 -34.501 -32.037  0.00  0.00    +0.000 A 
ENDBRANCH  10  11
ENDBRANCH   1  10
TORSDOF 2
ENDMDL
MODEL 2
REMARK VINA RESULT:    -4.110     45.851     47.097
REMARK INTER + INTRA:          -4.770
REMARK INTER:                  -4.594
REMARK INTRA:                  -0.177
REMARK UNBOUND:                -0.180
REMARK  Name = 1550473
REMARK  2 active torsions:
REMARK  status: ('A' for Active; 'I' for Inactive)
REMARK    1  A    between atoms: N_1  and  C_4
REMARK    2  A    between atoms: C_4  and  C_5
REMARK                            x       y       z     vdW  Elec       q    Type
REMARK                         _______ _______ _______ _____ _____    ______ ____
ROOT
ATOM      1  N   UNL     1      -5.122   6.276 -22.096  0.00  0.00    -0.354 N 
ATOM      2  N   UNL     1      -7.049   5.045 -22.463  0.00  0.00    -0.372 N 
ATOM      3  N   UNL     1      -6.520   6.738 -23.919  0.00  0.00    -0.372 N 
ATOM      4  C   UNL     1      -6.218   6.029 -22.826  0.00  0.00    +0.166 C 
ATOM      5  H   UNL     1      -4.965   5.723 -21.261  0.00  0.00    +0.163 HD
ATOM      6  H   UNL     1      -7.882   4.833 -22.996  0.00  0.00    +0.159 HD
ATOM      7  H   UNL     1      -6.866   4.464 -21.654  0.00  0.00    +0.159 HD
ATOM      8  H   UNL     1      -5.937   7.498 -24.242  0.00  0.00    +0.159 HD
ATOM      9  H   UNL     1      -7.355   6.549 -24.459  0.00  0.00    +0.159 HD
ENDROOT
BRANCH   1  10
ATOM     10  C   UNL     1      -4.125   7.290 -22.435  0.00  0.00    +0.151 C 
BRANCH  10  11
ATOM     11  C   UNL     1      -2.943   6.620 -23.081  0.00  0.00    -0.028 A 
ATOM     12  C   UNL     1      -2.492   7.035 -24.342  0.00  0.00    +0.005 A 
ATOM     13  C   UNL     1      -2.268   5.574 -22.434  0.00  0.00    +0.005 A 
ATOM     14  C   UNL     1      -1.376   6.434 -24.929  0.00  0.00    +0.000 A 
ATOM     15  C   UNL     1      -1.154   4.975 -23.024  0.00  0.00    +0.000 A 
ATOM     16  C   UNL     1      -0.707   5.407 -24.271  0.00  0.00    +0.000 A 
ENDBRANCH  10  11
ENDBRANCH   1  10
TORSDOF 2
ENDMDL
MODEL 3
REMARK VINA RESULT:    -4.092    104.563    105.633
REMARK INTER + INTRA:          -4.750
REMARK INTER:                  -4.652
REMARK INTRA:                  -0.098
REMARK UNBOUND:                -0.180
REMARK  Name = 1550473
REMARK  2 active torsions:
REMARK  status: ('A' for Active; 'I' for Inactive)
REMARK    1  A    between atoms: N_1  and  C_4
REMARK    2  A    between atoms: C_4  and  C_5
REMARK                            x       y       z     vdW  Elec       q    Type
REMARK                         _______ _______ _______ _____ _____    ______ ____
ROOT
ATOM      1  N   UNL     1      20.032  34.551  32.576  0.00  0.00    -0.354 N 
ATOM      2  N   UNL     1      19.385  36.566  31.635  0.00  0.00    -0.372 N 
ATOM      3  N   UNL     1      18.201  34.670  31.118  0.00  0.00    -0.372 N 
ATOM      4  C   UNL     1      19.208  35.247  31.781  0.00  0.00    +0.166 C 
ATOM      5  H   UNL     1      20.795  35.042  33.027  0.00  0.00    +0.163 HD
ATOM      6  H   UNL     1      18.778  37.118  31.044  0.00  0.00    +0.159 HD
ATOM      7  H   UNL     1      20.121  37.062  32.122  0.00  0.00    +0.159 HD
ATOM      8  H   UNL     1      18.017  33.677  31.182  0.00  0.00    +0.159 HD
ATOM      9  H   UNL     1      17.589  35.203  30.514  0.00  0.00    +0.159 HD
ENDROOT
BRANCH   1  10
ATOM     10  C   UNL     1      19.893  33.121  32.846  0.00  0.00    +0.151 C 
BRANCH  10  11
ATOM     11  C   UNL     1      20.617  32.789  34.121  0.00  0.00    -0.028 A 
ATOM     12  C   UNL     1      20.018  33.036  35.365  0.00  0.00    +0.005 A 
ATOM     13  C   UNL     1      21.900  32.222  34.093  0.00  0.00    +0.005 A 
ATOM     14  C   UNL     1      20.677  32.700  36.550  0.00  0.00    +0.000 A 
ATOM     15  C   UNL     1      22.556  31.889  35.278  0.00  0.00    +0.000 A 
ATOM     16  C   UNL     1      21.943  32.126  36.506  0.00  0.00    +0.000 A 
ENDBRANCH  10  11
ENDBRANCH   1  10
TORSDOF 2
ENDMDL
MODEL 4
REMARK VINA RESULT:    -3.958      4.234      5.421
REMARK INTER + INTRA:          -4.601
REMARK INTER:                  -4.457
REMARK INTRA:                  -0.144
REMARK UNBOUND:                -0.180
REMARK  Name = 1550473
REMARK  2 active torsions:
REMARK  status: ('A' for Active; 'I' for Inactive)
REMARK    1  A    between atoms: N_1  and  C_4
REMARK    2  A    between atoms: C_4  and  C_5
REMARK                            x       y       z     vdW  Elec       q    Type
REMARK                         _______ _______ _______ _____ _____    ______ ____
ROOT
ATOM      1  N   UNL     1     -20.762 -35.844 -28.942  0.00  0.00    -0.354 N 
ATOM      2  N   UNL     1     -19.686 -37.151 -27.361  0.00  0.00    -0.372 N 
ATOM      3  N   UNL     1     -19.012 -34.976 -27.648  0.00  0.00    -0.372 N 
ATOM      4  C   UNL     1     -19.826 -35.980 -27.994  0.00  0.00    +0.166 C 
ATOM      5  H   UNL     1     -21.327 -36.652 -29.180  0.00  0.00    +0.163 HD
ATOM      6  H   UNL     1     -18.991 -37.282 -26.639  0.00  0.00    +0.159 HD
ATOM      7  H   UNL     1     -20.283 -37.943 -27.569  0.00  0.00    +0.159 HD
ATOM      8  H   UNL     1     -19.063 -34.069 -28.091  0.00  0.00    +0.159 HD
ATOM      9  H   UNL     1     -18.302 -35.091 -26.935  0.00  0.00    +0.159 HD
ENDROOT
BRANCH   1  10
ATOM     10  C   UNL     1     -21.031 -34.596 -29.653  0.00  0.00    +0.151 C 
BRANCH  10  11
ATOM     11  C   UNL     1     -20.974 -34.852 -31.134  0.00  0.00    -0.028 A 
ATOM     12  C   UNL     1     -21.227 -33.816 -32.046  0.00  0.00    +0.005 A 
ATOM     13  C   UNL     1     -20.663 -36.126 -31.632  0.00  0.00    +0.005 A 
ATOM     14  C   UNL     1     -21.145 -34.046 -33.421  0.00  0.00    +0.000 A 
ATOM     15  C   UNL     1     -20.583 -36.352 -33.006  0.00  0.00    +0.000 A 
ATOM     16  C   UNL     1     -20.821 -35.311 -33.900  0.00  0.00    +0.000 A 
ENDBRANCH  10  11
ENDBRANCH   1  10
TORSDOF 2
ENDMDL
MODEL 5
REMARK VINA RESULT:    -3.792    109.140    109.856
REMARK INTER + INTRA:          -4.415
REMARK INTER:                  -4.250
REMARK INTRA:                  -0.165
REMARK UNBOUND:                -0.180
REMARK  Name = 1550473
REMARK  2 active torsions:
REMARK  status: ('A' for Active; 'I' for Inactive)
REMARK    1  A    between atoms: N_1  and  C_4
REMARK    2  A    between atoms: C_4  and  C_5
REMARK                            x       y       z     vdW  Elec       q    Type
REMARK                         _______ _______ _______ _____ _____    ______ ____
ROOT
ATOM      1  N   UNL     1      39.512  11.829  44.709  0.00  0.00    -0.354 N 
ATOM      2  N   UNL     1      37.786  12.214  46.205  0.00  0.00    -0.372 N 
ATOM      3  N   UNL     1      37.294  12.014  43.973  0.00  0.00    -0.372 N 
ATOM      4  C   UNL     1      38.207  12.017  44.950  0.00  0.00    +0.166 C 
ATOM      5  H   UNL     1      40.156  11.872  45.490  0.00  0.00    +0.163 HD
ATOM      6  H   UNL     1      36.808  12.355  46.418  0.00  0.00    +0.159 HD
ATOM      7  H   UNL     1      38.427  12.211  46.989  0.00  0.00    +0.159 HD
ATOM      8  H   UNL     1      37.548  11.876  43.004  0.00  0.00    +0.159 HD
ATOM      9  H   UNL     1      36.312  12.165  44.165  0.00  0.00    +0.159 HD
ENDROOT
BRANCH   1  10
ATOM     10  C   UNL     1      40.067  11.552  43.386  0.00  0.00    +0.151 C 
BRANCH  10  11
ATOM     11  C   UNL     1      40.555  12.839  42.779  0.00  0.00    -0.028 A 
ATOM     12  C   UNL     1      40.286  13.141  41.436  0.00  0.00    +0.005 A 
ATOM     13  C   UNL     1      41.284  13.763  43.544  0.00  0.00    +0.005 A 
ATOM     14  C   UNL     1      40.713  14.349  40.881  0.00  0.00    +0.000 A 
ATOM     15  C   UNL     1      41.710  14.968  42.986  0.00  0.00    +0.000 A 
ATOM     16  C   UNL     1      41.422  15.262  41.655  0.00  0.00    +0.000 A 
ENDBRANCH  10  11
ENDBRANCH   1  10
TORSDOF 2
ENDMDL
MODEL 6
REMARK VINA RESULT:    -3.723     49.609     50.795
REMARK INTER + INTRA:          -4.339
REMARK INTER:                  -4.219
REMARK INTRA:                  -0.120
REMARK UNBOUND:                -0.180
REMARK  Name = 1550473
REMARK  2 active torsions:
REMARK  status: ('A' for Active; 'I' for Inactive)
REMARK    1  A    between atoms: N_1  and  C_4
REMARK    2  A    between atoms: C_4  and  C_5
REMARK                            x       y       z     vdW  Elec       q    Type
REMARK                         _______ _______ _______ _____ _____    ______ ____
ROOT
ATOM      1  N   UNL     1       2.531   3.210 -14.891  0.00  0.00    -0.354 N 
ATOM      2  N   UNL     1       1.925   1.519 -13.428  0.00  0.00    -0.372 N 
ATOM      3  N   UNL     1       2.185   1.021 -15.653  0.00  0.00    -0.372 N 
ATOM      4  C   UNL     1       2.217   1.926 -14.669  0.00  0.00    +0.166 C 
ATOM      5  H   UNL     1       2.509   3.853 -14.108  0.00  0.00    +0.163 HD
ATOM      6  H   UNL     1       1.688   0.556 -13.230  0.00  0.00    +0.159 HD
ATOM      7  H   UNL     1       1.948   2.154 -12.640  0.00  0.00    +0.159 HD
ATOM      8  H   UNL     1       2.390   1.265 -16.613  0.00  0.00    +0.159 HD
ATOM      9  H   UNL     1       1.938   0.055 -15.476  0.00  0.00    +0.159 HD
ENDROOT
BRANCH   1  10
ATOM     10  C   UNL     1       2.918   3.743 -16.195  0.00  0.00    +0.151 C 
BRANCH  10  11
ATOM     11  C   UNL     1       3.244   5.204 -16.051  0.00  0.00    -0.028 A 
ATOM     12  C   UNL     1       3.621   5.730 -14.807  0.00  0.00    +0.005 A 
ATOM     13  C   UNL     1       3.183   6.067 -17.157  0.00  0.00    +0.005 A 
ATOM     14  C   UNL     1       3.953   7.081 -14.679  0.00  0.00    +0.000 A 
ATOM     15  C   UNL     1       3.515   7.415 -17.024  0.00  0.00    +0.000 A 
ATOM     16  C   UNL     1       3.902   7.922 -15.786  0.00  0.00    +0.000 A 
ENDBRANCH  10  11
ENDBRANCH   1  10
TORSDOF 2
ENDMDL
MODEL 7
REMARK VINA RESULT:    -3.571    105.503    106.228
REMARK INTER + INTRA:          -4.168
REMARK INTER:                  -4.061
REMARK INTRA:                  -0.107
REMARK UNBOUND:                -0.180
REMARK  Name = 1550473
REMARK  2 active torsions:
REMARK  status: ('A' for Active; 'I' for Inactive)
REMARK    1  A    between atoms: N_1  and  C_4
REMARK    2  A    between atoms: C_4  and  C_5
REMARK                            x       y       z     vdW  Elec       q    Type
REMARK                         _______ _______ _______ _____ _____    ______ ____
ROOT
ATOM      1  N   UNL     1      38.908  11.001  42.180  0.00  0.00    -0.354 N 
ATOM      2  N   UNL     1      38.955  10.926  44.494  0.00  0.00    -0.372 N 
ATOM      3  N   UNL     1      39.737  12.802  43.429  0.00  0.00    -0.372 N 
ATOM      4  C   UNL     1      39.201  11.579  43.352  0.00  0.00    +0.166 C 
ATOM      5  H   UNL     1      38.532  10.060  42.188  0.00  0.00    +0.163 HD
ATOM      6  H   UNL     1      39.162  11.338  45.394  0.00  0.00    +0.159 HD
ATOM      7  H   UNL     1      38.536  10.004  44.501  0.00  0.00    +0.159 HD
ATOM      8  H   UNL     1      39.952  13.345  42.604  0.00  0.00    +0.159 HD
ATOM      9  H   UNL     1      39.962  13.227  44.320  0.00  0.00    +0.159 HD
ENDROOT
BRANCH   1  10
ATOM     10  C   UNL     1      39.087  11.648  40.881  0.00  0.00    +0.151 C 
BRANCH  10  11
ATOM     11  C   UNL     1      38.646  10.705  39.797  0.00  0.00    -0.028 A 
ATOM     12  C   UNL     1      37.430  10.015  39.905  0.00  0.00    +0.005 A 
ATOM     13  C   UNL     1      39.437  10.500  38.656  0.00  0.00    +0.005 A 
ATOM     14  C   UNL     1      37.005   9.161  38.884  0.00  0.00    +0.000 A 
ATOM     15  C   UNL     1      39.010   9.646  37.640  0.00  0.00    +0.000 A 
ATOM     16  C   UNL     1      37.793   8.978  37.753  0.00  0.00    +0.000 A 
ENDBRANCH  10  11
ENDBRANCH   1  10
TORSDOF 2
ENDMDL
MODEL 8
REMARK VINA RESULT:    -3.495     94.934     95.802
REMARK INTER + INTRA:          -4.084
REMARK INTER:                  -3.935
REMARK INTRA:                  -0.149
REMARK UNBOUND:                -0.180
REMARK  Name = 1550473
REMARK  2 active torsions:
REMARK  status: ('A' for Active; 'I' for Inactive)
REMARK    1  A    between atoms: N_1  and  C_4
REMARK    2  A    between atoms: C_4  and  C_5
REMARK                            x       y       z     vdW  Elec       q    Type
REMARK                         _______ _______ _______ _____ _____    ______ ____
ROOT
ATOM      1  N   UNL     1      25.883  19.262  28.229  0.00  0.00    -0.354 N 
ATOM      2  N   UNL     1      25.768  17.848  30.059  0.00  0.00    -0.372 N 
ATOM      3  N   UNL     1      25.734  16.940  27.952  0.00  0.00    -0.372 N 
ATOM      4  C   UNL     1      25.795  18.024  28.733  0.00  0.00    +0.166 C 
ATOM      5  H   UNL     1      25.896  20.044  28.873  0.00  0.00    +0.163 HD
ATOM      6  H   UNL     1      25.705  16.925  30.469  0.00  0.00    +0.159 HD
ATOM      7  H   UNL     1      25.827  18.629  30.702  0.00  0.00    +0.159 HD
ATOM      8  H   UNL     1      25.745  17.005  26.943  0.00  0.00    +0.159 HD
ATOM      9  H   UNL     1      25.659  16.009  28.343  0.00  0.00    +0.159 HD
ENDROOT
BRANCH   1  10
ATOM     10  C   UNL     1      25.975  19.559  26.800  0.00  0.00    +0.151 C 
BRANCH  10  11
ATOM     11  C   UNL     1      27.284  20.245  26.524  0.00  0.00    -0.028 A 
ATOM     12  C   UNL     1      27.834  20.236  25.234  0.00  0.00    +0.005 A 
ATOM     13  C   UNL     1      27.976  20.913  27.546  0.00  0.00    +0.005 A 
ATOM     14  C   UNL     1      29.035  20.899  24.970  0.00  0.00    +0.000 A 
ATOM     15  C   UNL     1      29.175  21.573  27.279  0.00  0.00    +0.000 A 
ATOM     16  C   UNL     1      29.703  21.568  25.990  0.00  0.00    +0.000 A 
ENDBRANCH  10  11
ENDBRANCH   1  10
TORSDOF 2
ENDMDL
MODEL 9
REMARK VINA RESULT:    -3.428     99.331    100.185
REMARK INTER + INTRA:          -4.009
REMARK INTER:                  -3.914
REMARK INTRA:                  -0.095
REMARK UNBOUND:                -0.180
REMARK  Name = 1550473
REMARK  2 active torsions:
REMARK  status: ('A' for Active; 'I' for Inactive)
REMARK    1  A    between atoms: N_1  and  C_4
REMARK    2  A    between atoms: C_4  and  C_5
REMARK                            x       y       z     vdW  Elec       q    Type
REMARK                         _______ _______ _______ _____ _____    ______ ____
ROOT
ATOM      1  N   UNL     1      29.463  21.587  28.849  0.00  0.00    -0.354 N 
ATOM      2  N   UNL     1      28.610  19.573  29.610  0.00  0.00    -0.372 N 
ATOM      3  N   UNL     1      27.409  20.774  28.067  0.00  0.00    -0.372 N 
ATOM      4  C   UNL     1      28.498  20.659  28.835  0.00  0.00    +0.166 C 
ATOM      5  H   UNL     1      30.249  21.456  29.476  0.00  0.00    +0.163 HD
ATOM      6  H   UNL     1      27.899  18.854  29.619  0.00  0.00    +0.159 HD
ATOM      7  H   UNL     1      29.418  19.422  30.202  0.00  0.00    +0.159 HD
ATOM      8  H   UNL     1      27.261  21.572  27.464  0.00  0.00    +0.159 HD
ATOM      9  H   UNL     1      26.681  20.071  28.071  0.00  0.00    +0.159 HD
ENDROOT
BRANCH   1  10
ATOM     10  C   UNL     1      29.463  22.780  28.003  0.00  0.00    +0.151 C 
BRANCH  10  11
ATOM     11  C   UNL     1      30.568  23.698  28.448  0.00  0.00    -0.028 A 
ATOM     12  C   UNL     1      30.271  24.922  29.065  0.00  0.00    +0.005 A 
ATOM     13  C   UNL     1      31.913  23.347  28.260  0.00  0.00    +0.005 A 
ATOM     14  C   UNL     1      31.297  25.761  29.506  0.00  0.00    +0.000 A 
ATOM     15  C   UNL     1      32.935  24.188  28.700  0.00  0.00    +0.000 A 
ATOM     16  C   UNL     1      32.626  25.394  29.325  0.00  0.00    +0.000 A 
ENDBRANCH  10  11
ENDBRANCH   1  10
TORSDOF 2
ENDMDL
