MODEL 1
REMARK VINA RESULT:    -4.924      0.000      0.000
REMARK INTER + INTRA:          -5.622
REMARK INTER:                  -5.500
REMARK INTRA:                  -0.122
REMARK UNBOUND:                -0.122
REMARK  Name = 1550473
REMARK  2 active torsions:
REMARK  status: ('A' for Active; 'I' for Inactive)
REMARK    1  A    between atoms: N_1  and  C_4
REMARK    2  A    between atoms: C_4  and  C_5
REMARK                            x       y       z     vdW  Elec       q    Type
REMARK                         _______ _______ _______ _____ _____    ______ ____
ROOT
ATOM      1  N   UNL     1      -6.396   8.824  -5.896  0.00  0.00    -0.354 N 
ATOM      2  N   UNL     1      -8.626   8.752  -6.520  0.00  0.00    -0.372 N 
ATOM      3  N   UNL     1      -7.126   7.396  -7.605  0.00  0.00    -0.372 N 
ATOM      4  C   UNL     1      -7.367   8.323  -6.672  0.00  0.00    +0.166 C 
ATOM      5  H   UNL     1      -6.639   9.546  -5.228  0.00  0.00    +0.163 HD
ATOM      6  H   UNL     1      -9.380   8.390  -7.088  0.00  0.00    +0.159 HD
ATOM      7  H   UNL     1      -8.873   9.441  -5.820  0.00  0.00    +0.159 HD
ATOM      8  H   UNL     1      -6.197   7.034  -7.773  0.00  0.00    +0.159 HD
ATOM      9  H   UNL     1      -7.866   7.029  -8.191  0.00  0.00    +0.159 HD
ENDROOT
BRANCH   1  10
ATOM     10  C   UNL     1      -5.003   8.385  -5.944  0.00  0.00    +0.151 C 
BRANCH  10  11
ATOM     11  C   UNL     1      -4.158   9.346  -5.154  0.00  0.00    -0.028 A 
ATOM     12  C   UNL     1      -4.590  10.662  -4.937  0.00  0.00    +0.005 A 
ATOM     13  C   UNL     1      -2.926   8.944  -4.615  0.00  0.00    +0.005 A 
ATOM     14  C   UNL     1      -3.820  11.546  -4.177  0.00  0.00    +0.000 A 
ATOM     15  C   UNL     1      -2.159   9.829  -3.858  0.00  0.00    +0.000 A 
ATOM     16  C   UNL     1      -2.608  11.129  -3.637  0.00  0.00    +0.000 A 
ENDBRANCH  10  11
ENDBRANCH   1  10
TORSDOF 2
ENDMDL
MODEL 2
REMARK VINA RESULT:    -4.810     22.569     24.215
REMARK INTER + INTRA:          -5.494
REMARK INTER:                  -5.325
REMARK INTRA:                  -0.169
REMARK UNBOUND:                -0.122
REMARK  Name = 1550473
REMARK  2 active torsions:
REMARK  status: ('A' for Active; 'I' for Inactive)
REMARK    1  A    between atoms: N_1  and  C_4
REMARK    2  A    between atoms: C_4  and  C_5
REMARK                            x       y       z     vdW  Elec       q    Type
REMARK                         _______ _______ _______ _____ _____    ______ ____
ROOT
ATOM      1  N   UNL     1       0.263  -5.538 -22.347  0.00  0.00    -0.354 N 
ATOM      2  N   UNL     1      -0.558  -3.528 -21.541  0.00  0.00    -0.372 N 
ATOM      3  N   UNL     1       1.047  -4.636 -20.331  0.00  0.00    -0.372 N 
ATOM      4  C   UNL     1       0.258  -4.582 -21.409  0.00  0.00    +0.166 C 
ATOM      5  H   UNL     1      -0.380  -5.453 -23.125  0.00  0.00    +0.163 HD
ATOM      6  H   UNL     1      -0.581  -2.789 -20.851  0.00  0.00    +0.159 HD
ATOM      7  H   UNL     1      -1.167  -3.423 -22.343  0.00  0.00    +0.159 HD
ATOM      8  H   UNL     1       1.681  -5.408 -20.170  0.00  0.00    +0.159 HD
ATOM      9  H   UNL     1       1.029  -3.912 -19.624  0.00  0.00    +0.159 HD
ENDROOT
BRANCH   1  10
ATOM     10  C   UNL     1       1.152  -6.699 -22.326  0.00  0.00    +0.151 C 
BRANCH  10  11
ATOM     11  C   UNL     1       0.341  -7.933 -22.041  0.00  0.00    -0.028 A 
ATOM     12  C   UNL     1       0.380  -8.534 -20.774  0.00  0.00    +0.005 A 
ATOM     13  C   UNL     1      -0.473  -8.503 -23.032  0.00  0.00    +0.005 A 
ATOM     14  C   UNL     1      -0.396  -9.662 -20.500  0.00  0.00    +0.000 A 
ATOM     15  C   UNL     1      -1.245  -9.631 -22.755  0.00  0.00    +0.000 A 
ATOM     16  C   UNL     1      -1.209 -10.209 -21.488  0.00  0.00    +0.000 A 
ENDBRANCH  10  11
ENDBRANCH   1  10
TORSDOF 2
ENDMDL
MODEL 3
REMARK VINA RESULT:    -4.695     14.875     15.876
REMARK INTER + INTRA:          -5.366
REMARK INTER:                  -5.243
REMARK INTRA:                  -0.123
REMARK UNBOUND:                -0.122
REMARK  Name = 1550473
REMARK  2 active torsions:
REMARK  status: ('A' for Active; 'I' for Inactive)
REMARK    1  A    between atoms: N_1  and  C_4
REMARK    2  A    between atoms: C_4  and  C_5
REMARK                            x       y       z     vdW  Elec       q    Type
REMARK                         _______ _______ _______ _____ _____    ______ ____
ROOT
ATOM      1  N   UNL     1       1.656   1.555 -16.976  0.00  0.00    -0.354 N 
ATOM      2  N   UNL     1       2.286  -0.464 -16.033  0.00  0.00    -0.372 N 
ATOM      3  N   UNL     1       0.318   0.507 -15.363  0.00  0.00    -0.372 N 
ATOM      4  C   UNL     1       1.413   0.546 -16.129  0.00  0.00    +0.166 C 
ATOM      5  H   UNL     1       2.520   1.541 -17.507  0.00  0.00    +0.163 HD
ATOM      6  H   UNL     1       2.127  -1.241 -15.405  0.00  0.00    +0.159 HD
ATOM      7  H   UNL     1       3.125  -0.499 -16.598  0.00  0.00    +0.159 HD
ATOM      8  H   UNL     1      -0.377   1.242 -15.384  0.00  0.00    +0.159 HD
ATOM      9  H   UNL     1       0.147  -0.256 -14.720  0.00  0.00    +0.159 HD
ENDROOT
BRANCH   1  10
ATOM     10  C   UNL     1       0.745   2.677 -17.196  0.00  0.00    +0.151 C 
BRANCH  10  11
ATOM     11  C   UNL     1       1.387   3.654 -18.141  0.00  0.00    -0.028 A 
ATOM     12  C   UNL     1       0.716   4.827 -18.517  0.00  0.00    +0.005 A 
ATOM     13  C   UNL     1       2.669   3.416 -18.660  0.00  0.00    +0.005 A 
ATOM     14  C   UNL     1       1.324   5.749 -19.372  0.00  0.00    +0.000 A 
ATOM     15  C   UNL     1       3.272   4.339 -19.514  0.00  0.00    +0.000 A 
ATOM     16  C   UNL     1       2.600   5.507 -19.867  0.00  0.00    +0.000 A 
ENDBRANCH  10  11
ENDBRANCH   1  10
TORSDOF 2
ENDMDL
MODEL 4
REMARK VINA RESULT:    -4.584     15.752     16.836
REMARK INTER + INTRA:          -5.242
REMARK INTER:                  -5.137
REMARK INTRA:                  -0.105
REMARK UNBOUND:                -0.122
REMARK  Name = 1550473
REMARK  2 active torsions:
REMARK  status: ('A' for Active; 'I' for Inactive)
REMARK    1  A    between atoms: N_1  and  C_4
REMARK    2  A    between atoms: C_4  and  C_5
REMARK                            x       y       z     vdW  Elec       q    Type
REMARK                         _______ _______ _______ _____ _____    ______ ____
ROOT
ATOM      1  N   UNL     1       3.667  -5.017  -8.618  0.00  0.00    -0.354 N 
ATOM      2  N   UNL     1       3.046  -4.757 -10.834  0.00  0.00    -0.372 N 
ATOM      3  N   UNL     1       1.456  -4.501  -9.199  0.00  0.00    -0.372 N 
ATOM      4  C   UNL     1       2.725  -4.760  -9.534  0.00  0.00    +0.166 C 
ATOM      5  H   UNL     1       4.603  -5.235  -8.938  0.00  0.00    +0.163 HD
ATOM      6  H   UNL     1       2.357  -4.563 -11.548  0.00  0.00    +0.159 HD
ATOM      7  H   UNL     1       3.993  -4.930 -11.149  0.00  0.00    +0.159 HD
ATOM      8  H   UNL     1       1.147  -4.494  -8.236  0.00  0.00    +0.159 HD
ATOM      9  H   UNL     1       0.750  -4.317  -9.900  0.00  0.00    +0.159 HD
ENDROOT
BRANCH   1  10
ATOM     10  C   UNL     1       3.433  -4.991  -7.175  0.00  0.00    +0.151 C 
BRANCH  10  11
ATOM     11  C   UNL     1       4.637  -4.405  -6.492  0.00  0.00    -0.028 A 
ATOM     12  C   UNL     1       5.840  -5.124  -6.428  0.00  0.00    +0.005 A 
ATOM     13  C   UNL     1       4.584  -3.128  -5.912  0.00  0.00    +0.005 A 
ATOM     14  C   UNL     1       6.968  -4.567  -5.820  0.00  0.00    +0.000 A 
ATOM     15  C   UNL     1       5.712  -2.576  -5.305  0.00  0.00    +0.000 A 
ATOM     16  C   UNL     1       6.904  -3.295  -5.261  0.00  0.00    +0.000 A 
ENDBRANCH  10  11
ENDBRANCH   1  10
TORSDOF 2
ENDMDL
MODEL 5
REMARK VINA RESULT:    -4.528     14.714     15.651
REMARK INTER + INTRA:          -5.179
REMARK INTER:                  -5.044
REMARK INTRA:                  -0.135
REMARK UNBOUND:                -0.122
REMARK  Name = 1550473
REMARK  2 active torsions:
REMARK  status: ('A' for Active; 'I' for Inactive)
REMARK    1  A    between atoms: N_1  and  C_4
REMARK    2  A    between atoms: C_4  and  C_5
REMARK                            x       y       z     vdW  Elec       q    Type
REMARK                         _______ _______ _______ _____ _____    ______ ____
ROOT
ATOM      1  N   UNL     1       2.881   1.714 -15.776  0.00  0.00    -0.354 N 
ATOM      2  N   UNL     1       2.546   0.396 -13.901  0.00  0.00    -0.372 N 
ATOM      3  N   UNL     1       2.534  -0.596 -15.970  0.00  0.00    -0.372 N 
ATOM      4  C   UNL     1       2.656   0.511 -15.230  0.00  0.00    +0.166 C 
ATOM      5  H   UNL     1       2.933   2.519 -15.163  0.00  0.00    +0.163 HD
ATOM      6  H   UNL     1       2.379  -0.499 -13.460  0.00  0.00    +0.159 HD
ATOM      7  H   UNL     1       2.644   1.195 -13.287  0.00  0.00    +0.159 HD
ATOM      8  H   UNL     1       2.601  -0.576 -16.979  0.00  0.00    +0.159 HD
ATOM      9  H   UNL     1       2.355  -1.499 -15.548  0.00  0.00    +0.159 HD
ENDROOT
BRANCH   1  10
ATOM     10  C   UNL     1       3.070   1.939 -17.208  0.00  0.00    +0.151 C 
BRANCH  10  11
ATOM     11  C   UNL     1       2.056   2.941 -17.686  0.00  0.00    -0.028 A 
ATOM     12  C   UNL     1       0.744   2.917 -17.191  0.00  0.00    +0.005 A 
ATOM     13  C   UNL     1       2.402   3.921 -18.629  0.00  0.00    +0.005 A 
ATOM     14  C   UNL     1      -0.191   3.866 -17.612  0.00  0.00    +0.000 A 
ATOM     15  C   UNL     1       1.465   4.866 -19.048  0.00  0.00    +0.000 A 
ATOM     16  C   UNL     1       0.170   4.840 -18.537  0.00  0.00    +0.000 A 
ENDBRANCH  10  11
ENDBRANCH   1  10
TORSDOF 2
ENDMDL
MODEL 6
REMARK VINA RESULT:    -4.496     14.254     14.783
REMARK INTER + INTRA:          -5.144
REMARK INTER:                  -5.004
REMARK INTRA:                  -0.141
REMARK UNBOUND:                -0.122
REMARK  Name = 1550473
REMARK  2 active torsions:
REMARK  status: ('A' for Active; 'I' for Inactive)
REMARK    1  A    between atoms: N_1  and  C_4
REMARK    2  A    between atoms: C_4  and  C_5
REMARK                            x       y       z     vdW  Elec       q    Type
REMARK                         _______ _______ _______ _____ _____    ______ ____
ROOT
ATOM      1  N   UNL     1       0.229   3.532 -18.307  0.00  0.00    -0.354 N 
ATOM      2  N   UNL     1      -1.788   4.595 -18.712  0.00  0.00    -0.372 N 
ATOM      3  N   UNL     1       0.009   5.849 -18.033  0.00  0.00    -0.372 N 
ATOM      4  C   UNL     1      -0.502   4.654 -18.347  0.00  0.00    +0.166 C 
ATOM      5  H   UNL     1      -0.225   2.653 -18.527  0.00  0.00    +0.163 HD
ATOM      6  H   UNL     1      -2.364   5.425 -18.755  0.00  0.00    +0.159 HD
ATOM      7  H   UNL     1      -2.228   3.721 -18.976  0.00  0.00    +0.159 HD
ATOM      8  H   UNL     1       0.972   5.960 -17.744  0.00  0.00    +0.159 HD
ATOM      9  H   UNL     1      -0.554   6.690 -18.058  0.00  0.00    +0.159 HD
ENDROOT
BRANCH   1  10
ATOM     10  C   UNL     1       1.652   3.494 -17.974  0.00  0.00    +0.151 C 
BRANCH  10  11
ATOM     11  C   UNL     1       1.855   2.603 -16.780  0.00  0.00    -0.028 A 
ATOM     12  C   UNL     1       1.124   1.413 -16.648  0.00  0.00    +0.005 A 
ATOM     13  C   UNL     1       2.780   2.940 -15.780  0.00  0.00    +0.005 A 
ATOM     14  C   UNL     1       1.334   0.569 -15.555  0.00  0.00    +0.000 A 
ATOM     15  C   UNL     1       2.985   2.095 -14.689  0.00  0.00    +0.000 A 
ATOM     16  C   UNL     1       2.264   0.909 -14.578  0.00  0.00    +0.000 A 
ENDBRANCH  10  11
ENDBRANCH   1  10
TORSDOF 2
ENDMDL
MODEL 7
REMARK VINA RESULT:    -4.467     16.252     17.393
REMARK INTER + INTRA:          -5.111
REMARK INTER:                  -4.989
REMARK INTRA:                  -0.123
REMARK UNBOUND:                -0.122
REMARK  Name = 1550473
REMARK  2 active torsions:
REMARK  status: ('A' for Active; 'I' for Inactive)
REMARK    1  A    between atoms: N_1  and  C_4
REMARK    2  A    between atoms: C_4  and  C_5
REMARK                            x       y       z     vdW  Elec       q    Type
REMARK                         _______ _______ _______ _____ _____    ______ ____
ROOT
ATOM      1  N   UNL     1       4.360  -5.329  -7.112  0.00  0.00    -0.354 N 
ATOM      2  N   UNL     1       3.360  -7.029  -8.326  0.00  0.00    -0.372 N 
ATOM      3  N   UNL     1       2.288  -5.007  -8.158  0.00  0.00    -0.372 N 
ATOM      4  C   UNL     1       3.340  -5.775  -7.857  0.00  0.00    +0.166 C 
ATOM      5  H   UNL     1       5.114  -5.970  -6.894  0.00  0.00    +0.163 HD
ATOM      6  H   UNL     1       2.607  -7.392  -8.894  0.00  0.00    +0.159 HD
ATOM      7  H   UNL     1       4.137  -7.653  -8.145  0.00  0.00    +0.159 HD
ATOM      8  H   UNL     1       2.209  -4.054  -7.830  0.00  0.00    +0.159 HD
ATOM      9  H   UNL     1       1.518  -5.357  -8.715  0.00  0.00    +0.159 HD
ENDROOT
BRANCH   1  10
ATOM     10  C   UNL     1       4.461  -3.964  -6.598  0.00  0.00    +0.151 C 
BRANCH  10  11
ATOM     11  C   UNL     1       5.797  -3.787  -5.931  0.00  0.00    -0.028 A 
ATOM     12  C   UNL     1       6.187  -2.533  -5.438  0.00  0.00    +0.005 A 
ATOM     13  C   UNL     1       6.675  -4.872  -5.783  0.00  0.00    +0.005 A 
ATOM     14  C   UNL     1       7.416  -2.376  -4.792  0.00  0.00    +0.000 A 
ATOM     15  C   UNL     1       7.901  -4.710  -5.138  0.00  0.00    +0.000 A 
ATOM     16  C   UNL     1       8.270  -3.463  -4.640  0.00  0.00    +0.000 A 
ENDBRANCH  10  11
ENDBRANCH   1  10
TORSDOF 2
ENDMDL
MODEL 8
REMARK VINA RESULT:    -4.391     25.427     26.856
REMARK INTER + INTRA:          -5.027
REMARK INTER:                  -4.916
REMARK INTRA:                  -0.111
REMARK UNBOUND:                -0.122
REMARK  Name = 1550473
REMARK  2 active torsions:
REMARK  status: ('A' for Active; 'I' for Inactive)
REMARK    1  A    between atoms: N_1  and  C_4
REMARK    2  A    between atoms: C_4  and  C_5
REMARK                            x       y       z     vdW  Elec       q    Type
REMARK                         _______ _______ _______ _____ _____    ______ ____
ROOT
ATOM      1  N   UNL     1     -13.004 -16.020 -11.919  0.00  0.00    -0.354 N 
ATOM      2  N   UNL     1     -12.065 -17.295 -10.230  0.00  0.00    -0.372 N 
ATOM      3  N   UNL     1     -11.025 -17.224 -12.274  0.00  0.00    -0.372 N 
ATOM      4  C   UNL     1     -12.036 -16.839 -11.488  0.00  0.00    +0.166 C 
ATOM      5  H   UNL     1     -13.759 -15.789 -11.283  0.00  0.00    +0.163 HD
ATOM      6  H   UNL     1     -11.346 -17.912  -9.875  0.00  0.00    +0.159 HD
ATOM      7  H   UNL     1     -12.795 -17.027  -9.582  0.00  0.00    +0.159 HD
ATOM      8  H   UNL     1     -10.949 -16.920 -13.236  0.00  0.00    +0.159 HD
ATOM      9  H   UNL     1     -10.303 -17.850 -11.941  0.00  0.00    +0.159 HD
ENDROOT
BRANCH   1  10
ATOM     10  C   UNL     1     -13.037 -15.424 -13.254  0.00  0.00    +0.151 C 
BRANCH  10  11
ATOM     11  C   UNL     1     -13.928 -14.213 -13.230  0.00  0.00    -0.028 A 
ATOM     12  C   UNL     1     -13.685 -13.169 -12.325  0.00  0.00    +0.005 A 
ATOM     13  C   UNL     1     -15.013 -14.101 -14.113  0.00  0.00    +0.005 A 
ATOM     14  C   UNL     1     -14.495 -12.030 -12.323  0.00  0.00    +0.000 A 
ATOM     15  C   UNL     1     -15.819 -12.963 -14.106  0.00  0.00    +0.000 A 
ATOM     16  C   UNL     1     -15.558 -11.927 -13.213  0.00  0.00    +0.000 A 
ENDBRANCH  10  11
ENDBRANCH   1  10
TORSDOF 2
ENDMDL
MODEL 9
REMARK VINA RESULT:    -4.373     23.411     24.528
REMARK INTER + INTRA:          -5.007
REMARK INTER:                  -4.858
REMARK INTRA:                  -0.148
REMARK UNBOUND:                -0.122
REMARK  Name = 1550473
REMARK  2 active torsions:
REMARK  status: ('A' for Active; 'I' for Inactive)
REMARK    1  A    between atoms: N_1  and  C_4
REMARK    2  A    between atoms: C_4  and  C_5
REMARK                            x       y       z     vdW  Elec       q    Type
REMARK                         _______ _______ _______ _____ _____    ______ ____
ROOT
ATOM      1  N   UNL     1       1.296 -15.291  -8.610  0.00  0.00    -0.354 N 
ATOM      2  N   UNL     1      -0.417 -16.668  -9.343  0.00  0.00    -0.372 N 
ATOM      3  N   UNL     1      -0.686 -14.393  -9.481  0.00  0.00    -0.372 N 
ATOM      4  C   UNL     1       0.074 -15.439  -9.140  0.00  0.00    +0.166 C 
ATOM      5  H   UNL     1       1.810 -16.124  -8.345  0.00  0.00    +0.163 HD
ATOM      6  H   UNL     1      -1.334 -16.810  -9.745  0.00  0.00    +0.159 HD
ATOM      7  H   UNL     1       0.118 -17.498  -9.120  0.00  0.00    +0.159 HD
ATOM      8  H   UNL     1      -0.376 -13.440  -9.348  0.00  0.00    +0.159 HD
ATOM      9  H   UNL     1      -1.611 -14.515  -9.873  0.00  0.00    +0.159 HD
ENDROOT
BRANCH   1  10
ATOM     10  C   UNL     1       1.944 -13.998  -8.398  0.00  0.00    +0.151 C 
BRANCH  10  11
ATOM     11  C   UNL     1       1.926 -13.675  -6.930  0.00  0.00    -0.028 A 
ATOM     12  C   UNL     1       1.796 -14.696  -5.977  0.00  0.00    +0.005 A 
ATOM     13  C   UNL     1       2.044 -12.349  -6.484  0.00  0.00    +0.005 A 
ATOM     14  C   UNL     1       1.809 -14.399  -4.612  0.00  0.00    +0.000 A 
ATOM     15  C   UNL     1       2.056 -12.056  -5.121  0.00  0.00    +0.000 A 
ATOM     16  C   UNL     1       1.941 -13.082  -4.185  0.00  0.00    +0.000 A 
ENDBRANCH  10  11
ENDBRANCH   1  10
TORSDOF 2
ENDMDL
