MODEL 1
REMARK VINA RESULT:    -5.985      0.000      0.000
REMARK INTER + INTRA:          -6.793
REMARK INTER:                  -6.685
REMARK INTRA:                  -0.108
REMARK UNBOUND:                -0.108
REMARK  Name = 1550473
REMARK  2 active torsions:
REMARK  status: ('A' for Active; 'I' for Inactive)
REMARK    1  A    between atoms: N_1  and  C_4
REMARK    2  A    between atoms: C_4  and  C_5
REMARK                            x       y       z     vdW  Elec       q    Type
REMARK                         _______ _______ _______ _____ _____    ______ ____
ROOT
ATOM      1  N   UNL     1      -2.469   7.150   0.819  0.00  0.00    -0.354 N 
ATOM      2  N   UNL     1      -0.872   7.170   2.496  0.00  0.00    -0.372 N 
ATOM      3  N   UNL     1      -2.824   6.014   2.838  0.00  0.00    -0.372 N 
ATOM      4  C   UNL     1      -2.068   6.776   2.041  0.00  0.00    +0.166 C 
ATOM      5  H   UNL     1      -1.862   7.753   0.276  0.00  0.00    +0.163 HD
ATOM      6  H   UNL     1      -0.540   6.901   3.413  0.00  0.00    +0.159 HD
ATOM      7  H   UNL     1      -0.248   7.735   1.933  0.00  0.00    +0.159 HD
ATOM      8  H   UNL     1      -3.739   5.688   2.556  0.00  0.00    +0.159 HD
ATOM      9  H   UNL     1      -2.515   5.744   3.763  0.00  0.00    +0.159 HD
ENDROOT
BRANCH   1  10
ATOM     10  C   UNL     1      -3.730   6.730   0.209  0.00  0.00    +0.151 C 
BRANCH  10  11
ATOM     11  C   UNL     1      -3.658   6.960  -1.275  0.00  0.00    -0.028 A 
ATOM     12  C   UNL     1      -4.598   7.781  -1.915  0.00  0.00    +0.005 A 
ATOM     13  C   UNL     1      -2.648   6.365  -2.047  0.00  0.00    +0.005 A 
ATOM     14  C   UNL     1      -4.514   8.019  -3.289  0.00  0.00    +0.000 A 
ATOM     15  C   UNL     1      -2.567   6.605  -3.419  0.00  0.00    +0.000 A 
ATOM     16  C   UNL     1      -3.499   7.433  -4.039  0.00  0.00    +0.000 A 
ENDBRANCH  10  11
ENDBRANCH   1  10
TORSDOF 2
ENDMDL
MODEL 2
REMARK VINA RESULT:    -5.629      1.425      2.003
REMARK INTER + INTRA:          -6.395
REMARK INTER:                  -6.268
REMARK INTRA:                  -0.127
REMARK UNBOUND:                -0.108
REMARK  Name = 1550473
REMARK  2 active torsions:
REMARK  status: ('A' for Active; 'I' for Inactive)
REMARK    1  A    between atoms: N_1  and  C_4
REMARK    2  A    between atoms: C_4  and  C_5
REMARK                            x       y       z     vdW  Elec       q    Type
REMARK                         _______ _______ _______ _____ _____    ______ ____
ROOT
ATOM      1  N   UNL     1      -1.711   7.385   0.583  0.00  0.00    -0.354 N 
ATOM      2  N   UNL     1      -2.003   6.681   2.770  0.00  0.00    -0.372 N 
ATOM      3  N   UNL     1       0.129   6.906   1.953  0.00  0.00    -0.372 N 
ATOM      4  C   UNL     1      -1.190   6.995   1.754  0.00  0.00    +0.166 C 
ATOM      5  H   UNL     1      -2.720   7.402   0.486  0.00  0.00    +0.163 HD
ATOM      6  H   UNL     1      -1.640   6.386   3.666  0.00  0.00    +0.159 HD
ATOM      7  H   UNL     1      -3.011   6.743   2.685  0.00  0.00    +0.159 HD
ATOM      8  H   UNL     1       0.796   7.123   1.225  0.00  0.00    +0.159 HD
ATOM      9  H   UNL     1       0.512   6.602   2.839  0.00  0.00    +0.159 HD
ENDROOT
BRANCH   1  10
ATOM     10  C   UNL     1      -0.912   7.800  -0.569  0.00  0.00    +0.151 C 
BRANCH  10  11
ATOM     11  C   UNL     1      -1.732   7.637  -1.819  0.00  0.00    -0.028 A 
ATOM     12  C   UNL     1      -2.840   6.778  -1.837  0.00  0.00    +0.005 A 
ATOM     13  C   UNL     1      -1.409   8.344  -2.988  0.00  0.00    +0.005 A 
ATOM     14  C   UNL     1      -3.619   6.649  -2.990  0.00  0.00    +0.000 A 
ATOM     15  C   UNL     1      -2.189   8.212  -4.136  0.00  0.00    +0.000 A 
ATOM     16  C   UNL     1      -3.296   7.367  -4.136  0.00  0.00    +0.000 A 
ENDBRANCH  10  11
ENDBRANCH   1  10
TORSDOF 2
ENDMDL
MODEL 3
REMARK VINA RESULT:    -5.488      2.147      2.810
REMARK INTER + INTRA:          -6.238
REMARK INTER:                  -6.094
REMARK INTRA:                  -0.144
REMARK UNBOUND:                -0.108
REMARK  Name = 1550473
REMARK  2 active torsions:
REMARK  status: ('A' for Active; 'I' for Inactive)
REMARK    1  A    between atoms: N_1  and  C_4
REMARK    2  A    between atoms: C_4  and  C_5
REMARK                            x       y       z     vdW  Elec       q    Type
REMARK                         _______ _______ _______ _____ _____    ______ ____
ROOT
ATOM      1  N   UNL     1      -1.886   8.656   1.107  0.00  0.00    -0.354 N 
ATOM      2  N   UNL     1      -1.669  10.956   0.953  0.00  0.00    -0.372 N 
ATOM      3  N   UNL     1      -0.474   9.630  -0.489  0.00  0.00    -0.372 N 
ATOM      4  C   UNL     1      -1.343   9.732   0.523  0.00  0.00    +0.166 C 
ATOM      5  H   UNL     1      -2.515   8.799   1.889  0.00  0.00    +0.163 HD
ATOM      6  H   UNL     1      -1.278  11.787   0.530  0.00  0.00    +0.159 HD
ATOM      7  H   UNL     1      -2.333  11.098   1.705  0.00  0.00    +0.159 HD
ATOM      8  H   UNL     1      -0.182   8.735  -0.856  0.00  0.00    +0.159 HD
ATOM      9  H   UNL     1      -0.062  10.450  -0.918  0.00  0.00    +0.159 HD
ENDROOT
BRANCH   1  10
ATOM     10  C   UNL     1      -1.639   7.280   0.679  0.00  0.00    +0.151 C 
BRANCH  10  11
ATOM     11  C   UNL     1      -2.634   6.910  -0.385  0.00  0.00    -0.028 A 
ATOM     12  C   UNL     1      -3.993   6.762  -0.069  0.00  0.00    +0.005 A 
ATOM     13  C   UNL     1      -2.227   6.711  -1.714  0.00  0.00    +0.005 A 
ATOM     14  C   UNL     1      -4.923   6.447  -1.063  0.00  0.00    +0.000 A 
ATOM     15  C   UNL     1      -3.158   6.397  -2.703  0.00  0.00    +0.000 A 
ATOM     16  C   UNL     1      -4.506   6.267  -2.378  0.00  0.00    +0.000 A 
ENDBRANCH  10  11
ENDBRANCH   1  10
TORSDOF 2
ENDMDL
MODEL 4
REMARK VINA RESULT:    -5.241     18.772     19.591
REMARK INTER + INTRA:          -5.962
REMARK INTER:                  -5.829
REMARK INTRA:                  -0.133
REMARK UNBOUND:                -0.108
REMARK  Name = 1550473
REMARK  2 active torsions:
REMARK  status: ('A' for Active; 'I' for Inactive)
REMARK    1  A    between atoms: N_1  and  C_4
REMARK    2  A    between atoms: C_4  and  C_5
REMARK                            x       y       z     vdW  Elec       q    Type
REMARK                         _______ _______ _______ _____ _____    ______ ____
ROOT
ATOM      1  N   UNL     1      12.339  -4.327  -0.322  0.00  0.00    -0.354 N 
ATOM      2  N   UNL     1      11.821  -6.561  -0.000  0.00  0.00    -0.372 N 
ATOM      3  N   UNL     1      12.599  -5.336   1.777  0.00  0.00    -0.372 N 
ATOM      4  C   UNL     1      12.257  -5.393   0.485  0.00  0.00    +0.166 C 
ATOM      5  H   UNL     1      12.094  -4.444  -1.299  0.00  0.00    +0.163 HD
ATOM      6  H   UNL     1      11.745  -7.382   0.586  0.00  0.00    +0.159 HD
ATOM      7  H   UNL     1      11.533  -6.663  -0.966  0.00  0.00    +0.159 HD
ATOM      8  H   UNL     1      12.941  -4.485   2.203  0.00  0.00    +0.159 HD
ATOM      9  H   UNL     1      12.541  -6.149   2.377  0.00  0.00    +0.159 HD
ENDROOT
BRANCH   1  10
ATOM     10  C   UNL     1      12.751  -2.996   0.120  0.00  0.00    +0.151 C 
BRANCH  10  11
ATOM     11  C   UNL     1      13.586  -2.358  -0.956  0.00  0.00    -0.028 A 
ATOM     12  C   UNL     1      13.560  -0.968  -1.146  0.00  0.00    +0.005 A 
ATOM     13  C   UNL     1      14.409  -3.136  -1.784  0.00  0.00    +0.005 A 
ATOM     14  C   UNL     1      14.359  -0.372  -2.125  0.00  0.00    +0.000 A 
ATOM     15  C   UNL     1      15.204  -2.537  -2.761  0.00  0.00    +0.000 A 
ATOM     16  C   UNL     1      15.180  -1.155  -2.930  0.00  0.00    +0.000 A 
ENDBRANCH  10  11
ENDBRANCH   1  10
TORSDOF 2
ENDMDL
MODEL 5
REMARK VINA RESULT:    -5.099     24.292     24.848
REMARK INTER + INTRA:          -5.803
REMARK INTER:                  -5.643
REMARK INTRA:                  -0.160
REMARK UNBOUND:                -0.108
REMARK  Name = 1550473
REMARK  2 active torsions:
REMARK  status: ('A' for Active; 'I' for Inactive)
REMARK    1  A    between atoms: N_1  and  C_4
REMARK    2  A    between atoms: C_4  and  C_5
REMARK                            x       y       z     vdW  Elec       q    Type
REMARK                         _______ _______ _______ _____ _____    ______ ____
ROOT
ATOM      1  N   UNL     1     -10.123 -17.594  -4.665  0.00  0.00    -0.354 N 
ATOM      2  N   UNL     1      -8.063 -18.058  -3.713  0.00  0.00    -0.372 N 
ATOM      3  N   UNL     1      -8.286 -18.188  -5.993  0.00  0.00    -0.372 N 
ATOM      4  C   UNL     1      -8.837 -17.944  -4.799  0.00  0.00    +0.166 C 
ATOM      5  H   UNL     1     -10.488 -17.452  -3.730  0.00  0.00    +0.163 HD
ATOM      6  H   UNL     1      -7.088 -18.317  -3.784  0.00  0.00    +0.159 HD
ATOM      7  H   UNL     1      -8.418 -17.870  -2.784  0.00  0.00    +0.159 HD
ATOM      8  H   UNL     1      -8.818 -18.126  -6.851  0.00  0.00    +0.159 HD
ATOM      9  H   UNL     1      -7.315 -18.461  -6.083  0.00  0.00    +0.159 HD
ENDROOT
BRANCH   1  10
ATOM     10  C   UNL     1     -11.037 -17.390  -5.787  0.00  0.00    +0.151 C 
BRANCH  10  11
ATOM     11  C   UNL     1     -11.261 -15.915  -5.977  0.00  0.00    -0.028 A 
ATOM     12  C   UNL     1     -11.225 -15.042  -4.880  0.00  0.00    +0.005 A 
ATOM     13  C   UNL     1     -11.503 -15.384  -7.253  0.00  0.00    +0.005 A 
ATOM     14  C   UNL     1     -11.403 -13.669  -5.060  0.00  0.00    +0.000 A 
ATOM     15  C   UNL     1     -11.681 -14.012  -7.429  0.00  0.00    +0.000 A 
ATOM     16  C   UNL     1     -11.628 -13.154  -6.333  0.00  0.00    +0.000 A 
ENDBRANCH  10  11
ENDBRANCH   1  10
TORSDOF 2
ENDMDL
MODEL 6
REMARK VINA RESULT:    -5.065     18.225     19.429
REMARK INTER + INTRA:          -5.765
REMARK INTER:                  -5.589
REMARK INTRA:                  -0.176
REMARK UNBOUND:                -0.108
REMARK  Name = 1550473
REMARK  2 active torsions:
REMARK  status: ('A' for Active; 'I' for Inactive)
REMARK    1  A    between atoms: N_1  and  C_4
REMARK    2  A    between atoms: C_4  and  C_5
REMARK                            x       y       z     vdW  Elec       q    Type
REMARK                         _______ _______ _______ _____ _____    ______ ____
ROOT
ATOM      1  N   UNL     1      14.051  -1.644  -4.398  0.00  0.00    -0.354 N 
ATOM      2  N   UNL     1      12.527  -1.252  -6.098  0.00  0.00    -0.372 N 
ATOM      3  N   UNL     1      12.843   0.362  -4.498  0.00  0.00    -0.372 N 
ATOM      4  C   UNL     1      13.150  -0.845  -4.985  0.00  0.00    +0.166 C 
ATOM      5  H   UNL     1      14.217  -2.559  -4.800  0.00  0.00    +0.163 HD
ATOM      6  H   UNL     1      11.845  -0.670  -6.565  0.00  0.00    +0.159 HD
ATOM      7  H   UNL     1      12.728  -2.149  -6.523  0.00  0.00    +0.159 HD
ATOM      8  H   UNL     1      13.274   0.725  -3.658  0.00  0.00    +0.159 HD
ATOM      9  H   UNL     1      12.155   0.954  -4.944  0.00  0.00    +0.159 HD
ENDROOT
BRANCH   1  10
ATOM     10  C   UNL     1      14.824  -1.273  -3.214  0.00  0.00    +0.151 C 
BRANCH  10  11
ATOM     11  C   UNL     1      14.176  -1.872  -1.997  0.00  0.00    -0.028 A 
ATOM     12  C   UNL     1      13.371  -1.086  -1.159  0.00  0.00    +0.005 A 
ATOM     13  C   UNL     1      14.358  -3.227  -1.679  0.00  0.00    +0.005 A 
ATOM     14  C   UNL     1      12.745  -1.649  -0.045  0.00  0.00    +0.000 A 
ATOM     15  C   UNL     1      13.731  -3.785  -0.565  0.00  0.00    +0.000 A 
ATOM     16  C   UNL     1      12.922  -2.996   0.251  0.00  0.00    +0.000 A 
ENDBRANCH  10  11
ENDBRANCH   1  10
TORSDOF 2
ENDMDL
MODEL 7
REMARK VINA RESULT:    -4.998      2.184      2.988
REMARK INTER + INTRA:          -5.691
REMARK INTER:                  -5.512
REMARK INTRA:                  -0.179
REMARK UNBOUND:                -0.108
REMARK  Name = 1550473
REMARK  2 active torsions:
REMARK  status: ('A' for Active; 'I' for Inactive)
REMARK    1  A    between atoms: N_1  and  C_4
REMARK    2  A    between atoms: C_4  and  C_5
REMARK                            x       y       z     vdW  Elec       q    Type
REMARK                         _______ _______ _______ _____ _____    ______ ____
ROOT
ATOM      1  N   UNL     1      -2.604   9.821   0.334  0.00  0.00    -0.354 N 
ATOM      2  N   UNL     1      -0.385  10.378  -0.026  0.00  0.00    -0.372 N 
ATOM      3  N   UNL     1      -0.873   8.495   1.191  0.00  0.00    -0.372 N 
ATOM      4  C   UNL     1      -1.301   9.559   0.504  0.00  0.00    +0.166 C 
ATOM      5  H   UNL     1      -2.864  10.660  -0.172  0.00  0.00    +0.163 HD
ATOM      6  H   UNL     1       0.605  10.203   0.082  0.00  0.00    +0.159 HD
ATOM      7  H   UNL     1      -0.648  11.190  -0.571  0.00  0.00    +0.159 HD
ATOM      8  H   UNL     1      -1.514   7.842   1.621  0.00  0.00    +0.159 HD
ATOM      9  H   UNL     1       0.114   8.310   1.321  0.00  0.00    +0.159 HD
ENDROOT
BRANCH   1  10
ATOM     10  C   UNL     1      -3.682   8.964   0.824  0.00  0.00    +0.151 C 
BRANCH  10  11
ATOM     11  C   UNL     1      -4.263   8.196  -0.331  0.00  0.00    -0.028 A 
ATOM     12  C   UNL     1      -3.949   6.842  -0.516  0.00  0.00    +0.005 A 
ATOM     13  C   UNL     1      -5.134   8.817  -1.240  0.00  0.00    +0.005 A 
ATOM     14  C   UNL     1      -4.513   6.121  -1.572  0.00  0.00    +0.000 A 
ATOM     15  C   UNL     1      -5.694   8.093  -2.293  0.00  0.00    +0.000 A 
ATOM     16  C   UNL     1      -5.385   6.745  -2.457  0.00  0.00    +0.000 A 
ENDBRANCH  10  11
ENDBRANCH   1  10
TORSDOF 2
ENDMDL
MODEL 8
REMARK VINA RESULT:    -4.986     18.343     19.143
REMARK INTER + INTRA:          -5.677
REMARK INTER:                  -5.557
REMARK INTRA:                  -0.120
REMARK UNBOUND:                -0.108
REMARK  Name = 1550473
REMARK  2 active torsions:
REMARK  status: ('A' for Active; 'I' for Inactive)
REMARK    1  A    between atoms: N_1  and  C_4
REMARK    2  A    between atoms: C_4  and  C_5
REMARK                            x       y       z     vdW  Elec       q    Type
REMARK                         _______ _______ _______ _____ _____    ______ ____
ROOT
ATOM      1  N   UNL     1      11.813  -4.161  -4.440  0.00  0.00    -0.354 N 
ATOM      2  N   UNL     1      10.536  -5.997  -5.041  0.00  0.00    -0.372 N 
ATOM      3  N   UNL     1      10.920  -4.356  -6.598  0.00  0.00    -0.372 N 
ATOM      4  C   UNL     1      11.097  -4.824  -5.358  0.00  0.00    +0.166 C 
ATOM      5  H   UNL     1      11.885  -4.555  -3.509  0.00  0.00    +0.163 HD
ATOM      6  H   UNL     1       9.993  -6.522  -5.714  0.00  0.00    +0.159 HD
ATOM      7  H   UNL     1      10.648  -6.411  -4.124  0.00  0.00    +0.159 HD
ATOM      8  H   UNL     1      11.312  -3.474  -6.899  0.00  0.00    +0.159 HD
ATOM      9  H   UNL     1      10.370  -4.861  -7.282  0.00  0.00    +0.159 HD
ENDROOT
BRANCH   1  10
ATOM     10  C   UNL     1      12.510  -2.903  -4.700  0.00  0.00    +0.151 C 
BRANCH  10  11
ATOM     11  C   UNL     1      12.849  -2.249  -3.388  0.00  0.00    -0.028 A 
ATOM     12  C   UNL     1      11.982  -2.362  -2.292  0.00  0.00    +0.005 A 
ATOM     13  C   UNL     1      14.039  -1.522  -3.234  0.00  0.00    +0.005 A 
ATOM     14  C   UNL     1      12.310  -1.780  -1.065  0.00  0.00    +0.000 A 
ATOM     15  C   UNL     1      14.363  -0.942  -2.008  0.00  0.00    +0.000 A 
ATOM     16  C   UNL     1      13.500  -1.073  -0.923  0.00  0.00    +0.000 A 
ENDBRANCH  10  11
ENDBRANCH   1  10
TORSDOF 2
ENDMDL
MODEL 9
REMARK VINA RESULT:    -4.898      3.150      3.906
REMARK INTER + INTRA:          -5.578
REMARK INTER:                  -5.439
REMARK INTRA:                  -0.139
REMARK UNBOUND:                -0.108
REMARK  Name = 1550473
REMARK  2 active torsions:
REMARK  status: ('A' for Active; 'I' for Inactive)
REMARK    1  A    between atoms: N_1  and  C_4
REMARK    2  A    between atoms: C_4  and  C_5
REMARK                            x       y       z     vdW  Elec       q    Type
REMARK                         _______ _______ _______ _____ _____    ______ ____
ROOT
ATOM      1  N   UNL     1      -0.520   8.852  -1.984  0.00  0.00    -0.354 N 
ATOM      2  N   UNL     1       0.701  10.564  -2.954  0.00  0.00    -0.372 N 
ATOM      3  N   UNL     1       0.051  10.769  -0.763  0.00  0.00    -0.372 N 
ATOM      4  C   UNL     1       0.069  10.051  -1.892  0.00  0.00    +0.166 C 
ATOM      5  H   UNL     1      -0.497   8.371  -2.876  0.00  0.00    +0.163 HD
ATOM      6  H   UNL     1       1.157  11.465  -2.914  0.00  0.00    +0.159 HD
ATOM      7  H   UNL     1       0.762  10.061  -3.831  0.00  0.00    +0.159 HD
ATOM      8  H   UNL     1      -0.415  10.441   0.072  0.00  0.00    +0.159 HD
ATOM      9  H   UNL     1       0.492  11.678  -0.707  0.00  0.00    +0.159 HD
ENDROOT
BRANCH   1  10
ATOM     10  C   UNL     1      -1.188   8.181  -0.870  0.00  0.00    +0.151 C 
BRANCH  10  11
ATOM     11  C   UNL     1      -2.465   7.560  -1.366  0.00  0.00    -0.028 A 
ATOM     12  C   UNL     1      -2.848   7.694  -2.708  0.00  0.00    +0.005 A 
ATOM     13  C   UNL     1      -3.294   6.831  -0.499  0.00  0.00    +0.005 A 
ATOM     14  C   UNL     1      -4.019   7.092  -3.176  0.00  0.00    +0.000 A 
ATOM     15  C   UNL     1      -4.463   6.233  -0.969  0.00  0.00    +0.000 A 
ATOM     16  C   UNL     1      -4.823   6.361  -2.308  0.00  0.00    +0.000 A 
ENDBRANCH  10  11
ENDBRANCH   1  10
TORSDOF 2
ENDMDL
