MODEL 1
REMARK VINA RESULT:    -5.694      0.000      0.000
REMARK INTER + INTRA:          -6.533
REMARK INTER:                  -6.360
REMARK INTRA:                  -0.173
REMARK UNBOUND:                -0.173
REMARK  Name = 1550473
REMARK  2 active torsions:
REMARK  status: ('A' for Active; 'I' for Inactive)
REMARK    1  A    between atoms: N_1  and  C_4
REMARK    2  A    between atoms: C_4  and  C_5
REMARK                            x       y       z     vdW  Elec       q    Type
REMARK                         _______ _______ _______ _____ _____    ______ ____
ROOT
ATOM      1  N   UNL     1     -15.718 -12.784   7.973  0.00  0.00    -0.354 N 
ATOM      2  N   UNL     1     -15.282 -14.909   7.162  0.00  0.00    -0.372 N 
ATOM      3  N   UNL     1     -17.313 -13.943   6.706  0.00  0.00    -0.372 N 
ATOM      4  C   UNL     1     -16.110 -13.865   7.285  0.00  0.00    +0.166 C 
ATOM      5  H   UNL     1     -14.805 -12.799   8.414  0.00  0.00    +0.163 HD
ATOM      6  H   UNL     1     -15.549 -15.737   6.646  0.00  0.00    +0.159 HD
ATOM      7  H   UNL     1     -14.353 -14.903   7.565  0.00  0.00    +0.159 HD
ATOM      8  H   UNL     1     -17.986 -13.191   6.767  0.00  0.00    +0.159 HD
ATOM      9  H   UNL     1     -17.602 -14.768   6.195  0.00  0.00    +0.159 HD
ENDROOT
BRANCH   1  10
ATOM     10  C   UNL     1     -16.523 -11.573   8.121  0.00  0.00    +0.151 C 
BRANCH  10  11
ATOM     11  C   UNL     1     -16.032 -10.536   7.149  0.00  0.00    -0.028 A 
ATOM     12  C   UNL     1     -16.936  -9.842   6.332  0.00  0.00    +0.005 A 
ATOM     13  C   UNL     1     -14.664 -10.238   7.045  0.00  0.00    +0.005 A 
ATOM     14  C   UNL     1     -16.483  -8.857   5.451  0.00  0.00    +0.000 A 
ATOM     15  C   UNL     1     -14.216  -9.255   6.163  0.00  0.00    +0.000 A 
ATOM     16  C   UNL     1     -15.126  -8.563   5.368  0.00  0.00    +0.000 A 
ENDBRANCH  10  11
ENDBRANCH   1  10
TORSDOF 2
ENDMDL
MODEL 2
REMARK VINA RESULT:    -5.485     33.309     34.559
REMARK INTER + INTRA:          -6.299
REMARK INTER:                  -6.183
REMARK INTRA:                  -0.117
REMARK UNBOUND:                -0.173
REMARK  Name = 1550473
REMARK  2 active torsions:
REMARK  status: ('A' for Active; 'I' for Inactive)
REMARK    1  A    between atoms: N_1  and  C_4
REMARK    2  A    between atoms: C_4  and  C_5
REMARK                            x       y       z     vdW  Elec       q    Type
REMARK                         _______ _______ _______ _____ _____    ______ ____
ROOT
ATOM      1  N   UNL     1      10.211 -12.489 -16.580  0.00  0.00    -0.354 N 
ATOM      2  N   UNL     1       9.576 -13.578 -18.523  0.00  0.00    -0.372 N 
ATOM      3  N   UNL     1      11.625 -14.052 -17.605  0.00  0.00    -0.372 N 
ATOM      4  C   UNL     1      10.477 -13.367 -17.556  0.00  0.00    +0.166 C 
ATOM      5  H   UNL     1       9.336 -11.979 -16.617  0.00  0.00    +0.163 HD
ATOM      6  H   UNL     1       9.747 -14.238 -19.270  0.00  0.00    +0.159 HD
ATOM      7  H   UNL     1       8.682 -13.102 -18.532  0.00  0.00    +0.159 HD
ATOM      8  H   UNL     1      12.349 -13.934 -16.909  0.00  0.00    +0.159 HD
ATOM      9  H   UNL     1      11.820 -14.707 -18.351  0.00  0.00    +0.159 HD
ENDROOT
BRANCH   1  10
ATOM     10  C   UNL     1      11.102 -12.225 -15.452  0.00  0.00    +0.151 C 
BRANCH  10  11
ATOM     11  C   UNL     1      10.645 -10.978 -14.746  0.00  0.00    -0.028 A 
ATOM     12  C   UNL     1      11.562 -10.177 -14.049  0.00  0.00    +0.005 A 
ATOM     13  C   UNL     1       9.297 -10.588 -14.775  0.00  0.00    +0.005 A 
ATOM     14  C   UNL     1      11.144  -9.003 -13.419  0.00  0.00    +0.000 A 
ATOM     15  C   UNL     1       8.883  -9.416 -14.144  0.00  0.00    +0.000 A 
ATOM     16  C   UNL     1       9.807  -8.622 -13.468  0.00  0.00    +0.000 A 
ENDBRANCH  10  11
ENDBRANCH   1  10
TORSDOF 2
ENDMDL
MODEL 3
REMARK VINA RESULT:    -5.398     28.345     29.619
REMARK INTER + INTRA:          -6.202
REMARK INTER:                  -6.019
REMARK INTRA:                  -0.183
REMARK UNBOUND:                -0.173
REMARK  Name = 1550473
REMARK  2 active torsions:
REMARK  status: ('A' for Active; 'I' for Inactive)
REMARK    1  A    between atoms: N_1  and  C_4
REMARK    2  A    between atoms: C_4  and  C_5
REMARK                            x       y       z     vdW  Elec       q    Type
REMARK                         _______ _______ _______ _____ _____    ______ ____
ROOT
ATOM      1  N   UNL     1      -2.153  12.246  21.948  0.00  0.00    -0.354 N 
ATOM      2  N   UNL     1       0.046  11.741  21.425  0.00  0.00    -0.372 N 
ATOM      3  N   UNL     1      -1.131  10.306  22.773  0.00  0.00    -0.372 N 
ATOM      4  C   UNL     1      -1.094  11.432  22.054  0.00  0.00    +0.166 C 
ATOM      5  H   UNL     1      -2.052  13.101  21.412  0.00  0.00    +0.163 HD
ATOM      6  H   UNL     1       0.860  11.145  21.484  0.00  0.00    +0.159 HD
ATOM      7  H   UNL     1       0.130  12.573  20.853  0.00  0.00    +0.159 HD
ATOM      8  H   UNL     1      -1.960  10.019  23.277  0.00  0.00    +0.159 HD
ATOM      9  H   UNL     1      -0.323   9.702  22.854  0.00  0.00    +0.159 HD
ENDROOT
BRANCH   1  10
ATOM     10  C   UNL     1      -3.457  11.974  22.549  0.00  0.00    +0.151 C 
BRANCH  10  11
ATOM     11  C   UNL     1      -4.358  11.362  21.512  0.00  0.00    -0.028 A 
ATOM     12  C   UNL     1      -4.877  12.142  20.469  0.00  0.00    +0.005 A 
ATOM     13  C   UNL     1      -4.692  10.000  21.564  0.00  0.00    +0.005 A 
ATOM     14  C   UNL     1      -5.690  11.567  19.489  0.00  0.00    +0.000 A 
ATOM     15  C   UNL     1      -5.504   9.429  20.584  0.00  0.00    +0.000 A 
ATOM     16  C   UNL     1      -6.001  10.213  19.545  0.00  0.00    +0.000 A 
ENDBRANCH  10  11
ENDBRANCH   1  10
TORSDOF 2
ENDMDL
MODEL 4
REMARK VINA RESULT:    -5.353     23.666     25.142
REMARK INTER + INTRA:          -6.153
REMARK INTER:                  -5.998
REMARK INTRA:                  -0.155
REMARK UNBOUND:                -0.173
REMARK  Name = 1550473
REMARK  2 active torsions:
REMARK  status: ('A' for Active; 'I' for Inactive)
REMARK    1  A    between atoms: N_1  and  C_4
REMARK    2  A    between atoms: C_4  and  C_5
REMARK                            x       y       z     vdW  Elec       q    Type
REMARK                         _______ _______ _______ _____ _____    ______ ____
ROOT
ATOM      1  N   UNL     1      -8.255  -1.445 -12.785  0.00  0.00    -0.354 N 
ATOM      2  N   UNL     1     -10.056  -1.383 -11.330  0.00  0.00    -0.372 N 
ATOM      3  N   UNL     1      -8.913   0.559 -11.764  0.00  0.00    -0.372 N 
ATOM      4  C   UNL     1      -9.062  -0.754 -11.969  0.00  0.00    +0.166 C 
ATOM      5  H   UNL     1      -8.402  -2.444 -12.875  0.00  0.00    +0.163 HD
ATOM      6  H   UNL     1     -10.683  -0.887 -10.711  0.00  0.00    +0.159 HD
ATOM      7  H   UNL     1     -10.229  -2.373 -11.457  0.00  0.00    +0.159 HD
ATOM      8  H   UNL     1      -8.179   1.091 -12.211  0.00  0.00    +0.159 HD
ATOM      9  H   UNL     1      -9.523   1.070 -11.138  0.00  0.00    +0.159 HD
ENDROOT
BRANCH   1  10
ATOM     10  C   UNL     1      -7.177  -0.845 -13.569  0.00  0.00    +0.151 C 
BRANCH  10  11
ATOM     11  C   UNL     1      -7.538  -0.904 -15.028  0.00  0.00    -0.028 A 
ATOM     12  C   UNL     1      -7.019   0.037 -15.929  0.00  0.00    +0.005 A 
ATOM     13  C   UNL     1      -8.395  -1.903 -15.516  0.00  0.00    +0.005 A 
ATOM     14  C   UNL     1      -7.330  -0.036 -17.289  0.00  0.00    +0.000 A 
ATOM     15  C   UNL     1      -8.704  -1.972 -16.875  0.00  0.00    +0.000 A 
ATOM     16  C   UNL     1      -8.169  -1.040 -17.761  0.00  0.00    +0.000 A 
ENDBRANCH  10  11
ENDBRANCH   1  10
TORSDOF 2
ENDMDL
MODEL 5
REMARK VINA RESULT:    -5.296     23.934     25.371
REMARK INTER + INTRA:          -6.089
REMARK INTER:                  -5.982
REMARK INTRA:                  -0.106
REMARK UNBOUND:                -0.173
REMARK  Name = 1550473
REMARK  2 active torsions:
REMARK  status: ('A' for Active; 'I' for Inactive)
REMARK    1  A    between atoms: N_1  and  C_4
REMARK    2  A    between atoms: C_4  and  C_5
REMARK                            x       y       z     vdW  Elec       q    Type
REMARK                         _______ _______ _______ _____ _____    ______ ____
ROOT
ATOM      1  N   UNL     1      -6.551  -1.287 -13.155  0.00  0.00    -0.354 N 
ATOM      2  N   UNL     1      -4.854  -1.357 -11.579  0.00  0.00    -0.372 N 
ATOM      3  N   UNL     1      -6.976  -0.805 -10.901  0.00  0.00    -0.372 N 
ATOM      4  C   UNL     1      -6.140  -1.148 -11.887  0.00  0.00    +0.166 C 
ATOM      5  H   UNL     1      -5.862  -1.519 -13.861  0.00  0.00    +0.163 HD
ATOM      6  H   UNL     1      -4.516  -1.264 -10.631  0.00  0.00    +0.159 HD
ATOM      7  H   UNL     1      -4.177  -1.634 -12.279  0.00  0.00    +0.159 HD
ATOM      8  H   UNL     1      -7.957  -0.628 -11.068  0.00  0.00    +0.159 HD
ATOM      9  H   UNL     1      -6.654  -0.695  -9.947  0.00  0.00    +0.159 HD
ENDROOT
BRANCH   1  10
ATOM     10  C   UNL     1      -7.939  -1.134 -13.586  0.00  0.00    +0.151 C 
BRANCH  10  11
ATOM     11  C   UNL     1      -7.979  -1.022 -15.085  0.00  0.00    -0.028 A 
ATOM     12  C   UNL     1      -8.747  -1.915 -15.846  0.00  0.00    +0.005 A 
ATOM     13  C   UNL     1      -7.255  -0.020 -15.749  0.00  0.00    +0.005 A 
ATOM     14  C   UNL     1      -8.808  -1.792 -17.236  0.00  0.00    +0.000 A 
ATOM     15  C   UNL     1      -7.317   0.099 -17.138  0.00  0.00    +0.000 A 
ATOM     16  C   UNL     1      -8.096  -0.785 -17.880  0.00  0.00    +0.000 A 
ENDBRANCH  10  11
ENDBRANCH   1  10
TORSDOF 2
ENDMDL
MODEL 6
REMARK VINA RESULT:    -5.196     23.308     24.782
REMARK INTER + INTRA:          -5.976
REMARK INTER:                  -5.849
REMARK INTRA:                  -0.128
REMARK UNBOUND:                -0.173
REMARK  Name = 1550473
REMARK  2 active torsions:
REMARK  status: ('A' for Active; 'I' for Inactive)
REMARK    1  A    between atoms: N_1  and  C_4
REMARK    2  A    between atoms: C_4  and  C_5
REMARK                            x       y       z     vdW  Elec       q    Type
REMARK                         _______ _______ _______ _____ _____    ______ ____
ROOT
ATOM      1  N   UNL     1      -8.535  -1.539 -12.906  0.00  0.00    -0.354 N 
ATOM      2  N   UNL     1      -9.996  -1.465 -11.111  0.00  0.00    -0.372 N 
ATOM      3  N   UNL     1     -10.653  -0.559 -13.114  0.00  0.00    -0.372 N 
ATOM      4  C   UNL     1      -9.720  -1.186 -12.391  0.00  0.00    +0.166 C 
ATOM      5  H   UNL     1      -7.858  -1.985 -12.297  0.00  0.00    +0.163 HD
ATOM      6  H   UNL     1     -10.883  -1.215 -10.696  0.00  0.00    +0.159 HD
ATOM      7  H   UNL     1      -9.336  -1.953 -10.518  0.00  0.00    +0.159 HD
ATOM      8  H   UNL     1     -10.504  -0.314 -14.084  0.00  0.00    +0.159 HD
ATOM      9  H   UNL     1     -11.543  -0.289 -12.713  0.00  0.00    +0.159 HD
ENDROOT
BRANCH   1  10
ATOM     10  C   UNL     1      -8.155  -1.329 -14.302  0.00  0.00    +0.151 C 
BRANCH  10  11
ATOM     11  C   UNL     1      -6.754  -0.787 -14.355  0.00  0.00    -0.028 A 
ATOM     12  C   UNL     1      -5.796  -1.196 -13.415  0.00  0.00    +0.005 A 
ATOM     13  C   UNL     1      -6.375   0.132 -15.346  0.00  0.00    +0.005 A 
ATOM     14  C   UNL     1      -4.486  -0.715 -13.481  0.00  0.00    +0.000 A 
ATOM     15  C   UNL     1      -5.066   0.610 -15.408  0.00  0.00    +0.000 A 
ATOM     16  C   UNL     1      -4.122   0.184 -14.477  0.00  0.00    +0.000 A 
ENDBRANCH  10  11
ENDBRANCH   1  10
TORSDOF 2
ENDMDL
MODEL 7
REMARK VINA RESULT:    -5.182     32.793     33.633
REMARK INTER + INTRA:          -5.961
REMARK INTER:                  -5.805
REMARK INTRA:                  -0.156
REMARK UNBOUND:                -0.173
REMARK  Name = 1550473
REMARK  2 active torsions:
REMARK  status: ('A' for Active; 'I' for Inactive)
REMARK    1  A    between atoms: N_1  and  C_4
REMARK    2  A    between atoms: C_4  and  C_5
REMARK                            x       y       z     vdW  Elec       q    Type
REMARK                         _______ _______ _______ _____ _____    ______ ____
ROOT
ATOM      1  N   UNL     1       9.550 -11.272 -15.005  0.00  0.00    -0.354 N 
ATOM      2  N   UNL     1      10.477 -12.753 -16.525  0.00  0.00    -0.372 N 
ATOM      3  N   UNL     1      11.688 -12.169 -14.666  0.00  0.00    -0.372 N 
ATOM      4  C   UNL     1      10.568 -12.055 -15.387  0.00  0.00    +0.166 C 
ATOM      5  H   UNL     1       8.740 -11.205 -15.611  0.00  0.00    +0.163 HD
ATOM      6  H   UNL     1      11.227 -13.355 -16.837  0.00  0.00    +0.159 HD
ATOM      7  H   UNL     1       9.648 -12.721 -17.106  0.00  0.00    +0.159 HD
ATOM      8  H   UNL     1      11.822 -11.664 -13.800  0.00  0.00    +0.159 HD
ATOM      9  H   UNL     1      12.455 -12.757 -14.968  0.00  0.00    +0.159 HD
ENDROOT
BRANCH   1  10
ATOM     10  C   UNL     1       9.527 -10.512 -13.757  0.00  0.00    +0.151 C 
BRANCH  10  11
ATOM     11  C   UNL     1       9.538  -9.043 -14.076  0.00  0.00    -0.028 A 
ATOM     12  C   UNL     1       8.401  -8.423 -14.615  0.00  0.00    +0.005 A 
ATOM     13  C   UNL     1      10.680  -8.263 -13.836  0.00  0.00    +0.005 A 
ATOM     14  C   UNL     1       8.400  -7.052 -14.884  0.00  0.00    +0.000 A 
ATOM     15  C   UNL     1      10.676  -6.895 -14.107  0.00  0.00    +0.000 A 
ATOM     16  C   UNL     1       9.535  -6.289 -14.628  0.00  0.00    +0.000 A 
ENDBRANCH  10  11
ENDBRANCH   1  10
TORSDOF 2
ENDMDL
MODEL 8
REMARK VINA RESULT:    -5.113     32.080     33.354
REMARK INTER + INTRA:          -5.885
REMARK INTER:                  -5.743
REMARK INTRA:                  -0.142
REMARK UNBOUND:                -0.173
REMARK  Name = 1550473
REMARK  2 active torsions:
REMARK  status: ('A' for Active; 'I' for Inactive)
REMARK    1  A    between atoms: N_1  and  C_4
REMARK    2  A    between atoms: C_4  and  C_5
REMARK                            x       y       z     vdW  Elec       q    Type
REMARK                         _______ _______ _______ _____ _____    ______ ____
ROOT
ATOM      1  N   UNL     1       8.782  -9.286 -14.566  0.00  0.00    -0.354 N 
ATOM      2  N   UNL     1       9.915 -11.204 -13.928  0.00  0.00    -0.372 N 
ATOM      3  N   UNL     1       9.264  -9.711 -12.312  0.00  0.00    -0.372 N 
ATOM      4  C   UNL     1       9.313 -10.053 -13.604  0.00  0.00    +0.166 C 
ATOM      5  H   UNL     1       8.879  -9.587 -15.529  0.00  0.00    +0.163 HD
ATOM      6  H   UNL     1      10.321 -11.805 -13.224  0.00  0.00    +0.159 HD
ATOM      7  H   UNL     1       9.969 -11.524 -14.888  0.00  0.00    +0.159 HD
ATOM      8  H   UNL     1       8.829  -8.852 -12.001  0.00  0.00    +0.159 HD
ATOM      9  H   UNL     1       9.675 -10.294 -11.593  0.00  0.00    +0.159 HD
ENDROOT
BRANCH   1  10
ATOM     10  C   UNL     1       8.058  -8.042 -14.313  0.00  0.00    +0.151 C 
BRANCH  10  11
ATOM     11  C   UNL     1       8.861  -6.889 -14.850  0.00  0.00    -0.028 A 
ATOM     12  C   UNL     1      10.138  -6.611 -14.340  0.00  0.00    +0.005 A 
ATOM     13  C   UNL     1       8.353  -6.074 -15.874  0.00  0.00    +0.005 A 
ATOM     14  C   UNL     1      10.896  -5.559 -14.859  0.00  0.00    +0.000 A 
ATOM     15  C   UNL     1       9.113  -5.024 -16.389  0.00  0.00    +0.000 A 
ATOM     16  C   UNL     1      10.385  -4.769 -15.883  0.00  0.00    +0.000 A 
ENDBRANCH  10  11
ENDBRANCH   1  10
TORSDOF 2
ENDMDL
MODEL 9
REMARK VINA RESULT:    -4.915     15.370     15.970
REMARK INTER + INTRA:          -5.663
REMARK INTER:                  -5.532
REMARK INTRA:                  -0.131
REMARK UNBOUND:                -0.173
REMARK  Name = 1550473
REMARK  2 active torsions:
REMARK  status: ('A' for Active; 'I' for Inactive)
REMARK    1  A    between atoms: N_1  and  C_4
REMARK    2  A    between atoms: C_4  and  C_5
REMARK                            x       y       z     vdW  Elec       q    Type
REMARK                         _______ _______ _______ _____ _____    ______ ____
ROOT
ATOM      1  N   UNL     1     -16.931 -18.090  -7.437  0.00  0.00    -0.354 N 
ATOM      2  N   UNL     1     -19.090 -17.267  -7.267  0.00  0.00    -0.372 N 
ATOM      3  N   UNL     1     -17.782 -17.347  -5.383  0.00  0.00    -0.372 N 
ATOM      4  C   UNL     1     -17.919 -17.573  -6.694  0.00  0.00    +0.166 C 
ATOM      5  H   UNL     1     -17.109 -18.266  -8.419  0.00  0.00    +0.163 HD
ATOM      6  H   UNL     1     -19.852 -16.873  -6.732  0.00  0.00    +0.159 HD
ATOM      7  H   UNL     1     -19.249 -17.401  -8.258  0.00  0.00    +0.159 HD
ATOM      8  H   UNL     1     -16.925 -17.561  -4.890  0.00  0.00    +0.159 HD
ATOM      9  H   UNL     1     -18.537 -16.964  -4.829  0.00  0.00    +0.159 HD
ENDROOT
BRANCH   1  10
ATOM     10  C   UNL     1     -15.601 -18.407  -6.921  0.00  0.00    +0.151 C 
BRANCH  10  11
ATOM     11  C   UNL     1     -14.571 -17.674  -7.735  0.00  0.00    -0.028 A 
ATOM     12  C   UNL     1     -14.567 -17.772  -9.134  0.00  0.00    +0.005 A 
ATOM     13  C   UNL     1     -13.599 -16.875  -7.114  0.00  0.00    +0.005 A 
ATOM     14  C   UNL     1     -13.629 -17.067  -9.892  0.00  0.00    +0.000 A 
ATOM     15  C   UNL     1     -12.663 -16.174  -7.874  0.00  0.00    +0.000 A 
ATOM     16  C   UNL     1     -12.680 -16.268  -9.264  0.00  0.00    +0.000 A 
ENDBRANCH  10  11
ENDBRANCH   1  10
TORSDOF 2
ENDMDL
