MODEL 1
REMARK VINA RESULT:    -5.140      0.000      0.000
REMARK INTER + INTRA:          -5.865
REMARK INTER:                  -5.741
REMARK INTRA:                  -0.123
REMARK UNBOUND:                -0.123
REMARK  Name = 1550473
REMARK  2 active torsions:
REMARK  status: ('A' for Active; 'I' for Inactive)
REMARK    1  A    between atoms: N_1  and  C_4
REMARK    2  A    between atoms: C_4  and  C_5
REMARK                            x       y       z     vdW  Elec       q    Type
REMARK                         _______ _______ _______ _____ _____    ______ ____
ROOT
ATOM      1  N   UNL     1      -8.066   5.391  11.025  0.00  0.00    -0.354 N 
ATOM      2  N   UNL     1      -7.335   3.215  11.338  0.00  0.00    -0.372 N 
ATOM      3  N   UNL     1      -8.927   4.065  12.755  0.00  0.00    -0.372 N 
ATOM      4  C   UNL     1      -8.116   4.238  11.706  0.00  0.00    +0.166 C 
ATOM      5  H   UNL     1      -7.408   5.469  10.258  0.00  0.00    +0.163 HD
ATOM      6  H   UNL     1      -7.354   2.332  11.831  0.00  0.00    +0.159 HD
ATOM      7  H   UNL     1      -6.712   3.281  10.543  0.00  0.00    +0.159 HD
ATOM      8  H   UNL     1      -9.538   4.800  13.087  0.00  0.00    +0.159 HD
ATOM      9  H   UNL     1      -8.952   3.193  13.268  0.00  0.00    +0.159 HD
ENDROOT
BRANCH   1  10
ATOM     10  C   UNL     1      -8.914   6.547  11.311  0.00  0.00    +0.151 C 
BRANCH  10  11
ATOM     11  C   UNL     1      -8.861   7.495  10.145  0.00  0.00    -0.028 A 
ATOM     12  C   UNL     1      -8.484   7.039   8.873  0.00  0.00    +0.005 A 
ATOM     13  C   UNL     1      -9.194   8.849  10.304  0.00  0.00    +0.005 A 
ATOM     14  C   UNL     1      -8.465   7.913   7.783  0.00  0.00    +0.000 A 
ATOM     15  C   UNL     1      -9.172   9.718   9.213  0.00  0.00    +0.000 A 
ATOM     16  C   UNL     1      -8.810   9.249   7.953  0.00  0.00    +0.000 A 
ENDBRANCH  10  11
ENDBRANCH   1  10
TORSDOF 2
ENDMDL
MODEL 2
REMARK VINA RESULT:    -5.070      3.540      5.124
REMARK INTER + INTRA:          -5.786
REMARK INTER:                  -5.617
REMARK INTRA:                  -0.169
REMARK UNBOUND:                -0.123
REMARK  Name = 1550473
REMARK  2 active torsions:
REMARK  status: ('A' for Active; 'I' for Inactive)
REMARK    1  A    between atoms: N_1  and  C_4
REMARK    2  A    between atoms: C_4  and  C_5
REMARK                            x       y       z     vdW  Elec       q    Type
REMARK                         _______ _______ _______ _____ _____    ______ ____
ROOT
ATOM      1  N   UNL     1      -7.972   3.853  11.323  0.00  0.00    -0.354 N 
ATOM      2  N   UNL     1      -7.426   2.629   9.434  0.00  0.00    -0.372 N 
ATOM      3  N   UNL     1      -8.427   4.678   9.178  0.00  0.00    -0.372 N 
ATOM      4  C   UNL     1      -7.947   3.730   9.990  0.00  0.00    +0.166 C 
ATOM      5  H   UNL     1      -7.619   3.086  11.884  0.00  0.00    +0.163 HD
ATOM      6  H   UNL     1      -7.390   2.510   8.431  0.00  0.00    +0.159 HD
ATOM      7  H   UNL     1      -7.033   1.884   9.996  0.00  0.00    +0.159 HD
ATOM      8  H   UNL     1      -8.839   5.530   9.534  0.00  0.00    +0.159 HD
ATOM      9  H   UNL     1      -8.411   4.572   8.171  0.00  0.00    +0.159 HD
ENDROOT
BRANCH   1  10
ATOM     10  C   UNL     1      -8.468   5.035  12.026  0.00  0.00    +0.151 C 
BRANCH  10  11
ATOM     11  C   UNL     1      -9.791   4.709  12.662  0.00  0.00    -0.028 A 
ATOM     12  C   UNL     1     -10.956   5.383  12.268  0.00  0.00    +0.005 A 
ATOM     13  C   UNL     1      -9.887   3.723  13.656  0.00  0.00    +0.005 A 
ATOM     14  C   UNL     1     -12.190   5.060  12.837  0.00  0.00    +0.000 A 
ATOM     15  C   UNL     1     -11.121   3.404  14.222  0.00  0.00    +0.000 A 
ATOM     16  C   UNL     1     -12.273   4.071  13.811  0.00  0.00    +0.000 A 
ENDBRANCH  10  11
ENDBRANCH   1  10
TORSDOF 2
ENDMDL
MODEL 3
REMARK VINA RESULT:    -4.956      2.778      3.553
REMARK INTER + INTRA:          -5.659
REMARK INTER:                  -5.475
REMARK INTRA:                  -0.184
REMARK UNBOUND:                -0.123
REMARK  Name = 1550473
REMARK  2 active torsions:
REMARK  status: ('A' for Active; 'I' for Inactive)
REMARK    1  A    between atoms: N_1  and  C_4
REMARK    2  A    between atoms: C_4  and  C_5
REMARK                            x       y       z     vdW  Elec       q    Type
REMARK                         _______ _______ _______ _____ _____    ______ ____
ROOT
ATOM      1  N   UNL     1      -8.503   3.992  12.403  0.00  0.00    -0.354 N 
ATOM      2  N   UNL     1      -9.832   3.001  14.021  0.00  0.00    -0.372 N 
ATOM      3  N   UNL     1     -10.402   5.082  13.239  0.00  0.00    -0.372 N 
ATOM      4  C   UNL     1      -9.572   4.034  13.210  0.00  0.00    +0.166 C 
ATOM      5  H   UNL     1      -7.896   3.182  12.451  0.00  0.00    +0.163 HD
ATOM      6  H   UNL     1     -10.633   3.003  14.638  0.00  0.00    +0.159 HD
ATOM      7  H   UNL     1      -9.249   2.173  14.033  0.00  0.00    +0.159 HD
ATOM      8  H   UNL     1     -10.258   5.896  12.656  0.00  0.00    +0.159 HD
ATOM      9  H   UNL     1     -11.202   5.107  13.858  0.00  0.00    +0.159 HD
ENDROOT
BRANCH   1  10
ATOM     10  C   UNL     1      -8.161   5.041  11.444  0.00  0.00    +0.151 C 
BRANCH  10  11
ATOM     11  C   UNL     1      -8.671   4.649  10.085  0.00  0.00    -0.028 A 
ATOM     12  C   UNL     1      -8.077   3.592   9.379  0.00  0.00    +0.005 A 
ATOM     13  C   UNL     1      -9.751   5.326   9.499  0.00  0.00    +0.005 A 
ATOM     14  C   UNL     1      -8.569   3.208   8.130  0.00  0.00    +0.000 A 
ATOM     15  C   UNL     1     -10.239   4.941   8.251  0.00  0.00    +0.000 A 
ATOM     16  C   UNL     1      -9.649   3.880   7.568  0.00  0.00    +0.000 A 
ENDBRANCH  10  11
ENDBRANCH   1  10
TORSDOF 2
ENDMDL
MODEL 4
REMARK VINA RESULT:    -4.847      1.104      2.177
REMARK INTER + INTRA:          -5.538
REMARK INTER:                  -5.419
REMARK INTRA:                  -0.119
REMARK UNBOUND:                -0.123
REMARK  Name = 1550473
REMARK  2 active torsions:
REMARK  status: ('A' for Active; 'I' for Inactive)
REMARK    1  A    between atoms: N_1  and  C_4
REMARK    2  A    between atoms: C_4  and  C_5
REMARK                            x       y       z     vdW  Elec       q    Type
REMARK                         _______ _______ _______ _____ _____    ______ ____
ROOT
ATOM      1  N   UNL     1      -8.409   4.816  10.102  0.00  0.00    -0.354 N 
ATOM      2  N   UNL     1      -7.406   3.451  11.681  0.00  0.00    -0.372 N 
ATOM      3  N   UNL     1      -7.492   2.746   9.499  0.00  0.00    -0.372 N 
ATOM      4  C   UNL     1      -7.775   3.678  10.415  0.00  0.00    +0.166 C 
ATOM      5  H   UNL     1      -8.622   5.469  10.847  0.00  0.00    +0.163 HD
ATOM      6  H   UNL     1      -6.923   2.603  11.946  0.00  0.00    +0.159 HD
ATOM      7  H   UNL     1      -7.578   4.126  12.416  0.00  0.00    +0.159 HD
ATOM      8  H   UNL     1      -7.749   2.854   8.527  0.00  0.00    +0.159 HD
ATOM      9  H   UNL     1      -7.020   1.886   9.747  0.00  0.00    +0.159 HD
ENDROOT
BRANCH   1  10
ATOM     10  C   UNL     1      -8.807   5.184   8.744  0.00  0.00    +0.151 C 
BRANCH  10  11
ATOM     11  C   UNL     1      -8.826   6.683   8.627  0.00  0.00    -0.028 A 
ATOM     12  C   UNL     1      -9.146   7.480   9.736  0.00  0.00    +0.005 A 
ATOM     13  C   UNL     1      -8.520   7.313   7.411  0.00  0.00    +0.005 A 
ATOM     14  C   UNL     1      -9.134   8.873   9.636  0.00  0.00    +0.000 A 
ATOM     15  C   UNL     1      -8.511   8.705   7.315  0.00  0.00    +0.000 A 
ATOM     16  C   UNL     1      -8.815   9.484   8.428  0.00  0.00    +0.000 A 
ENDBRANCH  10  11
ENDBRANCH   1  10
TORSDOF 2
ENDMDL
MODEL 5
REMARK VINA RESULT:    -4.832      2.253      3.159
REMARK INTER + INTRA:          -5.521
REMARK INTER:                  -5.362
REMARK INTRA:                  -0.159
REMARK UNBOUND:                -0.123
REMARK  Name = 1550473
REMARK  2 active torsions:
REMARK  status: ('A' for Active; 'I' for Inactive)
REMARK    1  A    between atoms: N_1  and  C_4
REMARK    2  A    between atoms: C_4  and  C_5
REMARK                            x       y       z     vdW  Elec       q    Type
REMARK                         _______ _______ _______ _____ _____    ______ ____
ROOT
ATOM      1  N   UNL     1      -9.374   5.409  11.937  0.00  0.00    -0.354 N 
ATOM      2  N   UNL     1      -9.315   3.662  13.457  0.00  0.00    -0.372 N 
ATOM      3  N   UNL     1      -7.725   3.749  11.805  0.00  0.00    -0.372 N 
ATOM      4  C   UNL     1      -8.803   4.284  12.388  0.00  0.00    +0.166 C 
ATOM      5  H   UNL     1     -10.207   5.747  12.405  0.00  0.00    +0.163 HD
ATOM      6  H   UNL     1      -8.904   2.814  13.822  0.00  0.00    +0.159 HD
ATOM      7  H   UNL     1     -10.121   4.028  13.951  0.00  0.00    +0.159 HD
ATOM      8  H   UNL     1      -7.294   4.166  10.991  0.00  0.00    +0.159 HD
ATOM      9  H   UNL     1      -7.306   2.894  12.149  0.00  0.00    +0.159 HD
ENDROOT
BRANCH   1  10
ATOM     10  C   UNL     1      -8.863   6.192  10.813  0.00  0.00    +0.151 C 
BRANCH  10  11
ATOM     11  C   UNL     1      -9.530   5.728   9.548  0.00  0.00    -0.028 A 
ATOM     12  C   UNL     1     -10.929   5.693   9.452  0.00  0.00    +0.005 A 
ATOM     13  C   UNL     1      -8.769   5.328   8.439  0.00  0.00    +0.005 A 
ATOM     14  C   UNL     1     -11.549   5.291   8.267  0.00  0.00    +0.000 A 
ATOM     15  C   UNL     1      -9.392   4.927   7.257  0.00  0.00    +0.000 A 
ATOM     16  C   UNL     1     -10.782   4.911   7.171  0.00  0.00    +0.000 A 
ENDBRANCH  10  11
ENDBRANCH   1  10
TORSDOF 2
ENDMDL
MODEL 6
REMARK VINA RESULT:    -4.709     13.908     15.020
REMARK INTER + INTRA:          -5.383
REMARK INTER:                  -5.223
REMARK INTRA:                  -0.160
REMARK UNBOUND:                -0.123
REMARK  Name = 1550473
REMARK  2 active torsions:
REMARK  status: ('A' for Active; 'I' for Inactive)
REMARK    1  A    between atoms: N_1  and  C_4
REMARK    2  A    between atoms: C_4  and  C_5
REMARK                            x       y       z     vdW  Elec       q    Type
REMARK                         _______ _______ _______ _____ _____    ______ ____
ROOT
ATOM      1  N   UNL     1     -13.111  -0.516  -3.094  0.00  0.00    -0.354 N 
ATOM      2  N   UNL     1     -11.990  -1.785  -4.674  0.00  0.00    -0.372 N 
ATOM      3  N   UNL     1     -13.176   0.054  -5.366  0.00  0.00    -0.372 N 
ATOM      4  C   UNL     1     -12.767  -0.739  -4.369  0.00  0.00    +0.166 C 
ATOM      5  H   UNL     1     -12.794  -1.171  -2.388  0.00  0.00    +0.163 HD
ATOM      6  H   UNL     1     -11.712  -1.977  -5.627  0.00  0.00    +0.159 HD
ATOM      7  H   UNL     1     -11.637  -2.412  -3.962  0.00  0.00    +0.159 HD
ATOM      8  H   UNL     1     -13.769   0.856  -5.203  0.00  0.00    +0.159 HD
ATOM      9  H   UNL     1     -12.917  -0.128  -6.328  0.00  0.00    +0.159 HD
ENDROOT
BRANCH   1  10
ATOM     10  C   UNL     1     -13.909   0.625  -2.649  0.00  0.00    +0.151 C 
BRANCH  10  11
ATOM     11  C   UNL     1     -12.987   1.755  -2.281  0.00  0.00    -0.028 A 
ATOM     12  C   UNL     1     -13.265   3.065  -2.699  0.00  0.00    +0.005 A 
ATOM     13  C   UNL     1     -11.838   1.524  -1.511  0.00  0.00    +0.005 A 
ATOM     14  C   UNL     1     -12.426   4.120  -2.333  0.00  0.00    +0.000 A 
ATOM     15  C   UNL     1     -11.002   2.580  -1.147  0.00  0.00    +0.000 A 
ATOM     16  C   UNL     1     -11.297   3.878  -1.557  0.00  0.00    +0.000 A 
ENDBRANCH  10  11
ENDBRANCH   1  10
TORSDOF 2
ENDMDL
MODEL 7
REMARK VINA RESULT:    -4.631     12.850     13.829
REMARK INTER + INTRA:          -5.296
REMARK INTER:                  -5.156
REMARK INTRA:                  -0.140
REMARK UNBOUND:                -0.123
REMARK  Name = 1550473
REMARK  2 active torsions:
REMARK  status: ('A' for Active; 'I' for Inactive)
REMARK    1  A    between atoms: N_1  and  C_4
REMARK    2  A    between atoms: C_4  and  C_5
REMARK                            x       y       z     vdW  Elec       q    Type
REMARK                         _______ _______ _______ _____ _____    ______ ____
ROOT
ATOM      1  N   UNL     1     -12.018   1.546  -3.107  0.00  0.00    -0.354 N 
ATOM      2  N   UNL     1     -10.446  -0.151  -3.000  0.00  0.00    -0.372 N 
ATOM      3  N   UNL     1     -12.375  -0.348  -1.773  0.00  0.00    -0.372 N 
ATOM      4  C   UNL     1     -11.625   0.359  -2.625  0.00  0.00    +0.166 C 
ATOM      5  H   UNL     1     -11.390   2.046  -3.726  0.00  0.00    +0.163 HD
ATOM      6  H   UNL     1     -10.125  -1.046  -2.656  0.00  0.00    +0.159 HD
ATOM      7  H   UNL     1      -9.841   0.329  -3.655  0.00  0.00    +0.159 HD
ATOM      8  H   UNL     1     -13.273  -0.015  -1.447  0.00  0.00    +0.159 HD
ATOM      9  H   UNL     1     -12.065  -1.240  -1.409  0.00  0.00    +0.159 HD
ENDROOT
BRANCH   1  10
ATOM     10  C   UNL     1     -13.307   2.165  -2.804  0.00  0.00    +0.151 C 
BRANCH  10  11
ATOM     11  C   UNL     1     -13.087   3.608  -2.442  0.00  0.00    -0.028 A 
ATOM     12  C   UNL     1     -14.100   4.556  -2.645  0.00  0.00    +0.005 A 
ATOM     13  C   UNL     1     -11.868   4.032  -1.890  0.00  0.00    +0.005 A 
ATOM     14  C   UNL     1     -13.906   5.891  -2.281  0.00  0.00    +0.000 A 
ATOM     15  C   UNL     1     -11.678   5.366  -1.529  0.00  0.00    +0.000 A 
ATOM     16  C   UNL     1     -12.698   6.294  -1.722  0.00  0.00    +0.000 A 
ENDBRANCH  10  11
ENDBRANCH   1  10
TORSDOF 2
ENDMDL
MODEL 8
REMARK VINA RESULT:    -4.620     15.287     16.192
REMARK INTER + INTRA:          -5.283
REMARK INTER:                  -5.184
REMARK INTRA:                  -0.099
REMARK UNBOUND:                -0.123
REMARK  Name = 1550473
REMARK  2 active torsions:
REMARK  status: ('A' for Active; 'I' for Inactive)
REMARK    1  A    between atoms: N_1  and  C_4
REMARK    2  A    between atoms: C_4  and  C_5
REMARK                            x       y       z     vdW  Elec       q    Type
REMARK                         _______ _______ _______ _____ _____    ______ ____
ROOT
ATOM      1  N   UNL     1      -1.712   3.835  -3.043  0.00  0.00    -0.354 N 
ATOM      2  N   UNL     1      -1.843   1.614  -2.400  0.00  0.00    -0.372 N 
ATOM      3  N   UNL     1      -3.271   2.385  -4.022  0.00  0.00    -0.372 N 
ATOM      4  C   UNL     1      -2.277   2.626  -3.161  0.00  0.00    +0.166 C 
ATOM      5  H   UNL     1      -0.982   3.960  -2.351  0.00  0.00    +0.163 HD
ATOM      6  H   UNL     1      -2.248   0.689  -2.469  0.00  0.00    +0.159 HD
ATOM      7  H   UNL     1      -1.083   1.730  -1.741  0.00  0.00    +0.159 HD
ATOM      8  H   UNL     1      -3.648   3.107  -4.620  0.00  0.00    +0.159 HD
ATOM      9  H   UNL     1      -3.697   1.469  -4.097  0.00  0.00    +0.159 HD
ENDROOT
BRANCH   1  10
ATOM     10  C   UNL     1      -2.074   4.990  -3.863  0.00  0.00    +0.151 C 
BRANCH  10  11
ATOM     11  C   UNL     1      -0.886   5.906  -3.972  0.00  0.00    -0.028 A 
ATOM     12  C   UNL     1      -0.426   6.613  -2.852  0.00  0.00    +0.005 A 
ATOM     13  C   UNL     1      -0.213   6.067  -5.193  0.00  0.00    +0.005 A 
ATOM     14  C   UNL     1       0.695   7.441  -2.946  0.00  0.00    +0.000 A 
ATOM     15  C   UNL     1       0.906   6.895  -5.283  0.00  0.00    +0.000 A 
ATOM     16  C   UNL     1       1.361   7.580  -4.159  0.00  0.00    +0.000 A 
ENDBRANCH  10  11
ENDBRANCH   1  10
TORSDOF 2
ENDMDL
MODEL 9
REMARK VINA RESULT:    -4.599      1.089      2.193
REMARK INTER + INTRA:          -5.260
REMARK INTER:                  -5.129
REMARK INTRA:                  -0.131
REMARK UNBOUND:                -0.123
REMARK  Name = 1550473
REMARK  2 active torsions:
REMARK  status: ('A' for Active; 'I' for Inactive)
REMARK    1  A    between atoms: N_1  and  C_4
REMARK    2  A    between atoms: C_4  and  C_5
REMARK                            x       y       z     vdW  Elec       q    Type
REMARK                         _______ _______ _______ _____ _____    ______ ____
ROOT
ATOM      1  N   UNL     1      -9.271   5.506  11.715  0.00  0.00    -0.354 N 
ATOM      2  N   UNL     1      -9.254   4.026  13.497  0.00  0.00    -0.372 N 
ATOM      3  N   UNL     1      -7.747   3.727  11.793  0.00  0.00    -0.372 N 
ATOM      4  C   UNL     1      -8.755   4.428  12.322  0.00  0.00    +0.166 C 
ATOM      5  H   UNL     1     -10.055   5.976  12.153  0.00  0.00    +0.163 HD
ATOM      6  H   UNL     1      -8.883   3.218  13.980  0.00  0.00    +0.159 HD
ATOM      7  H   UNL     1     -10.007   4.525  13.955  0.00  0.00    +0.159 HD
ATOM      8  H   UNL     1      -7.330   3.975  10.906  0.00  0.00    +0.159 HD
ATOM      9  H   UNL     1      -7.370   2.909  12.255  0.00  0.00    +0.159 HD
ENDROOT
BRANCH   1  10
ATOM     10  C   UNL     1      -8.764   6.058  10.460  0.00  0.00    +0.151 C 
BRANCH  10  11
ATOM     11  C   UNL     1      -9.008   7.542  10.443  0.00  0.00    -0.028 A 
ATOM     12  C   UNL     1      -9.378   8.216  11.616  0.00  0.00    +0.005 A 
ATOM     13  C   UNL     1      -8.864   8.280   9.258  0.00  0.00    +0.005 A 
ATOM     14  C   UNL     1      -9.574   9.600  11.607  0.00  0.00    +0.000 A 
ATOM     15  C   UNL     1      -9.062   9.661   9.253  0.00  0.00    +0.000 A 
ATOM     16  C   UNL     1      -9.415  10.321  10.428  0.00  0.00    +0.000 A 
ENDBRANCH  10  11
ENDBRANCH   1  10
TORSDOF 2
ENDMDL
