MODEL 1
REMARK VINA RESULT:    -5.096      0.000      0.000
REMARK INTER + INTRA:          -5.837
REMARK INTER:                  -5.692
REMARK INTRA:                  -0.145
REMARK UNBOUND:                -0.145
REMARK  Name = 1550473
REMARK  2 active torsions:
REMARK  status: ('A' for Active; 'I' for Inactive)
REMARK    1  A    between atoms: N_1  and  C_4
REMARK    2  A    between atoms: C_4  and  C_5
REMARK                            x       y       z     vdW  Elec       q    Type
REMARK                         _______ _______ _______ _____ _____    ______ ____
ROOT
ATOM      1  N   UNL     1      -0.264   3.890   8.020  0.00  0.00    -0.354 N 
ATOM      2  N   UNL     1       1.405   3.914   6.414  0.00  0.00    -0.372 N 
ATOM      3  N   UNL     1       1.374   5.567   8.005  0.00  0.00    -0.372 N 
ATOM      4  C   UNL     1       0.828   4.460   7.492  0.00  0.00    +0.166 C 
ATOM      5  H   UNL     1      -0.646   3.069   7.566  0.00  0.00    +0.163 HD
ATOM      6  H   UNL     1       2.231   4.319   5.995  0.00  0.00    +0.159 HD
ATOM      7  H   UNL     1       1.047   3.067   5.989  0.00  0.00    +0.159 HD
ATOM      8  H   UNL     1       0.983   6.031   8.814  0.00  0.00    +0.159 HD
ATOM      9  H   UNL     1       2.194   5.994   7.593  0.00  0.00    +0.159 HD
ENDROOT
BRANCH   1  10
ATOM     10  C   UNL     1      -0.936   4.374   9.225  0.00  0.00    +0.151 C 
BRANCH  10  11
ATOM     11  C   UNL     1      -2.307   4.870   8.856  0.00  0.00    -0.028 A 
ATOM     12  C   UNL     1      -2.852   4.586   7.595  0.00  0.00    +0.005 A 
ATOM     13  C   UNL     1      -3.069   5.620   9.765  0.00  0.00    +0.005 A 
ATOM     14  C   UNL     1      -4.137   5.021   7.263  0.00  0.00    +0.000 A 
ATOM     15  C   UNL     1      -4.352   6.053   9.430  0.00  0.00    +0.000 A 
ATOM     16  C   UNL     1      -4.886   5.751   8.180  0.00  0.00    +0.000 A 
ENDBRANCH  10  11
ENDBRANCH   1  10
TORSDOF 2
ENDMDL
MODEL 2
REMARK VINA RESULT:    -4.946     28.468     29.674
REMARK INTER + INTRA:          -5.669
REMARK INTER:                  -5.557
REMARK INTRA:                  -0.113
REMARK UNBOUND:                -0.145
REMARK  Name = 1550473
REMARK  2 active torsions:
REMARK  status: ('A' for Active; 'I' for Inactive)
REMARK    1  A    between atoms: N_1  and  C_4
REMARK    2  A    between atoms: C_4  and  C_5
REMARK                            x       y       z     vdW  Elec       q    Type
REMARK                         _______ _______ _______ _____ _____    ______ ____
ROOT
ATOM      1  N   UNL     1     -21.840  16.192  26.535  0.00  0.00    -0.354 N 
ATOM      2  N   UNL     1     -20.830  18.195  27.113  0.00  0.00    -0.372 N 
ATOM      3  N   UNL     1     -19.545  16.528  26.198  0.00  0.00    -0.372 N 
ATOM      4  C   UNL     1     -20.742  16.957  26.611  0.00  0.00    +0.166 C 
ATOM      5  H   UNL     1     -22.712  16.565  26.892  0.00  0.00    +0.163 HD
ATOM      6  H   UNL     1     -20.020  18.796  27.180  0.00  0.00    +0.159 HD
ATOM      7  H   UNL     1     -21.712  18.581  27.427  0.00  0.00    +0.159 HD
ATOM      8  H   UNL     1     -19.411  15.602  25.815  0.00  0.00    +0.159 HD
ATOM      9  H   UNL     1     -18.720  17.111  26.267  0.00  0.00    +0.159 HD
ENDROOT
BRANCH   1  10
ATOM     10  C   UNL     1     -21.863  14.851  25.955  0.00  0.00    +0.151 C 
BRANCH  10  11
ATOM     11  C   UNL     1     -23.291  14.404  25.806  0.00  0.00    -0.028 A 
ATOM     12  C   UNL     1     -24.250  14.752  26.768  0.00  0.00    +0.005 A 
ATOM     13  C   UNL     1     -23.693  13.638  24.701  0.00  0.00    +0.005 A 
ATOM     14  C   UNL     1     -25.583  14.363  26.615  0.00  0.00    +0.000 A 
ATOM     15  C   UNL     1     -25.025  13.252  24.551  0.00  0.00    +0.000 A 
ATOM     16  C   UNL     1     -25.970  13.616  25.507  0.00  0.00    +0.000 A 
ENDBRANCH  10  11
ENDBRANCH   1  10
TORSDOF 2
ENDMDL
MODEL 3
REMARK VINA RESULT:    -4.863      1.621      2.837
REMARK INTER + INTRA:          -5.577
REMARK INTER:                  -5.456
REMARK INTRA:                  -0.122
REMARK UNBOUND:                -0.145
REMARK  Name = 1550473
REMARK  2 active torsions:
REMARK  status: ('A' for Active; 'I' for Inactive)
REMARK    1  A    between atoms: N_1  and  C_4
REMARK    2  A    between atoms: C_4  and  C_5
REMARK                            x       y       z     vdW  Elec       q    Type
REMARK                         _______ _______ _______ _____ _____    ______ ____
ROOT
ATOM      1  N   UNL     1      -1.608   5.067   7.852  0.00  0.00    -0.354 N 
ATOM      2  N   UNL     1       0.686   5.380   7.873  0.00  0.00    -0.372 N 
ATOM      3  N   UNL     1      -0.164   3.362   8.558  0.00  0.00    -0.372 N 
ATOM      4  C   UNL     1      -0.377   4.598   8.095  0.00  0.00    +0.166 C 
ATOM      5  H   UNL     1      -1.705   6.024   7.531  0.00  0.00    +0.163 HD
ATOM      6  H   UNL     1       1.628   5.052   8.044  0.00  0.00    +0.159 HD
ATOM      7  H   UNL     1       0.590   6.320   7.508  0.00  0.00    +0.159 HD
ATOM      8  H   UNL     1      -0.925   2.724   8.753  0.00  0.00    +0.159 HD
ATOM      9  H   UNL     1       0.770   3.020   8.747  0.00  0.00    +0.159 HD
ENDROOT
BRANCH   1  10
ATOM     10  C   UNL     1      -2.830   4.279   8.010  0.00  0.00    +0.151 C 
BRANCH  10  11
ATOM     11  C   UNL     1      -3.850   4.748   7.010  0.00  0.00    -0.028 A 
ATOM     12  C   UNL     1      -5.156   5.058   7.417  0.00  0.00    +0.005 A 
ATOM     13  C   UNL     1      -3.515   4.890   5.655  0.00  0.00    +0.005 A 
ATOM     14  C   UNL     1      -6.096   5.522   6.494  0.00  0.00    +0.000 A 
ATOM     15  C   UNL     1      -4.457   5.354   4.736  0.00  0.00    +0.000 A 
ATOM     16  C   UNL     1      -5.746   5.672   5.156  0.00  0.00    +0.000 A 
ENDBRANCH  10  11
ENDBRANCH   1  10
TORSDOF 2
ENDMDL
MODEL 4
REMARK VINA RESULT:    -4.807     16.609     17.431
REMARK INTER + INTRA:          -5.514
REMARK INTER:                  -5.368
REMARK INTRA:                  -0.145
REMARK UNBOUND:                -0.145
REMARK  Name = 1550473
REMARK  2 active torsions:
REMARK  status: ('A' for Active; 'I' for Inactive)
REMARK    1  A    between atoms: N_1  and  C_4
REMARK    2  A    between atoms: C_4  and  C_5
REMARK                            x       y       z     vdW  Elec       q    Type
REMARK                         _______ _______ _______ _____ _____    ______ ____
ROOT
ATOM      1  N   UNL     1      -2.674  -9.440  -1.133  0.00  0.00    -0.354 N 
ATOM      2  N   UNL     1      -0.689 -10.559  -1.549  0.00  0.00    -0.372 N 
ATOM      3  N   UNL     1      -1.049  -9.677   0.538  0.00  0.00    -0.372 N 
ATOM      4  C   UNL     1      -1.483  -9.884  -0.709  0.00  0.00    +0.166 C 
ATOM      5  H   UNL     1      -2.932  -9.604  -2.100  0.00  0.00    +0.163 HD
ATOM      6  H   UNL     1       0.214 -10.909  -1.256  0.00  0.00    +0.159 HD
ATOM      7  H   UNL     1      -0.969 -10.761  -2.501  0.00  0.00    +0.159 HD
ATOM      8  H   UNL     1      -1.597  -9.169   1.219  0.00  0.00    +0.159 HD
ATOM      9  H   UNL     1      -0.143 -10.009   0.847  0.00  0.00    +0.159 HD
ENDROOT
BRANCH   1  10
ATOM     10  C   UNL     1      -3.636  -8.741  -0.283  0.00  0.00    +0.151 C 
BRANCH  10  11
ATOM     11  C   UNL     1      -4.951  -9.469  -0.329  0.00  0.00    -0.028 A 
ATOM     12  C   UNL     1      -5.211 -10.408  -1.338  0.00  0.00    +0.005 A 
ATOM     13  C   UNL     1      -5.939  -9.229   0.638  0.00  0.00    +0.005 A 
ATOM     14  C   UNL     1      -6.420 -11.107  -1.363  0.00  0.00    +0.000 A 
ATOM     15  C   UNL     1      -7.146  -9.928   0.609  0.00  0.00    +0.000 A 
ATOM     16  C   UNL     1      -7.385 -10.868  -0.390  0.00  0.00    +0.000 A 
ENDBRANCH  10  11
ENDBRANCH   1  10
TORSDOF 2
ENDMDL
MODEL 5
REMARK VINA RESULT:    -4.682     26.104     27.501
REMARK INTER + INTRA:          -5.374
REMARK INTER:                  -5.242
REMARK INTRA:                  -0.133
REMARK UNBOUND:                -0.145
REMARK  Name = 1550473
REMARK  2 active torsions:
REMARK  status: ('A' for Active; 'I' for Inactive)
REMARK    1  A    between atoms: N_1  and  C_4
REMARK    2  A    between atoms: C_4  and  C_5
REMARK                            x       y       z     vdW  Elec       q    Type
REMARK                         _______ _______ _______ _____ _____    ______ ____
ROOT
ATOM      1  N   UNL     1     -27.673   0.266  18.829  0.00  0.00    -0.354 N 
ATOM      2  N   UNL     1     -28.544   2.408  18.688  0.00  0.00    -0.372 N 
ATOM      3  N   UNL     1     -26.278   2.116  18.475  0.00  0.00    -0.372 N 
ATOM      4  C   UNL     1     -27.489   1.583  18.665  0.00  0.00    +0.166 C 
ATOM      5  H   UNL     1     -28.613  -0.071  18.999  0.00  0.00    +0.163 HD
ATOM      6  H   UNL     1     -28.437   3.406  18.564  0.00  0.00    +0.159 HD
ATOM      7  H   UNL     1     -29.487   2.063  18.813  0.00  0.00    +0.159 HD
ATOM      8  H   UNL     1     -25.441   1.549  18.453  0.00  0.00    +0.159 HD
ATOM      9  H   UNL     1     -26.149   3.113  18.360  0.00  0.00    +0.159 HD
ENDROOT
BRANCH   1  10
ATOM     10  C   UNL     1     -26.598  -0.723  18.767  0.00  0.00    +0.151 C 
BRANCH  10  11
ATOM     11  C   UNL     1     -26.507  -1.262  17.366  0.00  0.00    -0.028 A 
ATOM     12  C   UNL     1     -25.275  -1.681  16.843  0.00  0.00    +0.005 A 
ATOM     13  C   UNL     1     -27.651  -1.361  16.558  0.00  0.00    +0.005 A 
ATOM     14  C   UNL     1     -25.195  -2.210  15.552  0.00  0.00    +0.000 A 
ATOM     15  C   UNL     1     -27.566  -1.889  15.270  0.00  0.00    +0.000 A 
ATOM     16  C   UNL     1     -26.339  -2.315  14.768  0.00  0.00    +0.000 A 
ENDBRANCH  10  11
ENDBRANCH   1  10
TORSDOF 2
ENDMDL
MODEL 6
REMARK VINA RESULT:    -4.668     29.323     30.870
REMARK INTER + INTRA:          -5.359
REMARK INTER:                  -5.240
REMARK INTRA:                  -0.119
REMARK UNBOUND:                -0.145
REMARK  Name = 1550473
REMARK  2 active torsions:
REMARK  status: ('A' for Active; 'I' for Inactive)
REMARK    1  A    between atoms: N_1  and  C_4
REMARK    2  A    between atoms: C_4  and  C_5
REMARK                            x       y       z     vdW  Elec       q    Type
REMARK                         _______ _______ _______ _____ _____    ______ ____
ROOT
ATOM      1  N   UNL     1     -27.096  13.989  24.976  0.00  0.00    -0.354 N 
ATOM      2  N   UNL     1     -29.230  14.878  24.826  0.00  0.00    -0.372 N 
ATOM      3  N   UNL     1     -28.451  13.567  23.111  0.00  0.00    -0.372 N 
ATOM      4  C   UNL     1     -28.245  14.138  24.303  0.00  0.00    +0.166 C 
ATOM      5  H   UNL     1     -26.991  14.473  25.860  0.00  0.00    +0.163 HD
ATOM      6  H   UNL     1     -30.109  15.005  24.343  0.00  0.00    +0.159 HD
ATOM      7  H   UNL     1     -29.139  15.322  25.731  0.00  0.00    +0.159 HD
ATOM      8  H   UNL     1     -27.746  13.001  22.659  0.00  0.00    +0.159 HD
ATOM      9  H   UNL     1     -29.320  13.692  22.607  0.00  0.00    +0.159 HD
ENDROOT
BRANCH   1  10
ATOM     10  C   UNL     1     -25.982  13.161  24.519  0.00  0.00    +0.151 C 
BRANCH  10  11
ATOM     11  C   UNL     1     -24.703  13.688  25.108  0.00  0.00    -0.028 A 
ATOM     12  C   UNL     1     -23.489  13.542  24.422  0.00  0.00    +0.005 A 
ATOM     13  C   UNL     1     -24.700  14.341  26.350  0.00  0.00    +0.005 A 
ATOM     14  C   UNL     1     -22.305  14.058  24.955  0.00  0.00    +0.000 A 
ATOM     15  C   UNL     1     -23.516  14.855  26.880  0.00  0.00    +0.000 A 
ATOM     16  C   UNL     1     -22.319  14.715  26.180  0.00  0.00    +0.000 A 
ENDBRANCH  10  11
ENDBRANCH   1  10
TORSDOF 2
ENDMDL
MODEL 7
REMARK VINA RESULT:    -4.589     24.912     26.160
REMARK INTER + INTRA:          -5.270
REMARK INTER:                  -5.095
REMARK INTRA:                  -0.176
REMARK UNBOUND:                -0.145
REMARK  Name = 1550473
REMARK  2 active torsions:
REMARK  status: ('A' for Active; 'I' for Inactive)
REMARK    1  A    between atoms: N_1  and  C_4
REMARK    2  A    between atoms: C_4  and  C_5
REMARK                            x       y       z     vdW  Elec       q    Type
REMARK                         _______ _______ _______ _____ _____    ______ ____
ROOT
ATOM      1  N   UNL     1     -12.554   1.013 -14.484  0.00  0.00    -0.354 N 
ATOM      2  N   UNL     1     -13.321   3.111 -15.097  0.00  0.00    -0.372 N 
ATOM      3  N   UNL     1     -13.944   2.253 -13.062  0.00  0.00    -0.372 N 
ATOM      4  C   UNL     1     -13.270   2.112 -14.208  0.00  0.00    +0.166 C 
ATOM      5  H   UNL     1     -12.090   0.955 -15.383  0.00  0.00    +0.163 HD
ATOM      6  H   UNL     1     -13.850   3.953 -14.915  0.00  0.00    +0.159 HD
ATOM      7  H   UNL     1     -12.819   3.069 -15.975  0.00  0.00    +0.159 HD
ATOM      8  H   UNL     1     -13.951   1.533 -12.352  0.00  0.00    +0.159 HD
ATOM      9  H   UNL     1     -14.489   3.084 -12.867  0.00  0.00    +0.159 HD
ENDROOT
BRANCH   1  10
ATOM     10  C   UNL     1     -12.390  -0.109 -13.562  0.00  0.00    +0.151 C 
BRANCH  10  11
ATOM     11  C   UNL     1     -13.360  -1.196 -13.932  0.00  0.00    -0.028 A 
ATOM     12  C   UNL     1     -13.095  -2.049 -15.013  0.00  0.00    +0.005 A 
ATOM     13  C   UNL     1     -14.545  -1.381 -13.202  0.00  0.00    +0.005 A 
ATOM     14  C   UNL     1     -13.983  -3.078 -15.338  0.00  0.00    +0.000 A 
ATOM     15  C   UNL     1     -15.428  -2.409 -13.531  0.00  0.00    +0.000 A 
ATOM     16  C   UNL     1     -15.146  -3.259 -14.598  0.00  0.00    +0.000 A 
ENDBRANCH  10  11
ENDBRANCH   1  10
TORSDOF 2
ENDMDL
MODEL 8
REMARK VINA RESULT:    -4.465      1.581      2.466
REMARK INTER + INTRA:          -5.133
REMARK INTER:                  -4.956
REMARK INTRA:                  -0.177
REMARK UNBOUND:                -0.145
REMARK  Name = 1550473
REMARK  2 active torsions:
REMARK  status: ('A' for Active; 'I' for Inactive)
REMARK    1  A    between atoms: N_1  and  C_4
REMARK    2  A    between atoms: C_4  and  C_5
REMARK                            x       y       z     vdW  Elec       q    Type
REMARK                         _______ _______ _______ _____ _____    ______ ____
ROOT
ATOM      1  N   UNL     1      -1.399   5.065   7.797  0.00  0.00    -0.354 N 
ATOM      2  N   UNL     1       0.891   5.407   7.799  0.00  0.00    -0.372 N 
ATOM      3  N   UNL     1       0.077   3.343   8.383  0.00  0.00    -0.372 N 
ATOM      4  C   UNL     1      -0.159   4.600   7.994  0.00  0.00    +0.166 C 
ATOM      5  H   UNL     1      -1.512   6.037   7.531  0.00  0.00    +0.163 HD
ATOM      6  H   UNL     1       1.839   5.083   7.936  0.00  0.00    +0.159 HD
ATOM      7  H   UNL     1       0.778   6.364   7.489  0.00  0.00    +0.159 HD
ATOM      8  H   UNL     1      -0.672   2.685   8.554  0.00  0.00    +0.159 HD
ATOM      9  H   UNL     1       1.019   3.003   8.538  0.00  0.00    +0.159 HD
ENDROOT
BRANCH   1  10
ATOM     10  C   UNL     1      -2.608   4.254   7.930  0.00  0.00    +0.151 C 
BRANCH  10  11
ATOM     11  C   UNL     1      -3.199   4.472   9.295  0.00  0.00    -0.028 A 
ATOM     12  C   UNL     1      -3.196   3.441  10.246  0.00  0.00    +0.005 A 
ATOM     13  C   UNL     1      -3.758   5.711   9.647  0.00  0.00    +0.005 A 
ATOM     14  C   UNL     1      -3.718   3.653  11.524  0.00  0.00    +0.000 A 
ATOM     15  C   UNL     1      -4.279   5.918  10.924  0.00  0.00    +0.000 A 
ATOM     16  C   UNL     1      -4.256   4.890  11.863  0.00  0.00    +0.000 A 
ENDBRANCH  10  11
ENDBRANCH   1  10
TORSDOF 2
ENDMDL
MODEL 9
REMARK VINA RESULT:    -4.423     19.895     22.161
REMARK INTER + INTRA:          -5.086
REMARK INTER:                  -4.973
REMARK INTRA:                  -0.113
REMARK UNBOUND:                -0.145
REMARK  Name = 1550473
REMARK  2 active torsions:
REMARK  status: ('A' for Active; 'I' for Inactive)
REMARK    1  A    between atoms: N_1  and  C_4
REMARK    2  A    between atoms: C_4  and  C_5
REMARK                            x       y       z     vdW  Elec       q    Type
REMARK                         _______ _______ _______ _____ _____    ______ ____
ROOT
ATOM      1  N   UNL     1      13.542  -8.456  12.320  0.00  0.00    -0.354 N 
ATOM      2  N   UNL     1      11.230  -8.585  12.273  0.00  0.00    -0.372 N 
ATOM      3  N   UNL     1      12.261  -7.853  14.188  0.00  0.00    -0.372 N 
ATOM      4  C   UNL     1      12.360  -8.297  12.930  0.00  0.00    +0.166 C 
ATOM      5  H   UNL     1      13.551  -8.825  11.376  0.00  0.00    +0.163 HD
ATOM      6  H   UNL     1      10.323  -8.471  12.706  0.00  0.00    +0.159 HD
ATOM      7  H   UNL     1      11.239  -8.909  11.314  0.00  0.00    +0.159 HD
ATOM      8  H   UNL     1      13.077  -7.624  14.740  0.00  0.00    +0.159 HD
ATOM      9  H   UNL     1      11.363  -7.744  14.642  0.00  0.00    +0.159 HD
ENDROOT
BRANCH   1  10
ATOM     10  C   UNL     1      14.828  -8.121  12.929  0.00  0.00    +0.151 C 
BRANCH  10  11
ATOM     11  C   UNL     1      15.899  -8.175  11.875  0.00  0.00    -0.028 A 
ATOM     12  C   UNL     1      15.845  -9.134  10.853  0.00  0.00    +0.005 A 
ATOM     13  C   UNL     1      16.968  -7.266  11.889  0.00  0.00    +0.005 A 
ATOM     14  C   UNL     1      16.824  -9.165   9.857  0.00  0.00    +0.000 A 
ATOM     15  C   UNL     1      17.944  -7.301  10.893  0.00  0.00    +0.000 A 
ATOM     16  C   UNL     1      17.870  -8.249   9.876  0.00  0.00    +0.000 A 
ENDBRANCH  10  11
ENDBRANCH   1  10
TORSDOF 2
ENDMDL
