MODEL 1
REMARK VINA RESULT:    -6.603      0.000      0.000
REMARK INTER + INTRA:          -7.519
REMARK INTER:                  -7.375
REMARK INTRA:                  -0.144
REMARK UNBOUND:                -0.144
REMARK  Name = 1550473
REMARK  2 active torsions:
REMARK  status: ('A' for Active; 'I' for Inactive)
REMARK    1  A    between atoms: N_1  and  C_4
REMARK    2  A    between atoms: C_4  and  C_5
REMARK                            x       y       z     vdW  Elec       q    Type
REMARK                         _______ _______ _______ _____ _____    ______ ____
ROOT
ATOM      1  N   UNL     1      -3.375  -2.203  -2.028  0.00  0.00    -0.354 N 
ATOM      2  N   UNL     1      -2.079  -2.226  -3.947  0.00  0.00    -0.372 N 
ATOM      3  N   UNL     1      -2.830  -0.213  -3.140  0.00  0.00    -0.372 N 
ATOM      4  C   UNL     1      -2.771  -1.544  -3.026  0.00  0.00    +0.166 C 
ATOM      5  H   UNL     1      -3.318  -3.214  -2.014  0.00  0.00    +0.163 HD
ATOM      6  H   UNL     1      -1.609  -1.756  -4.709  0.00  0.00    +0.159 HD
ATOM      7  H   UNL     1      -1.985  -3.233  -3.905  0.00  0.00    +0.159 HD
ATOM      8  H   UNL     1      -3.340   0.359  -2.481  0.00  0.00    +0.159 HD
ATOM      9  H   UNL     1      -2.376   0.274  -3.903  0.00  0.00    +0.159 HD
ENDROOT
BRANCH   1  10
ATOM     10  C   UNL     1      -4.108  -1.550  -0.944  0.00  0.00    +0.151 C 
BRANCH  10  11
ATOM     11  C   UNL     1      -5.517  -2.075  -0.918  0.00  0.00    -0.028 A 
ATOM     12  C   UNL     1      -6.091  -2.515   0.284  0.00  0.00    +0.005 A 
ATOM     13  C   UNL     1      -6.285  -2.129  -2.091  0.00  0.00    +0.005 A 
ATOM     14  C   UNL     1      -7.410  -2.974   0.314  0.00  0.00    +0.000 A 
ATOM     15  C   UNL     1      -7.602  -2.589  -2.057  0.00  0.00    +0.000 A 
ATOM     16  C   UNL     1      -8.164  -3.009  -0.854  0.00  0.00    +0.000 A 
ENDBRANCH  10  11
ENDBRANCH   1  10
TORSDOF 2
ENDMDL
MODEL 2
REMARK VINA RESULT:    -6.172     11.835     13.356
REMARK INTER + INTRA:          -7.038
REMARK INTER:                  -6.884
REMARK INTRA:                  -0.154
REMARK UNBOUND:                -0.144
REMARK  Name = 1550473
REMARK  2 active torsions:
REMARK  status: ('A' for Active; 'I' for Inactive)
REMARK    1  A    between atoms: N_1  and  C_4
REMARK    2  A    between atoms: C_4  and  C_5
REMARK                            x       y       z     vdW  Elec       q    Type
REMARK                         _______ _______ _______ _____ _____    ______ ____
ROOT
ATOM      1  N   UNL     1      -0.018   8.689  -2.298  0.00  0.00    -0.354 N 
ATOM      2  N   UNL     1      -0.286   6.416  -2.649  0.00  0.00    -0.372 N 
ATOM      3  N   UNL     1       0.557   7.708  -4.347  0.00  0.00    -0.372 N 
ATOM      4  C   UNL     1       0.087   7.620  -3.098  0.00  0.00    +0.166 C 
ATOM      5  H   UNL     1      -0.410   8.561  -1.372  0.00  0.00    +0.163 HD
ATOM      6  H   UNL     1      -0.216   5.590  -3.229  0.00  0.00    +0.159 HD
ATOM      7  H   UNL     1      -0.635   6.283  -1.708  0.00  0.00    +0.159 HD
ATOM      8  H   UNL     1       0.850   8.589  -4.748  0.00  0.00    +0.159 HD
ATOM      9  H   UNL     1       0.625   6.895  -4.947  0.00  0.00    +0.159 HD
ENDROOT
BRANCH   1  10
ATOM     10  C   UNL     1       0.411  10.035  -2.672  0.00  0.00    +0.151 C 
BRANCH  10  11
ATOM     11  C   UNL     1      -0.769  10.965  -2.601  0.00  0.00    -0.028 A 
ATOM     12  C   UNL     1      -1.891  10.753  -3.415  0.00  0.00    +0.005 A 
ATOM     13  C   UNL     1      -0.774  12.055  -1.717  0.00  0.00    +0.005 A 
ATOM     14  C   UNL     1      -3.000  11.599  -3.328  0.00  0.00    +0.000 A 
ATOM     15  C   UNL     1      -1.882  12.897  -1.634  0.00  0.00    +0.000 A 
ATOM     16  C   UNL     1      -2.996  12.667  -2.437  0.00  0.00    +0.000 A 
ENDBRANCH  10  11
ENDBRANCH   1  10
TORSDOF 2
ENDMDL
MODEL 3
REMARK VINA RESULT:    -5.995     12.010     13.468
REMARK INTER + INTRA:          -6.840
REMARK INTER:                  -6.758
REMARK INTRA:                  -0.082
REMARK UNBOUND:                -0.144
REMARK  Name = 1550473
REMARK  2 active torsions:
REMARK  status: ('A' for Active; 'I' for Inactive)
REMARK    1  A    between atoms: N_1  and  C_4
REMARK    2  A    between atoms: C_4  and  C_5
REMARK                            x       y       z     vdW  Elec       q    Type
REMARK                         _______ _______ _______ _____ _____    ______ ____
ROOT
ATOM      1  N   UNL     1       0.731   9.344  -3.211  0.00  0.00    -0.354 N 
ATOM      2  N   UNL     1       0.739   7.381  -4.440  0.00  0.00    -0.372 N 
ATOM      3  N   UNL     1       0.217   7.290  -2.207  0.00  0.00    -0.372 N 
ATOM      4  C   UNL     1       0.562   8.017  -3.275  0.00  0.00    +0.166 C 
ATOM      5  H   UNL     1       1.022   9.834  -4.050  0.00  0.00    +0.163 HD
ATOM      6  H   UNL     1       0.615   6.380  -4.519  0.00  0.00    +0.159 HD
ATOM      7  H   UNL     1       0.985   7.879  -5.287  0.00  0.00    +0.159 HD
ATOM      8  H   UNL     1       0.074   7.709  -1.298  0.00  0.00    +0.159 HD
ATOM      9  H   UNL     1       0.100   6.286  -2.264  0.00  0.00    +0.159 HD
ENDROOT
BRANCH   1  10
ATOM     10  C   UNL     1       0.510  10.139  -2.005  0.00  0.00    +0.151 C 
BRANCH  10  11
ATOM     11  C   UNL     1      -0.703  11.007  -2.203  0.00  0.00    -0.028 A 
ATOM     12  C   UNL     1      -0.906  12.140  -1.402  0.00  0.00    +0.005 A 
ATOM     13  C   UNL     1      -1.649  10.704  -3.194  0.00  0.00    +0.005 A 
ATOM     14  C   UNL     1      -2.017  12.963  -1.606  0.00  0.00    +0.000 A 
ATOM     15  C   UNL     1      -2.757  11.527  -3.393  0.00  0.00    +0.000 A 
ATOM     16  C   UNL     1      -2.939  12.658  -2.601  0.00  0.00    +0.000 A 
ENDBRANCH  10  11
ENDBRANCH   1  10
TORSDOF 2
ENDMDL
MODEL 4
REMARK VINA RESULT:    -5.840      4.004      4.795
REMARK INTER + INTRA:          -6.667
REMARK INTER:                  -6.514
REMARK INTRA:                  -0.153
REMARK UNBOUND:                -0.144
REMARK  Name = 1550473
REMARK  2 active torsions:
REMARK  status: ('A' for Active; 'I' for Inactive)
REMARK    1  A    between atoms: N_1  and  C_4
REMARK    2  A    between atoms: C_4  and  C_5
REMARK                            x       y       z     vdW  Elec       q    Type
REMARK                         _______ _______ _______ _____ _____    ______ ____
ROOT
ATOM      1  N   UNL     1      -8.322   0.260  -3.365  0.00  0.00    -0.354 N 
ATOM      2  N   UNL     1      -9.877   0.752  -5.009  0.00  0.00    -0.372 N 
ATOM      3  N   UNL     1     -10.253   1.493  -2.869  0.00  0.00    -0.372 N 
ATOM      4  C   UNL     1      -9.475   0.833  -3.734  0.00  0.00    +0.166 C 
ATOM      5  H   UNL     1      -7.793  -0.251  -4.062  0.00  0.00    +0.163 HD
ATOM      6  H   UNL     1     -10.741   1.178  -5.318  0.00  0.00    +0.159 HD
ATOM      7  H   UNL     1      -9.324   0.280  -5.713  0.00  0.00    +0.159 HD
ATOM      8  H   UNL     1     -10.009   1.584  -1.892  0.00  0.00    +0.159 HD
ATOM      9  H   UNL     1     -11.127   1.915  -3.157  0.00  0.00    +0.159 HD
ENDROOT
BRANCH   1  10
ATOM     10  C   UNL     1      -7.768   0.336  -2.014  0.00  0.00    +0.151 C 
BRANCH  10  11
ATOM     11  C   UNL     1      -7.566  -1.058  -1.487  0.00  0.00    -0.028 A 
ATOM     12  C   UNL     1      -6.275  -1.543  -1.232  0.00  0.00    +0.005 A 
ATOM     13  C   UNL     1      -8.662  -1.898  -1.236  0.00  0.00    +0.005 A 
ATOM     14  C   UNL     1      -6.088  -2.827  -0.714  0.00  0.00    +0.000 A 
ATOM     15  C   UNL     1      -8.472  -3.179  -0.720  0.00  0.00    +0.000 A 
ATOM     16  C   UNL     1      -7.185  -3.643  -0.457  0.00  0.00    +0.000 A 
ENDBRANCH  10  11
ENDBRANCH   1  10
TORSDOF 2
ENDMDL
MODEL 5
REMARK VINA RESULT:    -5.758      4.446      5.456
REMARK INTER + INTRA:          -6.575
REMARK INTER:                  -6.442
REMARK INTRA:                  -0.133
REMARK UNBOUND:                -0.144
REMARK  Name = 1550473
REMARK  2 active torsions:
REMARK  status: ('A' for Active; 'I' for Inactive)
REMARK    1  A    between atoms: N_1  and  C_4
REMARK    2  A    between atoms: C_4  and  C_5
REMARK                            x       y       z     vdW  Elec       q    Type
REMARK                         _______ _______ _______ _____ _____    ______ ____
ROOT
ATOM      1  N   UNL     1      -9.179   0.549  -1.286  0.00  0.00    -0.354 N 
ATOM      2  N   UNL     1     -11.247   1.414  -0.703  0.00  0.00    -0.372 N 
ATOM      3  N   UNL     1     -10.898   0.741  -2.868  0.00  0.00    -0.372 N 
ATOM      4  C   UNL     1     -10.428   0.896  -1.626  0.00  0.00    +0.166 C 
ATOM      5  H   UNL     1      -8.874   0.719  -0.335  0.00  0.00    +0.163 HD
ATOM      6  H   UNL     1     -12.195   1.682  -0.928  0.00  0.00    +0.159 HD
ATOM      7  H   UNL     1     -10.954   1.541   0.259  0.00  0.00    +0.159 HD
ATOM      8  H   UNL     1     -10.328   0.361  -3.612  0.00  0.00    +0.159 HD
ATOM      9  H   UNL     1     -11.841   1.014  -3.116  0.00  0.00    +0.159 HD
ENDROOT
BRANCH   1  10
ATOM     10  C   UNL     1      -8.226  -0.074  -2.203  0.00  0.00    +0.151 C 
BRANCH  10  11
ATOM     11  C   UNL     1      -7.580  -1.246  -1.518  0.00  0.00    -0.028 A 
ATOM     12  C   UNL     1      -8.350  -2.342  -1.103  0.00  0.00    +0.005 A 
ATOM     13  C   UNL     1      -6.196  -1.269  -1.285  0.00  0.00    +0.005 A 
ATOM     14  C   UNL     1      -7.746  -3.444  -0.493  0.00  0.00    +0.000 A 
ATOM     15  C   UNL     1      -5.596  -2.371  -0.676  0.00  0.00    +0.000 A 
ATOM     16  C   UNL     1      -6.371  -3.459  -0.282  0.00  0.00    +0.000 A 
ENDBRANCH  10  11
ENDBRANCH   1  10
TORSDOF 2
ENDMDL
MODEL 6
REMARK VINA RESULT:    -5.664     13.283     13.995
REMARK INTER + INTRA:          -6.471
REMARK INTER:                  -6.346
REMARK INTRA:                  -0.125
REMARK UNBOUND:                -0.144
REMARK  Name = 1550473
REMARK  2 active torsions:
REMARK  status: ('A' for Active; 'I' for Inactive)
REMARK    1  A    between atoms: N_1  and  C_4
REMARK    2  A    between atoms: C_4  and  C_5
REMARK                            x       y       z     vdW  Elec       q    Type
REMARK                         _______ _______ _______ _____ _____    ______ ____
ROOT
ATOM      1  N   UNL     1       3.934   8.408   1.132  0.00  0.00    -0.354 N 
ATOM      2  N   UNL     1       5.872   7.511   2.030  0.00  0.00    -0.372 N 
ATOM      3  N   UNL     1       4.074   6.131   1.670  0.00  0.00    -0.372 N 
ATOM      4  C   UNL     1       4.612   7.353   1.605  0.00  0.00    +0.166 C 
ATOM      5  H   UNL     1       4.389   9.314   1.138  0.00  0.00    +0.163 HD
ATOM      6  H   UNL     1       6.409   6.733   2.388  0.00  0.00    +0.159 HD
ATOM      7  H   UNL     1       6.339   8.408   1.991  0.00  0.00    +0.159 HD
ATOM      8  H   UNL     1       3.126   5.947   1.370  0.00  0.00    +0.159 HD
ATOM      9  H   UNL     1       4.592   5.342   2.036  0.00  0.00    +0.159 HD
ENDROOT
BRANCH   1  10
ATOM     10  C   UNL     1       2.577   8.333   0.595  0.00  0.00    +0.151 C 
BRANCH  10  11
ATOM     11  C   UNL     1       1.664   9.170   1.449  0.00  0.00    -0.028 A 
ATOM     12  C   UNL     1       0.686   9.983   0.859  0.00  0.00    +0.005 A 
ATOM     13  C   UNL     1       1.769   9.149   2.848  0.00  0.00    +0.005 A 
ATOM     14  C   UNL     1      -0.182  10.738   1.652  0.00  0.00    +0.000 A 
ATOM     15  C   UNL     1       0.902   9.905   3.636  0.00  0.00    +0.000 A 
ATOM     16  C   UNL     1      -0.076  10.697   3.039  0.00  0.00    +0.000 A 
ENDBRANCH  10  11
ENDBRANCH   1  10
TORSDOF 2
ENDMDL
MODEL 7
REMARK VINA RESULT:    -5.637      3.177      4.182
REMARK INTER + INTRA:          -6.440
REMARK INTER:                  -6.300
REMARK INTRA:                  -0.140
REMARK UNBOUND:                -0.144
REMARK  Name = 1550473
REMARK  2 active torsions:
REMARK  status: ('A' for Active; 'I' for Inactive)
REMARK    1  A    between atoms: N_1  and  C_4
REMARK    2  A    between atoms: C_4  and  C_5
REMARK                            x       y       z     vdW  Elec       q    Type
REMARK                         _______ _______ _______ _____ _____    ______ ____
ROOT
ATOM      1  N   UNL     1      -6.746  -2.164  -1.979  0.00  0.00    -0.354 N 
ATOM      2  N   UNL     1      -5.548  -2.872  -0.128  0.00  0.00    -0.372 N 
ATOM      3  N   UNL     1      -4.403  -2.141  -1.977  0.00  0.00    -0.372 N 
ATOM      4  C   UNL     1      -5.571  -2.387  -1.375  0.00  0.00    +0.166 C 
ATOM      5  H   UNL     1      -7.596  -2.400  -1.479  0.00  0.00    +0.163 HD
ATOM      6  H   UNL     1      -4.676  -3.047   0.355  0.00  0.00    +0.159 HD
ATOM      7  H   UNL     1      -6.399  -3.063   0.386  0.00  0.00    +0.159 HD
ATOM      8  H   UNL     1      -4.352  -1.780  -2.920  0.00  0.00    +0.159 HD
ATOM      9  H   UNL     1      -3.520  -2.321  -1.515  0.00  0.00    +0.159 HD
ENDROOT
BRANCH   1  10
ATOM     10  C   UNL     1      -6.882  -1.588  -3.315  0.00  0.00    +0.151 C 
BRANCH  10  11
ATOM     11  C   UNL     1      -7.953  -0.532  -3.288  0.00  0.00    -0.028 A 
ATOM     12  C   UNL     1      -8.490  -0.094  -2.069  0.00  0.00    +0.005 A 
ATOM     13  C   UNL     1      -8.432   0.037  -4.478  0.00  0.00    +0.005 A 
ATOM     14  C   UNL     1      -9.464   0.908  -2.042  0.00  0.00    +0.000 A 
ATOM     15  C   UNL     1      -9.404   1.036  -4.447  0.00  0.00    +0.000 A 
ATOM     16  C   UNL     1      -9.918   1.473  -3.228  0.00  0.00    +0.000 A 
ENDBRANCH  10  11
ENDBRANCH   1  10
TORSDOF 2
ENDMDL
MODEL 8
REMARK VINA RESULT:    -5.464      9.911     11.114
REMARK INTER + INTRA:          -6.247
REMARK INTER:                  -6.098
REMARK INTRA:                  -0.150
REMARK UNBOUND:                -0.144
REMARK  Name = 1550473
REMARK  2 active torsions:
REMARK  status: ('A' for Active; 'I' for Inactive)
REMARK    1  A    between atoms: N_1  and  C_4
REMARK    2  A    between atoms: C_4  and  C_5
REMARK                            x       y       z     vdW  Elec       q    Type
REMARK                         _______ _______ _______ _____ _____    ______ ____
ROOT
ATOM      1  N   UNL     1     -14.030   3.777   2.622  0.00  0.00    -0.354 N 
ATOM      2  N   UNL     1     -15.595   3.991   0.927  0.00  0.00    -0.372 N 
ATOM      3  N   UNL     1     -15.062   1.892   1.686  0.00  0.00    -0.372 N 
ATOM      4  C   UNL     1     -14.885   3.216   1.756  0.00  0.00    +0.166 C 
ATOM      5  H   UNL     1     -13.920   4.784   2.605  0.00  0.00    +0.163 HD
ATOM      6  H   UNL     1     -16.250   3.597   0.266  0.00  0.00    +0.159 HD
ATOM      7  H   UNL     1     -15.516   5.001   0.944  0.00  0.00    +0.159 HD
ATOM      8  H   UNL     1     -14.552   1.252   2.279  0.00  0.00    +0.159 HD
ATOM      9  H   UNL     1     -15.704   1.478   1.022  0.00  0.00    +0.159 HD
ENDROOT
BRANCH   1  10
ATOM     10  C   UNL     1     -13.250   3.025   3.603  0.00  0.00    +0.151 C 
BRANCH  10  11
ATOM     11  C   UNL     1     -11.788   3.310   3.390  0.00  0.00    -0.028 A 
ATOM     12  C   UNL     1     -11.198   3.102   2.135  0.00  0.00    +0.005 A 
ATOM     13  C   UNL     1     -10.990   3.792   4.438  0.00  0.00    +0.005 A 
ATOM     14  C   UNL     1      -9.848   3.395   1.929  0.00  0.00    +0.000 A 
ATOM     15  C   UNL     1      -9.641   4.082   4.229  0.00  0.00    +0.000 A 
ATOM     16  C   UNL     1      -9.072   3.886   2.973  0.00  0.00    +0.000 A 
ENDBRANCH  10  11
ENDBRANCH   1  10
TORSDOF 2
ENDMDL
MODEL 9
REMARK VINA RESULT:    -5.443     11.168     12.113
REMARK INTER + INTRA:          -6.224
REMARK INTER:                  -6.132
REMARK INTRA:                  -0.091
REMARK UNBOUND:                -0.144
REMARK  Name = 1550473
REMARK  2 active torsions:
REMARK  status: ('A' for Active; 'I' for Inactive)
REMARK    1  A    between atoms: N_1  and  C_4
REMARK    2  A    between atoms: C_4  and  C_5
REMARK                            x       y       z     vdW  Elec       q    Type
REMARK                         _______ _______ _______ _____ _____    ______ ____
ROOT
ATOM      1  N   UNL     1     -12.976   6.775   2.878  0.00  0.00    -0.354 N 
ATOM      2  N   UNL     1     -13.836   8.763   2.060  0.00  0.00    -0.372 N 
ATOM      3  N   UNL     1     -14.809   7.810   3.907  0.00  0.00    -0.372 N 
ATOM      4  C   UNL     1     -13.870   7.769   2.956  0.00  0.00    +0.166 C 
ATOM      5  H   UNL     1     -12.308   6.786   2.116  0.00  0.00    +0.163 HD
ATOM      6  H   UNL     1     -14.496   9.528   2.095  0.00  0.00    +0.159 HD
ATOM      7  H   UNL     1     -13.139   8.795   1.326  0.00  0.00    +0.159 HD
ATOM      8  H   UNL     1     -14.892   7.087   4.609  0.00  0.00    +0.159 HD
ATOM      9  H   UNL     1     -15.486   8.562   3.951  0.00  0.00    +0.159 HD
ENDROOT
BRANCH   1  10
ATOM     10  C   UNL     1     -12.892   5.673   3.836  0.00  0.00    +0.151 C 
BRANCH  10  11
ATOM     11  C   UNL     1     -11.685   4.836   3.518  0.00  0.00    -0.028 A 
ATOM     12  C   UNL     1     -10.517   4.948   4.287  0.00  0.00    +0.005 A 
ATOM     13  C   UNL     1     -11.703   3.924   2.452  0.00  0.00    +0.005 A 
ATOM     14  C   UNL     1      -9.406   4.149   4.011  0.00  0.00    +0.000 A 
ATOM     15  C   UNL     1     -10.590   3.128   2.178  0.00  0.00    +0.000 A 
ATOM     16  C   UNL     1      -9.443   3.239   2.960  0.00  0.00    +0.000 A 
ENDBRANCH  10  11
ENDBRANCH   1  10
TORSDOF 2
ENDMDL
