MODEL 1
REMARK VINA RESULT:    -7.022      0.000      0.000
REMARK INTER + INTRA:          -8.026
REMARK INTER:                  -7.843
REMARK INTRA:                  -0.183
REMARK UNBOUND:                -0.183
REMARK  Name = 1550473
REMARK  2 active torsions:
REMARK  status: ('A' for Active; 'I' for Inactive)
REMARK    1  A    between atoms: N_1  and  C_4
REMARK    2  A    between atoms: C_4  and  C_5
REMARK                            x       y       z     vdW  Elec       q    Type
REMARK                         _______ _______ _______ _____ _____    ______ ____
ROOT
ATOM      1  N   UNL     1       7.373  -9.188 -13.429  0.00  0.00    -0.354 N 
ATOM      2  N   UNL     1       7.697  -7.936 -15.350  0.00  0.00    -0.372 N 
ATOM      3  N   UNL     1       5.866  -9.313 -15.220  0.00  0.00    -0.372 N 
ATOM      4  C   UNL     1       6.974  -8.822 -14.655  0.00  0.00    +0.166 C 
ATOM      5  H   UNL     1       8.239  -8.803 -13.070  0.00  0.00    +0.163 HD
ATOM      6  H   UNL     1       7.419  -7.638 -16.276  0.00  0.00    +0.159 HD
ATOM      7  H   UNL     1       8.537  -7.518 -14.970  0.00  0.00    +0.159 HD
ATOM      8  H   UNL     1       5.280  -9.990 -14.749  0.00  0.00    +0.159 HD
ATOM      9  H   UNL     1       5.578  -9.036 -16.150  0.00  0.00    +0.159 HD
ENDROOT
BRANCH   1  10
ATOM     10  C   UNL     1       6.629 -10.105 -12.567  0.00  0.00    +0.151 C 
BRANCH  10  11
ATOM     11  C   UNL     1       5.871  -9.309 -11.541  0.00  0.00    -0.028 A 
ATOM     12  C   UNL     1       6.552  -8.635 -10.517  0.00  0.00    +0.005 A 
ATOM     13  C   UNL     1       4.471  -9.220 -11.591  0.00  0.00    +0.005 A 
ATOM     14  C   UNL     1       5.850  -7.871  -9.582  0.00  0.00    +0.000 A 
ATOM     15  C   UNL     1       3.774  -8.457 -10.655  0.00  0.00    +0.000 A 
ATOM     16  C   UNL     1       4.464  -7.780  -9.652  0.00  0.00    +0.000 A 
ENDBRANCH  10  11
ENDBRANCH   1  10
TORSDOF 2
ENDMDL
MODEL 2
REMARK VINA RESULT:    -6.977      0.080      1.456
REMARK INTER + INTRA:          -7.977
REMARK INTER:                  -7.794
REMARK INTRA:                  -0.183
REMARK UNBOUND:                -0.183
REMARK  Name = 1550473
REMARK  2 active torsions:
REMARK  status: ('A' for Active; 'I' for Inactive)
REMARK    1  A    between atoms: N_1  and  C_4
REMARK    2  A    between atoms: C_4  and  C_5
REMARK                            x       y       z     vdW  Elec       q    Type
REMARK                         _______ _______ _______ _____ _____    ______ ____
ROOT
ATOM      1  N   UNL     1       7.398  -9.133 -13.381  0.00  0.00    -0.354 N 
ATOM      2  N   UNL     1       7.718  -7.927 -15.332  0.00  0.00    -0.372 N 
ATOM      3  N   UNL     1       5.904  -9.323 -15.177  0.00  0.00    -0.372 N 
ATOM      4  C   UNL     1       7.002  -8.804 -14.618  0.00  0.00    +0.166 C 
ATOM      5  H   UNL     1       8.256  -8.727 -13.026  0.00  0.00    +0.163 HD
ATOM      6  H   UNL     1       7.443  -7.657 -16.267  0.00  0.00    +0.159 HD
ATOM      7  H   UNL     1       8.551  -7.488 -14.958  0.00  0.00    +0.159 HD
ATOM      8  H   UNL     1       5.324  -9.995 -14.693  0.00  0.00    +0.159 HD
ATOM      9  H   UNL     1       5.619  -9.074 -16.116  0.00  0.00    +0.159 HD
ENDROOT
BRANCH   1  10
ATOM     10  C   UNL     1       6.660 -10.036 -12.500  0.00  0.00    +0.151 C 
BRANCH  10  11
ATOM     11  C   UNL     1       5.892  -9.224 -11.494  0.00  0.00    -0.028 A 
ATOM     12  C   UNL     1       4.495  -9.128 -11.573  0.00  0.00    +0.005 A 
ATOM     13  C   UNL     1       6.556  -8.551 -10.456  0.00  0.00    +0.005 A 
ATOM     14  C   UNL     1       3.779  -8.398 -10.621  0.00  0.00    +0.000 A 
ATOM     15  C   UNL     1       5.837  -7.823  -9.509  0.00  0.00    +0.000 A 
ATOM     16  C   UNL     1       4.449  -7.748  -9.590  0.00  0.00    +0.000 A 
ENDBRANCH  10  11
ENDBRANCH   1  10
TORSDOF 2
ENDMDL
MODEL 3
REMARK VINA RESULT:    -6.418      3.356      4.163
REMARK INTER + INTRA:          -7.352
REMARK INTER:                  -7.253
REMARK INTRA:                  -0.098
REMARK UNBOUND:                -0.183
REMARK  Name = 1550473
REMARK  2 active torsions:
REMARK  status: ('A' for Active; 'I' for Inactive)
REMARK    1  A    between atoms: N_1  and  C_4
REMARK    2  A    between atoms: C_4  and  C_5
REMARK                            x       y       z     vdW  Elec       q    Type
REMARK                         _______ _______ _______ _____ _____    ______ ____
ROOT
ATOM      1  N   UNL     1       8.177 -13.095 -12.059  0.00  0.00    -0.354 N 
ATOM      2  N   UNL     1       9.211 -15.122 -11.628  0.00  0.00    -0.372 N 
ATOM      3  N   UNL     1       9.106 -14.369 -13.793  0.00  0.00    -0.372 N 
ATOM      4  C   UNL     1       8.824 -14.182 -12.499  0.00  0.00    +0.166 C 
ATOM      5  H   UNL     1       7.967 -13.027 -11.070  0.00  0.00    +0.163 HD
ATOM      6  H   UNL     1       9.704 -15.952 -11.930  0.00  0.00    +0.159 HD
ATOM      7  H   UNL     1       9.040 -15.030 -10.634  0.00  0.00    +0.159 HD
ATOM      8  H   UNL     1       8.836 -13.699 -14.501  0.00  0.00    +0.159 HD
ATOM      9  H   UNL     1       9.588 -15.198 -14.116  0.00  0.00    +0.159 HD
ENDROOT
BRANCH   1  10
ATOM     10  C   UNL     1       7.761 -11.988 -12.918  0.00  0.00    +0.151 C 
BRANCH  10  11
ATOM     11  C   UNL     1       7.088 -10.939 -12.075  0.00  0.00    -0.028 A 
ATOM     12  C   UNL     1       7.801 -10.267 -11.072  0.00  0.00    +0.005 A 
ATOM     13  C   UNL     1       5.739 -10.610 -12.279  0.00  0.00    +0.005 A 
ATOM     14  C   UNL     1       7.184  -9.271 -10.310  0.00  0.00    +0.000 A 
ATOM     15  C   UNL     1       5.127  -9.616 -11.515  0.00  0.00    +0.000 A 
ATOM     16  C   UNL     1       5.851  -8.945 -10.532  0.00  0.00    +0.000 A 
ENDBRANCH  10  11
ENDBRANCH   1  10
TORSDOF 2
ENDMDL
MODEL 4
REMARK VINA RESULT:    -6.218      1.725      2.039
REMARK INTER + INTRA:          -7.129
REMARK INTER:                  -7.002
REMARK INTRA:                  -0.126
REMARK UNBOUND:                -0.183
REMARK  Name = 1550473
REMARK  2 active torsions:
REMARK  status: ('A' for Active; 'I' for Inactive)
REMARK    1  A    between atoms: N_1  and  C_4
REMARK    2  A    between atoms: C_4  and  C_5
REMARK                            x       y       z     vdW  Elec       q    Type
REMARK                         _______ _______ _______ _____ _____    ______ ____
ROOT
ATOM      1  N   UNL     1       7.573 -11.153 -12.610  0.00  0.00    -0.354 N 
ATOM      2  N   UNL     1       7.810 -11.957 -14.769  0.00  0.00    -0.372 N 
ATOM      3  N   UNL     1       8.900 -10.026 -14.179  0.00  0.00    -0.372 N 
ATOM      4  C   UNL     1       8.094 -11.038 -13.838  0.00  0.00    +0.166 C 
ATOM      5  H   UNL     1       6.945 -11.926 -12.424  0.00  0.00    +0.163 HD
ATOM      6  H   UNL     1       8.191 -11.899 -15.703  0.00  0.00    +0.159 HD
ATOM      7  H   UNL     1       7.219 -12.754 -14.567  0.00  0.00    +0.159 HD
ATOM      8  H   UNL     1       9.149  -9.296 -13.525  0.00  0.00    +0.159 HD
ATOM      9  H   UNL     1       9.282  -9.944 -15.113  0.00  0.00    +0.159 HD
ENDROOT
BRANCH   1  10
ATOM     10  C   UNL     1       7.863 -10.235 -11.509  0.00  0.00    +0.151 C 
BRANCH  10  11
ATOM     11  C   UNL     1       6.599  -9.519 -11.121  0.00  0.00    -0.028 A 
ATOM     12  C   UNL     1       6.595  -8.610 -10.052  0.00  0.00    +0.005 A 
ATOM     13  C   UNL     1       5.403  -9.739 -11.822  0.00  0.00    +0.005 A 
ATOM     14  C   UNL     1       5.428  -7.922  -9.711  0.00  0.00    +0.000 A 
ATOM     15  C   UNL     1       4.240  -9.051 -11.477  0.00  0.00    +0.000 A 
ATOM     16  C   UNL     1       4.254  -8.141 -10.423  0.00  0.00    +0.000 A 
ENDBRANCH  10  11
ENDBRANCH   1  10
TORSDOF 2
ENDMDL
MODEL 5
REMARK VINA RESULT:    -6.157      3.469      4.721
REMARK INTER + INTRA:          -7.060
REMARK INTER:                  -6.964
REMARK INTRA:                  -0.096
REMARK UNBOUND:                -0.183
REMARK  Name = 1550473
REMARK  2 active torsions:
REMARK  status: ('A' for Active; 'I' for Inactive)
REMARK    1  A    between atoms: N_1  and  C_4
REMARK    2  A    between atoms: C_4  and  C_5
REMARK                            x       y       z     vdW  Elec       q    Type
REMARK                         _______ _______ _______ _____ _____    ______ ____
ROOT
ATOM      1  N   UNL     1       4.385  -6.573 -10.320  0.00  0.00    -0.354 N 
ATOM      2  N   UNL     1       2.185  -5.851 -10.284  0.00  0.00    -0.372 N 
ATOM      3  N   UNL     1       3.000  -7.011  -8.481  0.00  0.00    -0.372 N 
ATOM      4  C   UNL     1       3.205  -6.485  -9.693  0.00  0.00    +0.166 C 
ATOM      5  H   UNL     1       4.467  -6.179 -11.250  0.00  0.00    +0.163 HD
ATOM      6  H   UNL     1       1.283  -5.765  -9.834  0.00  0.00    +0.159 HD
ATOM      7  H   UNL     1       2.283  -5.418 -11.195  0.00  0.00    +0.159 HD
ATOM      8  H   UNL     1       3.728  -7.508  -7.983  0.00  0.00    +0.159 HD
ATOM      9  H   UNL     1       2.102  -6.946  -8.019  0.00  0.00    +0.159 HD
ENDROOT
BRANCH   1  10
ATOM     10  C   UNL     1       5.574  -7.195  -9.740  0.00  0.00    +0.151 C 
BRANCH  10  11
ATOM     11  C   UNL     1       5.895  -8.450 -10.504  0.00  0.00    -0.028 A 
ATOM     12  C   UNL     1       7.140  -9.077 -10.354  0.00  0.00    +0.005 A 
ATOM     13  C   UNL     1       4.955  -9.020 -11.376  0.00  0.00    +0.005 A 
ATOM     14  C   UNL     1       7.427 -10.259 -11.041  0.00  0.00    +0.000 A 
ATOM     15  C   UNL     1       5.245 -10.200 -12.061  0.00  0.00    +0.000 A 
ATOM     16  C   UNL     1       6.481 -10.820 -11.891  0.00  0.00    +0.000 A 
ENDBRANCH  10  11
ENDBRANCH   1  10
TORSDOF 2
ENDMDL
MODEL 6
REMARK VINA RESULT:    -6.096      1.958      2.828
REMARK INTER + INTRA:          -6.992
REMARK INTER:                  -6.870
REMARK INTRA:                  -0.122
REMARK UNBOUND:                -0.183
REMARK  Name = 1550473
REMARK  2 active torsions:
REMARK  status: ('A' for Active; 'I' for Inactive)
REMARK    1  A    between atoms: N_1  and  C_4
REMARK    2  A    between atoms: C_4  and  C_5
REMARK                            x       y       z     vdW  Elec       q    Type
REMARK                         _______ _______ _______ _____ _____    ______ ____
ROOT
ATOM      1  N   UNL     1       4.863  -8.279 -12.742  0.00  0.00    -0.354 N 
ATOM      2  N   UNL     1       6.015  -8.101 -14.743  0.00  0.00    -0.372 N 
ATOM      3  N   UNL     1       6.199 -10.037 -13.526  0.00  0.00    -0.372 N 
ATOM      4  C   UNL     1       5.686  -8.809 -13.657  0.00  0.00    +0.166 C 
ATOM      5  H   UNL     1       4.531  -7.332 -12.885  0.00  0.00    +0.163 HD
ATOM      6  H   UNL     1       6.631  -8.476 -15.452  0.00  0.00    +0.159 HD
ATOM      7  H   UNL     1       5.646  -7.172 -14.906  0.00  0.00    +0.159 HD
ATOM      8  H   UNL     1       5.994 -10.621 -12.726  0.00  0.00    +0.159 HD
ATOM      9  H   UNL     1       6.827 -10.426 -14.219  0.00  0.00    +0.159 HD
ENDROOT
BRANCH   1  10
ATOM     10  C   UNL     1       4.399  -8.987 -11.550  0.00  0.00    +0.151 C 
BRANCH  10  11
ATOM     11  C   UNL     1       3.539  -8.063 -10.733  0.00  0.00    -0.028 A 
ATOM     12  C   UNL     1       3.048  -6.872 -11.286  0.00  0.00    +0.005 A 
ATOM     13  C   UNL     1       3.207  -8.376  -9.406  0.00  0.00    +0.005 A 
ATOM     14  C   UNL     1       2.225  -6.028 -10.537  0.00  0.00    +0.000 A 
ATOM     15  C   UNL     1       2.386  -7.530  -8.661  0.00  0.00    +0.000 A 
ATOM     16  C   UNL     1       1.893  -6.358  -9.228  0.00  0.00    +0.000 A 
ENDBRANCH  10  11
ENDBRANCH   1  10
TORSDOF 2
ENDMDL
MODEL 7
REMARK VINA RESULT:    -6.085      3.294      4.810
REMARK INTER + INTRA:          -6.980
REMARK INTER:                  -6.858
REMARK INTRA:                  -0.122
REMARK UNBOUND:                -0.183
REMARK  Name = 1550473
REMARK  2 active torsions:
REMARK  status: ('A' for Active; 'I' for Inactive)
REMARK    1  A    between atoms: N_1  and  C_4
REMARK    2  A    between atoms: C_4  and  C_5
REMARK                            x       y       z     vdW  Elec       q    Type
REMARK                         _______ _______ _______ _____ _____    ______ ____
ROOT
ATOM      1  N   UNL     1       4.459  -7.005 -10.653  0.00  0.00    -0.354 N 
ATOM      2  N   UNL     1       2.241  -6.338 -10.678  0.00  0.00    -0.372 N 
ATOM      3  N   UNL     1       3.151  -7.088  -8.710  0.00  0.00    -0.372 N 
ATOM      4  C   UNL     1       3.298  -6.816 -10.011  0.00  0.00    +0.166 C 
ATOM      5  H   UNL     1       4.497  -6.808 -11.646  0.00  0.00    +0.163 HD
ATOM      6  H   UNL     1       1.353  -6.182 -10.220  0.00  0.00    +0.159 HD
ATOM      7  H   UNL     1       2.295  -6.099 -11.661  0.00  0.00    +0.159 HD
ATOM      8  H   UNL     1       3.909  -7.456  -8.151  0.00  0.00    +0.159 HD
ATOM      9  H   UNL     1       2.267  -6.949  -8.236  0.00  0.00    +0.159 HD
ENDROOT
BRANCH   1  10
ATOM     10  C   UNL     1       5.685  -7.470 -10.006  0.00  0.00    +0.151 C 
BRANCH  10  11
ATOM     11  C   UNL     1       6.106  -8.771 -10.630  0.00  0.00    -0.028 A 
ATOM     12  C   UNL     1       5.228  -9.478 -11.465  0.00  0.00    +0.005 A 
ATOM     13  C   UNL     1       7.385  -9.301 -10.395  0.00  0.00    +0.005 A 
ATOM     14  C   UNL     1       5.630 -10.672 -12.069  0.00  0.00    +0.000 A 
ATOM     15  C   UNL     1       7.782 -10.493 -10.999  0.00  0.00    +0.000 A 
ATOM     16  C   UNL     1       6.905 -11.177 -11.838  0.00  0.00    +0.000 A 
ENDBRANCH  10  11
ENDBRANCH   1  10
TORSDOF 2
ENDMDL
MODEL 8
REMARK VINA RESULT:    -6.042      1.894      2.544
REMARK INTER + INTRA:          -6.932
REMARK INTER:                  -6.752
REMARK INTRA:                  -0.180
REMARK UNBOUND:                -0.183
REMARK  Name = 1550473
REMARK  2 active torsions:
REMARK  status: ('A' for Active; 'I' for Inactive)
REMARK    1  A    between atoms: N_1  and  C_4
REMARK    2  A    between atoms: C_4  and  C_5
REMARK                            x       y       z     vdW  Elec       q    Type
REMARK                         _______ _______ _______ _____ _____    ______ ____
ROOT
ATOM      1  N   UNL     1       5.436 -10.306 -12.480  0.00  0.00    -0.354 N 
ATOM      2  N   UNL     1       6.699 -12.226 -12.193  0.00  0.00    -0.372 N 
ATOM      3  N   UNL     1       7.772 -10.202 -12.324  0.00  0.00    -0.372 N 
ATOM      4  C   UNL     1       6.630 -10.897 -12.335  0.00  0.00    +0.166 C 
ATOM      5  H   UNL     1       4.610 -10.891 -12.510  0.00  0.00    +0.163 HD
ATOM      6  H   UNL     1       7.585 -12.700 -12.078  0.00  0.00    +0.159 HD
ATOM      7  H   UNL     1       5.868 -12.804 -12.178  0.00  0.00    +0.159 HD
ATOM      8  H   UNL     1       7.789  -9.197 -12.432  0.00  0.00    +0.159 HD
ATOM      9  H   UNL     1       8.670 -10.659 -12.222  0.00  0.00    +0.159 HD
ENDROOT
BRANCH   1  10
ATOM     10  C   UNL     1       5.248  -8.860 -12.587  0.00  0.00    +0.151 C 
BRANCH  10  11
ATOM     11  C   UNL     1       4.824  -8.319 -11.249  0.00  0.00    -0.028 A 
ATOM     12  C   UNL     1       5.769  -7.770 -10.371  0.00  0.00    +0.005 A 
ATOM     13  C   UNL     1       3.477  -8.349 -10.856  0.00  0.00    +0.005 A 
ATOM     14  C   UNL     1       5.372  -7.241  -9.141  0.00  0.00    +0.000 A 
ATOM     15  C   UNL     1       3.084  -7.820  -9.627  0.00  0.00    +0.000 A 
ATOM     16  C   UNL     1       4.031  -7.264  -8.770  0.00  0.00    +0.000 A 
ENDBRANCH  10  11
ENDBRANCH   1  10
TORSDOF 2
ENDMDL
MODEL 9
REMARK VINA RESULT:    -5.703      2.626      3.776
REMARK INTER + INTRA:          -6.553
REMARK INTER:                  -6.433
REMARK INTRA:                  -0.120
REMARK UNBOUND:                -0.183
REMARK  Name = 1550473
REMARK  2 active torsions:
REMARK  status: ('A' for Active; 'I' for Inactive)
REMARK    1  A    between atoms: N_1  and  C_4
REMARK    2  A    between atoms: C_4  and  C_5
REMARK                            x       y       z     vdW  Elec       q    Type
REMARK                         _______ _______ _______ _____ _____    ______ ____
ROOT
ATOM      1  N   UNL     1       7.962 -11.740 -12.087  0.00  0.00    -0.354 N 
ATOM      2  N   UNL     1       8.514 -13.987 -12.202  0.00  0.00    -0.372 N 
ATOM      3  N   UNL     1      10.019 -12.521 -11.280  0.00  0.00    -0.372 N 
ATOM      4  C   UNL     1       8.830 -12.734 -11.854  0.00  0.00    +0.166 C 
ATOM      5  H   UNL     1       7.090 -11.963 -12.553  0.00  0.00    +0.163 HD
ATOM      6  H   UNL     1       9.147 -14.757 -12.035  0.00  0.00    +0.159 HD
ATOM      7  H   UNL     1       7.622 -14.213 -12.626  0.00  0.00    +0.159 HD
ATOM      8  H   UNL     1      10.321 -11.597 -11.000  0.00  0.00    +0.159 HD
ATOM      9  H   UNL     1      10.672 -13.277 -11.116  0.00  0.00    +0.159 HD
ENDROOT
BRANCH   1  10
ATOM     10  C   UNL     1       8.188 -10.349 -11.699  0.00  0.00    +0.151 C 
BRANCH  10  11
ATOM     11  C   UNL     1       6.865  -9.706 -11.386  0.00  0.00    -0.028 A 
ATOM     12  C   UNL     1       5.704 -10.097 -12.068  0.00  0.00    +0.005 A 
ATOM     13  C   UNL     1       6.766  -8.709 -10.403  0.00  0.00    +0.005 A 
ATOM     14  C   UNL     1       4.470  -9.521 -11.756  0.00  0.00    +0.000 A 
ATOM     15  C   UNL     1       5.532  -8.136 -10.095  0.00  0.00    +0.000 A 
ATOM     16  C   UNL     1       4.384  -8.544 -10.770  0.00  0.00    +0.000 A 
ENDBRANCH  10  11
ENDBRANCH   1  10
TORSDOF 2
ENDMDL
