MODEL 1
REMARK VINA RESULT:    -5.088      0.000      0.000
REMARK INTER + INTRA:          -5.806
REMARK INTER:                  -5.682
REMARK INTRA:                  -0.124
REMARK UNBOUND:                -0.124
REMARK  Name = 1550473
REMARK  2 active torsions:
REMARK  status: ('A' for Active; 'I' for Inactive)
REMARK    1  A    between atoms: N_1  and  C_4
REMARK    2  A    between atoms: C_4  and  C_5
REMARK                            x       y       z     vdW  Elec       q    Type
REMARK                         _______ _______ _______ _____ _____    ______ ____
ROOT
ATOM      1  N   UNL     1     -13.063 -12.788 -24.962  0.00  0.00    -0.354 N 
ATOM      2  N   UNL     1     -13.612 -13.080 -27.193  0.00  0.00    -0.372 N 
ATOM      3  N   UNL     1     -15.274 -12.552 -25.702  0.00  0.00    -0.372 N 
ATOM      4  C   UNL     1     -13.982 -12.804 -25.937  0.00  0.00    +0.166 C 
ATOM      5  H   UNL     1     -12.105 -13.018 -25.200  0.00  0.00    +0.163 HD
ATOM      6  H   UNL     1     -14.283 -13.096 -27.950  0.00  0.00    +0.159 HD
ATOM      7  H   UNL     1     -12.647 -13.264 -27.436  0.00  0.00    +0.159 HD
ATOM      8  H   UNL     1     -15.619 -12.343 -24.774  0.00  0.00    +0.159 HD
ATOM      9  H   UNL     1     -15.962 -12.575 -26.444  0.00  0.00    +0.159 HD
ENDROOT
BRANCH   1  10
ATOM     10  C   UNL     1     -13.353 -12.447 -23.571  0.00  0.00    +0.151 C 
BRANCH  10  11
ATOM     11  C   UNL     1     -12.158 -12.786 -22.723  0.00  0.00    -0.028 A 
ATOM     12  C   UNL     1     -12.181 -12.563 -21.338  0.00  0.00    +0.005 A 
ATOM     13  C   UNL     1     -11.003 -13.337 -23.297  0.00  0.00    +0.005 A 
ATOM     14  C   UNL     1     -11.083 -12.906 -20.546  0.00  0.00    +0.000 A 
ATOM     15  C   UNL     1      -9.908 -13.678 -22.502  0.00  0.00    +0.000 A 
ATOM     16  C   UNL     1      -9.950 -13.465 -21.127  0.00  0.00    +0.000 A 
ENDBRANCH  10  11
ENDBRANCH   1  10
TORSDOF 2
ENDMDL
MODEL 2
REMARK VINA RESULT:    -5.047      1.035      2.051
REMARK INTER + INTRA:          -5.761
REMARK INTER:                  -5.651
REMARK INTRA:                  -0.111
REMARK UNBOUND:                -0.124
REMARK  Name = 1550473
REMARK  2 active torsions:
REMARK  status: ('A' for Active; 'I' for Inactive)
REMARK    1  A    between atoms: N_1  and  C_4
REMARK    2  A    between atoms: C_4  and  C_5
REMARK                            x       y       z     vdW  Elec       q    Type
REMARK                         _______ _______ _______ _____ _____    ______ ____
ROOT
ATOM      1  N   UNL     1     -14.344 -12.880 -24.131  0.00  0.00    -0.354 N 
ATOM      2  N   UNL     1     -16.583 -13.268 -24.576  0.00  0.00    -0.372 N 
ATOM      3  N   UNL     1     -15.208 -12.615 -26.293  0.00  0.00    -0.372 N 
ATOM      4  C   UNL     1     -15.363 -12.917 -25.000  0.00  0.00    +0.166 C 
ATOM      5  H   UNL     1     -14.533 -13.091 -23.158  0.00  0.00    +0.163 HD
ATOM      6  H   UNL     1     -17.371 -13.308 -25.210  0.00  0.00    +0.159 HD
ATOM      7  H   UNL     1     -16.760 -13.523 -23.612  0.00  0.00    +0.159 HD
ATOM      8  H   UNL     1     -14.313 -12.337 -26.675  0.00  0.00    +0.159 HD
ATOM      9  H   UNL     1     -15.986 -12.638 -26.940  0.00  0.00    +0.159 HD
ENDROOT
BRANCH   1  10
ATOM     10  C   UNL     1     -12.965 -12.563 -24.500  0.00  0.00    +0.151 C 
BRANCH  10  11
ATOM     11  C   UNL     1     -12.063 -12.864 -23.335  0.00  0.00    -0.028 A 
ATOM     12  C   UNL     1     -10.788 -13.410 -23.544  0.00  0.00    +0.005 A 
ATOM     13  C   UNL     1     -12.475 -12.599 -22.020  0.00  0.00    +0.005 A 
ATOM     14  C   UNL     1      -9.938 -13.661 -22.464  0.00  0.00    +0.000 A 
ATOM     15  C   UNL     1     -11.624 -12.852 -20.944  0.00  0.00    +0.000 A 
ATOM     16  C   UNL     1     -10.355 -13.380 -21.167  0.00  0.00    +0.000 A 
ENDBRANCH  10  11
ENDBRANCH   1  10
TORSDOF 2
ENDMDL
MODEL 3
REMARK VINA RESULT:    -4.715     43.249     44.521
REMARK INTER + INTRA:          -5.391
REMARK INTER:                  -5.218
REMARK INTRA:                  -0.173
REMARK UNBOUND:                -0.124
REMARK  Name = 1550473
REMARK  2 active torsions:
REMARK  status: ('A' for Active; 'I' for Inactive)
REMARK    1  A    between atoms: N_1  and  C_4
REMARK    2  A    between atoms: C_4  and  C_5
REMARK                            x       y       z     vdW  Elec       q    Type
REMARK                         _______ _______ _______ _____ _____    ______ ____
ROOT
ATOM      1  N   UNL     1       9.330   1.665  13.650  0.00  0.00    -0.354 N 
ATOM      2  N   UNL     1       8.526   0.545  15.511  0.00  0.00    -0.372 N 
ATOM      3  N   UNL     1       8.087  -0.309  13.427  0.00  0.00    -0.372 N 
ATOM      4  C   UNL     1       8.652   0.640  14.182  0.00  0.00    +0.166 C 
ATOM      5  H   UNL     1       9.709   2.368  14.275  0.00  0.00    +0.163 HD
ATOM      6  H   UNL     1       8.023  -0.219  15.941  0.00  0.00    +0.159 HD
ATOM      7  H   UNL     1       8.944   1.224  16.135  0.00  0.00    +0.159 HD
ATOM      8  H   UNL     1       8.141  -0.292  12.417  0.00  0.00    +0.159 HD
ATOM      9  H   UNL     1       7.569  -1.075  13.838  0.00  0.00    +0.159 HD
ENDROOT
BRANCH   1  10
ATOM     10  C   UNL     1       9.571   1.832  12.218  0.00  0.00    +0.151 C 
BRANCH  10  11
ATOM     11  C   UNL     1       8.732   2.970  11.708  0.00  0.00    -0.028 A 
ATOM     12  C   UNL     1       7.387   2.766  11.366  0.00  0.00    +0.005 A 
ATOM     13  C   UNL     1       9.274   4.257  11.569  0.00  0.00    +0.005 A 
ATOM     14  C   UNL     1       6.598   3.830  10.921  0.00  0.00    +0.000 A 
ATOM     15  C   UNL     1       8.484   5.317  11.123  0.00  0.00    +0.000 A 
ATOM     16  C   UNL     1       7.146   5.103  10.801  0.00  0.00    +0.000 A 
ENDBRANCH  10  11
ENDBRANCH   1  10
TORSDOF 2
ENDMDL
MODEL 4
REMARK VINA RESULT:    -4.560      4.730      6.463
REMARK INTER + INTRA:          -5.217
REMARK INTER:                  -5.077
REMARK INTRA:                  -0.140
REMARK UNBOUND:                -0.124
REMARK  Name = 1550473
REMARK  2 active torsions:
REMARK  status: ('A' for Active; 'I' for Inactive)
REMARK    1  A    between atoms: N_1  and  C_4
REMARK    2  A    between atoms: C_4  and  C_5
REMARK                            x       y       z     vdW  Elec       q    Type
REMARK                         _______ _______ _______ _____ _____    ______ ____
ROOT
ATOM      1  N   UNL     1     -10.246 -13.176 -18.186  0.00  0.00    -0.354 N 
ATOM      2  N   UNL     1      -8.622 -13.376 -16.547  0.00  0.00    -0.372 N 
ATOM      3  N   UNL     1      -9.647 -11.346 -16.850  0.00  0.00    -0.372 N 
ATOM      4  C   UNL     1      -9.516 -12.628 -17.205  0.00  0.00    +0.166 C 
ATOM      5  H   UNL     1     -10.077 -14.146 -18.428  0.00  0.00    +0.163 HD
ATOM      6  H   UNL     1      -8.059 -12.991 -15.800  0.00  0.00    +0.159 HD
ATOM      7  H   UNL     1      -8.488 -14.357 -16.760  0.00  0.00    +0.159 HD
ATOM      8  H   UNL     1     -10.300 -10.727 -17.312  0.00  0.00    +0.159 HD
ATOM      9  H   UNL     1      -9.085 -10.939 -16.113  0.00  0.00    +0.159 HD
ENDROOT
BRANCH   1  10
ATOM     10  C   UNL     1     -11.284 -12.463 -18.929  0.00  0.00    +0.151 C 
BRANCH  10  11
ATOM     11  C   UNL     1     -11.145 -12.777 -20.393  0.00  0.00    -0.028 A 
ATOM     12  C   UNL     1      -9.954 -13.322 -20.894  0.00  0.00    +0.005 A 
ATOM     13  C   UNL     1     -12.203 -12.537 -21.283  0.00  0.00    +0.005 A 
ATOM     14  C   UNL     1      -9.835 -13.642 -22.248  0.00  0.00    +0.000 A 
ATOM     15  C   UNL     1     -12.080 -12.857 -22.635  0.00  0.00    +0.000 A 
ATOM     16  C   UNL     1     -10.896 -13.412 -23.117  0.00  0.00    +0.000 A 
ENDBRANCH  10  11
ENDBRANCH   1  10
TORSDOF 2
ENDMDL
MODEL 5
REMARK VINA RESULT:    -4.442     48.509     49.674
REMARK INTER + INTRA:          -5.085
REMARK INTER:                  -4.912
REMARK INTRA:                  -0.173
REMARK UNBOUND:                -0.124
REMARK  Name = 1550473
REMARK  2 active torsions:
REMARK  status: ('A' for Active; 'I' for Inactive)
REMARK    1  A    between atoms: N_1  and  C_4
REMARK    2  A    between atoms: C_4  and  C_5
REMARK                            x       y       z     vdW  Elec       q    Type
REMARK                         _______ _______ _______ _____ _____    ______ ____
ROOT
ATOM      1  N   UNL     1       6.250   2.835  19.127  0.00  0.00    -0.354 N 
ATOM      2  N   UNL     1       4.120   3.654  19.523  0.00  0.00    -0.372 N 
ATOM      3  N   UNL     1       5.633   3.621  21.247  0.00  0.00    -0.372 N 
ATOM      4  C   UNL     1       5.349   3.365  19.965  0.00  0.00    +0.166 C 
ATOM      5  H   UNL     1       5.963   2.637  18.175  0.00  0.00    +0.163 HD
ATOM      6  H   UNL     1       3.420   4.058  20.131  0.00  0.00    +0.159 HD
ATOM      7  H   UNL     1       3.850   3.498  18.559  0.00  0.00    +0.159 HD
ATOM      8  H   UNL     1       6.541   3.420  21.644  0.00  0.00    +0.159 HD
ATOM      9  H   UNL     1       4.943   4.014  21.875  0.00  0.00    +0.159 HD
ENDROOT
BRANCH   1  10
ATOM     10  C   UNL     1       7.632   2.533  19.495  0.00  0.00    +0.151 C 
BRANCH  10  11
ATOM     11  C   UNL     1       7.776   1.049  19.688  0.00  0.00    -0.028 A 
ATOM     12  C   UNL     1       7.466   0.163  18.646  0.00  0.00    +0.005 A 
ATOM     13  C   UNL     1       8.227   0.523  20.908  0.00  0.00    +0.005 A 
ATOM     14  C   UNL     1       7.628  -1.215  18.814  0.00  0.00    +0.000 A 
ATOM     15  C   UNL     1       8.387  -0.853  21.072  0.00  0.00    +0.000 A 
ATOM     16  C   UNL     1       8.090  -1.721  20.024  0.00  0.00    +0.000 A 
ENDBRANCH  10  11
ENDBRANCH   1  10
TORSDOF 2
ENDMDL
MODEL 6
REMARK VINA RESULT:    -4.362      7.876      8.401
REMARK INTER + INTRA:          -4.996
REMARK INTER:                  -4.860
REMARK INTRA:                  -0.136
REMARK UNBOUND:                -0.124
REMARK  Name = 1550473
REMARK  2 active torsions:
REMARK  status: ('A' for Active; 'I' for Inactive)
REMARK    1  A    between atoms: N_1  and  C_4
REMARK    2  A    between atoms: C_4  and  C_5
REMARK                            x       y       z     vdW  Elec       q    Type
REMARK                         _______ _______ _______ _____ _____    ______ ____
ROOT
ATOM      1  N   UNL     1      -5.908  -8.902 -28.237  0.00  0.00    -0.354 N 
ATOM      2  N   UNL     1      -5.342 -10.721 -29.555  0.00  0.00    -0.372 N 
ATOM      3  N   UNL     1      -7.372 -10.716 -28.484  0.00  0.00    -0.372 N 
ATOM      4  C   UNL     1      -6.214 -10.102 -28.749  0.00  0.00    +0.166 C 
ATOM      5  H   UNL     1      -5.001  -8.504 -28.452  0.00  0.00    +0.163 HD
ATOM      6  H   UNL     1      -5.547 -11.625 -29.960  0.00  0.00    +0.159 HD
ATOM      7  H   UNL     1      -4.456 -10.299 -29.805  0.00  0.00    +0.159 HD
ATOM      8  H   UNL     1      -8.069 -10.305 -27.879  0.00  0.00    +0.159 HD
ATOM      9  H   UNL     1      -7.590 -11.626 -28.870  0.00  0.00    +0.159 HD
ENDROOT
BRANCH   1  10
ATOM     10  C   UNL     1      -6.809  -8.121 -27.392  0.00  0.00    +0.151 C 
BRANCH  10  11
ATOM     11  C   UNL     1      -6.197  -7.974 -26.026  0.00  0.00    -0.028 A 
ATOM     12  C   UNL     1      -6.899  -7.329 -24.997  0.00  0.00    +0.005 A 
ATOM     13  C   UNL     1      -4.918  -8.483 -25.752  0.00  0.00    +0.005 A 
ATOM     14  C   UNL     1      -6.343  -7.219 -23.720  0.00  0.00    +0.000 A 
ATOM     15  C   UNL     1      -4.367  -8.371 -24.476  0.00  0.00    +0.000 A 
ATOM     16  C   UNL     1      -5.081  -7.741 -23.459  0.00  0.00    +0.000 A 
ENDBRANCH  10  11
ENDBRANCH   1  10
TORSDOF 2
ENDMDL
MODEL 7
REMARK VINA RESULT:    -4.301     48.985     49.466
REMARK INTER + INTRA:          -4.928
REMARK INTER:                  -4.806
REMARK INTRA:                  -0.122
REMARK UNBOUND:                -0.124
REMARK  Name = 1550473
REMARK  2 active torsions:
REMARK  status: ('A' for Active; 'I' for Inactive)
REMARK    1  A    between atoms: N_1  and  C_4
REMARK    2  A    between atoms: C_4  and  C_5
REMARK                            x       y       z     vdW  Elec       q    Type
REMARK                         _______ _______ _______ _____ _____    ______ ____
ROOT
ATOM      1  N   UNL     1       5.200   4.065  19.638  0.00  0.00    -0.354 N 
ATOM      2  N   UNL     1       6.786   2.823  20.781  0.00  0.00    -0.372 N 
ATOM      3  N   UNL     1       4.574   2.585  21.344  0.00  0.00    -0.372 N 
ATOM      4  C   UNL     1       5.507   3.165  20.582  0.00  0.00    +0.166 C 
ATOM      5  H   UNL     1       5.956   4.490  19.114  0.00  0.00    +0.163 HD
ATOM      6  H   UNL     1       7.048   2.144  21.483  0.00  0.00    +0.159 HD
ATOM      7  H   UNL     1       7.535   3.215  20.224  0.00  0.00    +0.159 HD
ATOM      8  H   UNL     1       3.592   2.805  21.248  0.00  0.00    +0.159 HD
ATOM      9  H   UNL     1       4.818   1.913  22.061  0.00  0.00    +0.159 HD
ENDROOT
BRANCH   1  10
ATOM     10  C   UNL     1       3.834   4.466  19.305  0.00  0.00    +0.151 C 
BRANCH  10  11
ATOM     11  C   UNL     1       3.875   5.764  18.546  0.00  0.00    -0.028 A 
ATOM     12  C   UNL     1       2.720   6.548  18.414  0.00  0.00    +0.005 A 
ATOM     13  C   UNL     1       5.068   6.218  17.962  0.00  0.00    +0.005 A 
ATOM     14  C   UNL     1       2.764   7.768  17.734  0.00  0.00    +0.000 A 
ATOM     15  C   UNL     1       5.108   7.436  17.284  0.00  0.00    +0.000 A 
ATOM     16  C   UNL     1       3.957   8.212  17.173  0.00  0.00    +0.000 A 
ENDBRANCH  10  11
ENDBRANCH   1  10
TORSDOF 2
ENDMDL
MODEL 8
REMARK VINA RESULT:    -4.285     23.364     24.933
REMARK INTER + INTRA:          -4.910
REMARK INTER:                  -4.786
REMARK INTRA:                  -0.123
REMARK UNBOUND:                -0.124
REMARK  Name = 1550473
REMARK  2 active torsions:
REMARK  status: ('A' for Active; 'I' for Inactive)
REMARK    1  A    between atoms: N_1  and  C_4
REMARK    2  A    between atoms: C_4  and  C_5
REMARK                            x       y       z     vdW  Elec       q    Type
REMARK                         _______ _______ _______ _____ _____    ______ ____
ROOT
ATOM      1  N   UNL     1       4.123   1.363  -9.472  0.00  0.00    -0.354 N 
ATOM      2  N   UNL     1       4.686   2.720  -7.682  0.00  0.00    -0.372 N 
ATOM      3  N   UNL     1       2.710   3.101  -8.784  0.00  0.00    -0.372 N 
ATOM      4  C   UNL     1       3.833   2.387  -8.659  0.00  0.00    +0.166 C 
ATOM      5  H   UNL     1       5.005   0.880  -9.344  0.00  0.00    +0.163 HD
ATOM      6  H   UNL     1       4.493   3.485  -7.050  0.00  0.00    +0.159 HD
ATOM      7  H   UNL     1       5.546   2.207  -7.527  0.00  0.00    +0.159 HD
ATOM      8  H   UNL     1       2.028   2.904  -9.504  0.00  0.00    +0.159 HD
ATOM      9  H   UNL     1       2.504   3.878  -8.169  0.00  0.00    +0.159 HD
ENDROOT
BRANCH   1  10
ATOM     10  C   UNL     1       3.237   0.885 -10.532  0.00  0.00    +0.151 C 
BRANCH  10  11
ATOM     11  C   UNL     1       3.577  -0.544 -10.851  0.00  0.00    -0.028 A 
ATOM     12  C   UNL     1       2.680  -1.347 -11.571  0.00  0.00    +0.005 A 
ATOM     13  C   UNL     1       4.798  -1.101 -10.439  0.00  0.00    +0.005 A 
ATOM     14  C   UNL     1       3.009  -2.666 -11.893  0.00  0.00    +0.000 A 
ATOM     15  C   UNL     1       5.122  -2.419 -10.762  0.00  0.00    +0.000 A 
ATOM     16  C   UNL     1       4.229  -3.200 -11.491  0.00  0.00    +0.000 A 
ENDBRANCH  10  11
ENDBRANCH   1  10
TORSDOF 2
ENDMDL
MODEL 9
REMARK VINA RESULT:    -4.183     32.002     32.328
REMARK INTER + INTRA:          -4.796
REMARK INTER:                  -4.674
REMARK INTRA:                  -0.121
REMARK UNBOUND:                -0.124
REMARK  Name = 1550473
REMARK  2 active torsions:
REMARK  status: ('A' for Active; 'I' for Inactive)
REMARK    1  A    between atoms: N_1  and  C_4
REMARK    2  A    between atoms: C_4  and  C_5
REMARK                            x       y       z     vdW  Elec       q    Type
REMARK                         _______ _______ _______ _____ _____    ______ ____
ROOT
ATOM      1  N   UNL     1       8.641  -2.625  -1.492  0.00  0.00    -0.354 N 
ATOM      2  N   UNL     1       9.643  -1.302  -3.108  0.00  0.00    -0.372 N 
ATOM      3  N   UNL     1       8.811  -0.304  -1.217  0.00  0.00    -0.372 N 
ATOM      4  C   UNL     1       9.024  -1.417  -1.927  0.00  0.00    +0.166 C 
ATOM      5  H   UNL     1       8.804  -3.426  -2.091  0.00  0.00    +0.163 HD
ATOM      6  H   UNL     1       9.946  -0.404  -3.460  0.00  0.00    +0.159 HD
ATOM      7  H   UNL     1       9.846  -2.110  -3.684  0.00  0.00    +0.159 HD
ATOM      8  H   UNL     1       8.344  -0.322  -0.320  0.00  0.00    +0.159 HD
ATOM      9  H   UNL     1       9.097   0.605  -1.558  0.00  0.00    +0.159 HD
ENDROOT
BRANCH   1  10
ATOM     10  C   UNL     1       8.008  -2.865  -0.196  0.00  0.00    +0.151 C 
BRANCH  10  11
ATOM     11  C   UNL     1       7.911  -4.348   0.035  0.00  0.00    -0.028 A 
ATOM     12  C   UNL     1       8.751  -5.233  -0.656  0.00  0.00    +0.005 A 
ATOM     13  C   UNL     1       6.986  -4.873   0.950  0.00  0.00    +0.005 A 
ATOM     14  C   UNL     1       8.682  -6.608  -0.419  0.00  0.00    +0.000 A 
ATOM     15  C   UNL     1       6.919  -6.247   1.183  0.00  0.00    +0.000 A 
ATOM     16  C   UNL     1       7.769  -7.113   0.501  0.00  0.00    +0.000 A 
ENDBRANCH  10  11
ENDBRANCH   1  10
TORSDOF 2
ENDMDL
