MODEL 1
REMARK VINA RESULT:    -6.211      0.000      0.000
REMARK INTER + INTRA:          -7.073
REMARK INTER:                  -6.938
REMARK INTRA:                  -0.136
REMARK UNBOUND:                -0.136
REMARK  Name = 1550473
REMARK  2 active torsions:
REMARK  status: ('A' for Active; 'I' for Inactive)
REMARK    1  A    between atoms: N_1  and  C_4
REMARK    2  A    between atoms: C_4  and  C_5
REMARK                            x       y       z     vdW  Elec       q    Type
REMARK                         _______ _______ _______ _____ _____    ______ ____
ROOT
ATOM      1  N   UNL     1      -9.885  -9.289  -4.547  0.00  0.00    -0.354 N 
ATOM      2  N   UNL     1     -11.239  -7.587  -3.752  0.00  0.00    -0.372 N 
ATOM      3  N   UNL     1     -12.062  -8.998  -5.364  0.00  0.00    -0.372 N 
ATOM      4  C   UNL     1     -11.055  -8.637  -4.561  0.00  0.00    +0.166 C 
ATOM      5  H   UNL     1      -9.151  -8.948  -3.937  0.00  0.00    +0.163 HD
ATOM      6  H   UNL     1     -12.113  -7.078  -3.738  0.00  0.00    +0.159 HD
ATOM      7  H   UNL     1     -10.520  -7.276  -3.110  0.00  0.00    +0.159 HD
ATOM      8  H   UNL     1     -11.984  -9.777  -6.003  0.00  0.00    +0.159 HD
ATOM      9  H   UNL     1     -12.939  -8.493  -5.373  0.00  0.00    +0.159 HD
ENDROOT
BRANCH   1  10
ATOM     10  C   UNL     1      -9.601 -10.477  -5.350  0.00  0.00    +0.151 C 
BRANCH  10  11
ATOM     11  C   UNL     1      -8.758 -11.426  -4.544  0.00  0.00    -0.028 A 
ATOM     12  C   UNL     1      -8.569 -11.218  -3.169  0.00  0.00    +0.005 A 
ATOM     13  C   UNL     1      -8.150 -12.538  -5.146  0.00  0.00    +0.005 A 
ATOM     14  C   UNL     1      -7.811 -12.116  -2.414  0.00  0.00    +0.000 A 
ATOM     15  C   UNL     1      -7.393 -13.432  -4.389  0.00  0.00    +0.000 A 
ATOM     16  C   UNL     1      -7.226 -13.222  -3.022  0.00  0.00    +0.000 A 
ENDBRANCH  10  11
ENDBRANCH   1  10
TORSDOF 2
ENDMDL
MODEL 2
REMARK VINA RESULT:    -5.355     32.595     33.915
REMARK INTER + INTRA:          -6.117
REMARK INTER:                  -5.974
REMARK INTRA:                  -0.143
REMARK UNBOUND:                -0.136
REMARK  Name = 1550473
REMARK  2 active torsions:
REMARK  status: ('A' for Active; 'I' for Inactive)
REMARK    1  A    between atoms: N_1  and  C_4
REMARK    2  A    between atoms: C_4  and  C_5
REMARK                            x       y       z     vdW  Elec       q    Type
REMARK                         _______ _______ _______ _____ _____    ______ ____
ROOT
ATOM      1  N   UNL     1       1.289  20.377  -3.805  0.00  0.00    -0.354 N 
ATOM      2  N   UNL     1       1.928  20.972  -5.950  0.00  0.00    -0.372 N 
ATOM      3  N   UNL     1       3.339  19.670  -4.693  0.00  0.00    -0.372 N 
ATOM      4  C   UNL     1       2.184  20.335  -4.801  0.00  0.00    +0.166 C 
ATOM      5  H   UNL     1       0.446  20.923  -3.938  0.00  0.00    +0.163 HD
ATOM      6  H   UNL     1       2.583  20.955  -6.721  0.00  0.00    +0.159 HD
ATOM      7  H   UNL     1       1.064  21.479  -6.097  0.00  0.00    +0.159 HD
ATOM      8  H   UNL     1       3.595  19.174  -3.850  0.00  0.00    +0.159 HD
ATOM      9  H   UNL     1       4.013  19.651  -5.449  0.00  0.00    +0.159 HD
ENDROOT
BRANCH   1  10
ATOM     10  C   UNL     1       1.447  19.672  -2.534  0.00  0.00    +0.151 C 
BRANCH  10  11
ATOM     11  C   UNL     1       1.429  20.674  -1.412  0.00  0.00    -0.028 A 
ATOM     12  C   UNL     1       2.267  20.511  -0.299  0.00  0.00    +0.005 A 
ATOM     13  C   UNL     1       0.580  21.790  -1.458  0.00  0.00    +0.005 A 
ATOM     14  C   UNL     1       2.272  21.457   0.729  0.00  0.00    +0.000 A 
ATOM     15  C   UNL     1       0.587  22.731  -0.429  0.00  0.00    +0.000 A 
ATOM     16  C   UNL     1       1.435  22.566   0.663  0.00  0.00    +0.000 A 
ENDBRANCH  10  11
ENDBRANCH   1  10
TORSDOF 2
ENDMDL
MODEL 3
REMARK VINA RESULT:    -5.182     32.334     33.853
REMARK INTER + INTRA:          -5.924
REMARK INTER:                  -5.740
REMARK INTRA:                  -0.183
REMARK UNBOUND:                -0.136
REMARK  Name = 1550473
REMARK  2 active torsions:
REMARK  status: ('A' for Active; 'I' for Inactive)
REMARK    1  A    between atoms: N_1  and  C_4
REMARK    2  A    between atoms: C_4  and  C_5
REMARK                            x       y       z     vdW  Elec       q    Type
REMARK                         _______ _______ _______ _____ _____    ______ ____
ROOT
ATOM      1  N   UNL     1       2.318  19.392  -3.185  0.00  0.00    -0.354 N 
ATOM      2  N   UNL     1       3.796  19.706  -4.940  0.00  0.00    -0.372 N 
ATOM      3  N   UNL     1       1.689  20.604  -5.089  0.00  0.00    -0.372 N 
ATOM      4  C   UNL     1       2.589  19.900  -4.394  0.00  0.00    +0.166 C 
ATOM      5  H   UNL     1       3.032  18.842  -2.722  0.00  0.00    +0.163 HD
ATOM      6  H   UNL     1       4.030  20.080  -5.850  0.00  0.00    +0.159 HD
ATOM      7  H   UNL     1       4.523  19.195  -4.456  0.00  0.00    +0.159 HD
ATOM      8  H   UNL     1       0.758  20.781  -4.736  0.00  0.00    +0.159 HD
ATOM      9  H   UNL     1       1.901  20.977  -6.006  0.00  0.00    +0.159 HD
ENDROOT
BRANCH   1  10
ATOM     10  C   UNL     1       1.053  19.591  -2.479  0.00  0.00    +0.151 C 
BRANCH  10  11
ATOM     11  C   UNL     1       1.221  20.696  -1.473  0.00  0.00    -0.028 A 
ATOM     12  C   UNL     1       0.530  21.907  -1.623  0.00  0.00    +0.005 A 
ATOM     13  C   UNL     1       2.066  20.536  -0.363  0.00  0.00    +0.005 A 
ATOM     14  C   UNL     1       0.662  22.922  -0.672  0.00  0.00    +0.000 A 
ATOM     15  C   UNL     1       2.196  21.552   0.583  0.00  0.00    +0.000 A 
ATOM     16  C   UNL     1       1.492  22.744   0.429  0.00  0.00    +0.000 A 
ENDBRANCH  10  11
ENDBRANCH   1  10
TORSDOF 2
ENDMDL
MODEL 4
REMARK VINA RESULT:    -4.974     14.562     16.574
REMARK INTER + INTRA:          -5.691
REMARK INTER:                  -5.562
REMARK INTRA:                  -0.129
REMARK UNBOUND:                -0.136
REMARK  Name = 1550473
REMARK  2 active torsions:
REMARK  status: ('A' for Active; 'I' for Inactive)
REMARK    1  A    between atoms: N_1  and  C_4
REMARK    2  A    between atoms: C_4  and  C_5
REMARK                            x       y       z     vdW  Elec       q    Type
REMARK                         _______ _______ _______ _____ _____    ______ ____
ROOT
ATOM      1  N   UNL     1     -14.036   0.662   8.328  0.00  0.00    -0.354 N 
ATOM      2  N   UNL     1     -14.141   0.649  10.641  0.00  0.00    -0.372 N 
ATOM      3  N   UNL     1     -15.421   2.159   9.481  0.00  0.00    -0.372 N 
ATOM      4  C   UNL     1     -14.534   1.159   9.468  0.00  0.00    +0.166 C 
ATOM      5  H   UNL     1     -13.344  -0.076   8.386  0.00  0.00    +0.163 HD
ATOM      6  H   UNL     1     -14.502   1.001  11.518  0.00  0.00    +0.159 HD
ATOM      7  H   UNL     1     -13.484  -0.120  10.695  0.00  0.00    +0.159 HD
ATOM      8  H   UNL     1     -15.754   2.592   8.630  0.00  0.00    +0.159 HD
ATOM      9  H   UNL     1     -15.785   2.533  10.349  0.00  0.00    +0.159 HD
ENDROOT
BRANCH   1  10
ATOM     10  C   UNL     1     -14.439   1.110   6.996  0.00  0.00    +0.151 C 
BRANCH  10  11
ATOM     11  C   UNL     1     -14.318  -0.039   6.033  0.00  0.00    -0.028 A 
ATOM     12  C   UNL     1     -14.837   0.062   4.734  0.00  0.00    +0.005 A 
ATOM     13  C   UNL     1     -13.680  -1.231   6.412  0.00  0.00    +0.005 A 
ATOM     14  C   UNL     1     -14.699  -0.994   3.830  0.00  0.00    +0.000 A 
ATOM     15  C   UNL     1     -13.545  -2.283   5.507  0.00  0.00    +0.000 A 
ATOM     16  C   UNL     1     -14.052  -2.163   4.216  0.00  0.00    +0.000 A 
ENDBRANCH  10  11
ENDBRANCH   1  10
TORSDOF 2
ENDMDL
MODEL 5
REMARK VINA RESULT:    -4.824     28.129     29.113
REMARK INTER + INTRA:          -5.524
REMARK INTER:                  -5.403
REMARK INTRA:                  -0.121
REMARK UNBOUND:                -0.136
REMARK  Name = 1550473
REMARK  2 active torsions:
REMARK  status: ('A' for Active; 'I' for Inactive)
REMARK    1  A    between atoms: N_1  and  C_4
REMARK    2  A    between atoms: C_4  and  C_5
REMARK                            x       y       z     vdW  Elec       q    Type
REMARK                         _______ _______ _______ _____ _____    ______ ____
ROOT
ATOM      1  N   UNL     1       0.329   5.629  18.352  0.00  0.00    -0.354 N 
ATOM      2  N   UNL     1       2.462   6.363  17.828  0.00  0.00    -0.372 N 
ATOM      3  N   UNL     1       2.209   4.754  19.444  0.00  0.00    -0.372 N 
ATOM      4  C   UNL     1       1.654   5.575  18.547  0.00  0.00    +0.166 C 
ATOM      5  H   UNL     1      -0.032   6.295  17.679  0.00  0.00    +0.163 HD
ATOM      6  H   UNL     1       3.466   6.343  17.951  0.00  0.00    +0.159 HD
ATOM      7  H   UNL     1       2.102   6.995  17.123  0.00  0.00    +0.159 HD
ATOM      8  H   UNL     1       1.654   4.138  20.022  0.00  0.00    +0.159 HD
ATOM      9  H   UNL     1       3.211   4.727  19.589  0.00  0.00    +0.159 HD
ENDROOT
BRANCH   1  10
ATOM     10  C   UNL     1      -0.634   4.775  19.045  0.00  0.00    +0.151 C 
BRANCH  10  11
ATOM     11  C   UNL     1      -1.992   4.965  18.427  0.00  0.00    -0.028 A 
ATOM     12  C   UNL     1      -3.030   4.061  18.697  0.00  0.00    +0.005 A 
ATOM     13  C   UNL     1      -2.249   6.051  17.576  0.00  0.00    +0.005 A 
ATOM     14  C   UNL     1      -4.300   4.253  18.147  0.00  0.00    +0.000 A 
ATOM     15  C   UNL     1      -3.518   6.239  17.028  0.00  0.00    +0.000 A 
ATOM     16  C   UNL     1      -4.543   5.342  17.316  0.00  0.00    +0.000 A 
ENDBRANCH  10  11
ENDBRANCH   1  10
TORSDOF 2
ENDMDL
MODEL 6
REMARK VINA RESULT:    -4.718     16.775     17.260
REMARK INTER + INTRA:          -5.406
REMARK INTER:                  -5.295
REMARK INTRA:                  -0.110
REMARK UNBOUND:                -0.136
REMARK  Name = 1550473
REMARK  2 active torsions:
REMARK  status: ('A' for Active; 'I' for Inactive)
REMARK    1  A    between atoms: N_1  and  C_4
REMARK    2  A    between atoms: C_4  and  C_5
REMARK                            x       y       z     vdW  Elec       q    Type
REMARK                         _______ _______ _______ _____ _____    ______ ____
ROOT
ATOM      1  N   UNL     1       0.563  -2.579 -13.479  0.00  0.00    -0.354 N 
ATOM      2  N   UNL     1      -1.170  -2.251 -11.978  0.00  0.00    -0.372 N 
ATOM      3  N   UNL     1      -1.504  -1.732 -14.188  0.00  0.00    -0.372 N 
ATOM      4  C   UNL     1      -0.693  -2.188 -13.227  0.00  0.00    +0.166 C 
ATOM      5  H   UNL     1       1.136  -2.886 -12.702  0.00  0.00    +0.163 HD
ATOM      6  H   UNL     1      -2.115  -1.967 -11.759  0.00  0.00    +0.159 HD
ATOM      7  H   UNL     1      -0.610  -2.603 -11.211  0.00  0.00    +0.159 HD
ATOM      8  H   UNL     1      -1.202  -1.654 -15.151  0.00  0.00    +0.159 HD
ATOM      9  H   UNL     1      -2.449  -1.432 -13.986  0.00  0.00    +0.159 HD
ENDROOT
BRANCH   1  10
ATOM     10  C   UNL     1       1.161  -2.601 -14.813  0.00  0.00    +0.151 C 
BRANCH  10  11
ATOM     11  C   UNL     1       2.655  -2.705 -14.680  0.00  0.00    -0.028 A 
ATOM     12  C   UNL     1       3.365  -1.792 -13.886  0.00  0.00    +0.005 A 
ATOM     13  C   UNL     1       3.367  -3.719 -15.340  0.00  0.00    +0.005 A 
ATOM     14  C   UNL     1       4.750  -1.907 -13.738  0.00  0.00    +0.000 A 
ATOM     15  C   UNL     1       4.749  -3.829 -15.190  0.00  0.00    +0.000 A 
ATOM     16  C   UNL     1       5.440  -2.925 -14.387  0.00  0.00    +0.000 A 
ENDBRANCH  10  11
ENDBRANCH   1  10
TORSDOF 2
ENDMDL
MODEL 7
REMARK VINA RESULT:    -4.672     19.231     20.444
REMARK INTER + INTRA:          -5.354
REMARK INTER:                  -5.219
REMARK INTRA:                  -0.135
REMARK UNBOUND:                -0.136
REMARK  Name = 1550473
REMARK  2 active torsions:
REMARK  status: ('A' for Active; 'I' for Inactive)
REMARK    1  A    between atoms: N_1  and  C_4
REMARK    2  A    between atoms: C_4  and  C_5
REMARK                            x       y       z     vdW  Elec       q    Type
REMARK                         _______ _______ _______ _____ _____    ______ ____
ROOT
ATOM      1  N   UNL     1       3.940 -21.343   4.397  0.00  0.00    -0.354 N 
ATOM      2  N   UNL     1       2.478 -23.139   4.377  0.00  0.00    -0.372 N 
ATOM      3  N   UNL     1       2.771 -21.970   6.329  0.00  0.00    -0.372 N 
ATOM      4  C   UNL     1       3.072 -22.138   5.037  0.00  0.00    +0.166 C 
ATOM      5  H   UNL     1       4.149 -21.542   3.425  0.00  0.00    +0.163 HD
ATOM      6  H   UNL     1       1.816 -23.753   4.832  0.00  0.00    +0.159 HD
ATOM      7  H   UNL     1       2.653 -23.307   3.394  0.00  0.00    +0.159 HD
ATOM      8  H   UNL     1       3.190 -21.236   6.885  0.00  0.00    +0.159 HD
ATOM      9  H   UNL     1       2.120 -22.581   6.806  0.00  0.00    +0.159 HD
ENDROOT
BRANCH   1  10
ATOM     10  C   UNL     1       4.601 -20.192   5.011  0.00  0.00    +0.151 C 
BRANCH  10  11
ATOM     11  C   UNL     1       6.087 -20.323   4.825  0.00  0.00    -0.028 A 
ATOM     12  C   UNL     1       6.614 -20.817   3.623  0.00  0.00    +0.005 A 
ATOM     13  C   UNL     1       6.975 -19.949   5.846  0.00  0.00    +0.005 A 
ATOM     14  C   UNL     1       7.996 -20.911   3.438  0.00  0.00    +0.000 A 
ATOM     15  C   UNL     1       8.354 -20.045   5.658  0.00  0.00    +0.000 A 
ATOM     16  C   UNL     1       8.864 -20.523   4.454  0.00  0.00    +0.000 A 
ENDBRANCH  10  11
ENDBRANCH   1  10
TORSDOF 2
ENDMDL
MODEL 8
REMARK VINA RESULT:    -4.606     32.822     34.336
REMARK INTER + INTRA:          -5.281
REMARK INTER:                  -5.130
REMARK INTRA:                  -0.151
REMARK UNBOUND:                -0.136
REMARK  Name = 1550473
REMARK  2 active torsions:
REMARK  status: ('A' for Active; 'I' for Inactive)
REMARK    1  A    between atoms: N_1  and  C_4
REMARK    2  A    between atoms: C_4  and  C_5
REMARK                            x       y       z     vdW  Elec       q    Type
REMARK                         _______ _______ _______ _____ _____    ______ ____
ROOT
ATOM      1  N   UNL     1       1.206  21.532  -2.991  0.00  0.00    -0.354 N 
ATOM      2  N   UNL     1       2.098  20.588  -4.909  0.00  0.00    -0.372 N 
ATOM      3  N   UNL     1       1.009  19.235  -3.409  0.00  0.00    -0.372 N 
ATOM      4  C   UNL     1       1.431  20.455  -3.756  0.00  0.00    +0.166 C 
ATOM      5  H   UNL     1       1.579  22.425  -3.295  0.00  0.00    +0.163 HD
ATOM      6  H   UNL     1       2.280  19.794  -5.508  0.00  0.00    +0.159 HD
ATOM      7  H   UNL     1       2.429  21.489  -5.232  0.00  0.00    +0.159 HD
ATOM      8  H   UNL     1       0.505  19.067  -2.549  0.00  0.00    +0.159 HD
ATOM      9  H   UNL     1       1.192  18.426  -3.990  0.00  0.00    +0.159 HD
ENDROOT
BRANCH   1  10
ATOM     10  C   UNL     1       0.444  21.505  -1.744  0.00  0.00    +0.151 C 
BRANCH  10  11
ATOM     11  C   UNL     1       1.377  21.756  -0.592  0.00  0.00    -0.028 A 
ATOM     12  C   UNL     1       1.269  22.930   0.169  0.00  0.00    +0.005 A 
ATOM     13  C   UNL     1       2.368  20.823  -0.252  0.00  0.00    +0.005 A 
ATOM     14  C   UNL     1       2.116  23.150   1.258  0.00  0.00    +0.000 A 
ATOM     15  C   UNL     1       3.213  21.047   0.835  0.00  0.00    +0.000 A 
ATOM     16  C   UNL     1       3.085  22.210   1.591  0.00  0.00    +0.000 A 
ENDBRANCH  10  11
ENDBRANCH   1  10
TORSDOF 2
ENDMDL
MODEL 9
REMARK VINA RESULT:    -4.575     32.681     34.057
REMARK INTER + INTRA:          -5.246
REMARK INTER:                  -5.100
REMARK INTRA:                  -0.146
REMARK UNBOUND:                -0.136
REMARK  Name = 1550473
REMARK  2 active torsions:
REMARK  status: ('A' for Active; 'I' for Inactive)
REMARK    1  A    between atoms: N_1  and  C_4
REMARK    2  A    between atoms: C_4  and  C_5
REMARK                            x       y       z     vdW  Elec       q    Type
REMARK                         _______ _______ _______ _____ _____    ______ ____
ROOT
ATOM      1  N   UNL     1       3.125  21.809  -5.995  0.00  0.00    -0.354 N 
ATOM      2  N   UNL     1       2.255  23.410  -7.425  0.00  0.00    -0.372 N 
ATOM      3  N   UNL     1       1.306  21.321  -7.390  0.00  0.00    -0.372 N 
ATOM      4  C   UNL     1       2.233  22.167  -6.928  0.00  0.00    +0.166 C 
ATOM      5  H   UNL     1       3.820  22.488  -5.708  0.00  0.00    +0.163 HD
ATOM      6  H   UNL     1       1.592  23.710  -8.127  0.00  0.00    +0.159 HD
ATOM      7  H   UNL     1       2.922  24.101  -7.103  0.00  0.00    +0.159 HD
ATOM      8  H   UNL     1       1.240  20.367  -7.060  0.00  0.00    +0.159 HD
ATOM      9  H   UNL     1       0.642  21.599  -8.101  0.00  0.00    +0.159 HD
ENDROOT
BRANCH   1  10
ATOM     10  C   UNL     1       3.152  20.497  -5.350  0.00  0.00    +0.151 C 
BRANCH  10  11
ATOM     11  C   UNL     1       2.405  20.574  -4.048  0.00  0.00    -0.028 A 
ATOM     12  C   UNL     1       2.403  21.759  -3.296  0.00  0.00    +0.005 A 
ATOM     13  C   UNL     1       1.691  19.468  -3.562  0.00  0.00    +0.005 A 
ATOM     14  C   UNL     1       1.685  21.840  -2.101  0.00  0.00    +0.000 A 
ATOM     15  C   UNL     1       0.975  19.553  -2.367  0.00  0.00    +0.000 A 
ATOM     16  C   UNL     1       0.970  20.740  -1.639  0.00  0.00    +0.000 A 
ENDBRANCH  10  11
ENDBRANCH   1  10
TORSDOF 2
ENDMDL
