MODEL 1
REMARK VINA RESULT:    -4.909      0.000      0.000
REMARK INTER + INTRA:          -5.657
REMARK INTER:                  -5.483
REMARK INTRA:                  -0.173
REMARK UNBOUND:                -0.173
REMARK  Name = 1550473
REMARK  2 active torsions:
REMARK  status: ('A' for Active; 'I' for Inactive)
REMARK    1  A    between atoms: N_1  and  C_4
REMARK    2  A    between atoms: C_4  and  C_5
REMARK                            x       y       z     vdW  Elec       q    Type
REMARK                         _______ _______ _______ _____ _____    ______ ____
ROOT
ATOM      1  N   UNL     1      -5.684  -6.128 -12.904  0.00  0.00    -0.354 N 
ATOM      2  N   UNL     1      -3.587  -5.145 -12.878  0.00  0.00    -0.372 N 
ATOM      3  N   UNL     1      -3.820  -7.283 -12.078  0.00  0.00    -0.372 N 
ATOM      4  C   UNL     1      -4.376  -6.194 -12.619  0.00  0.00    +0.166 C 
ATOM      5  H   UNL     1      -6.050  -5.263 -13.285  0.00  0.00    +0.163 HD
ATOM      6  H   UNL     1      -2.596  -5.167 -12.677  0.00  0.00    +0.159 HD
ATOM      7  H   UNL     1      -3.947  -4.299 -13.302  0.00  0.00    +0.159 HD
ATOM      8  H   UNL     1      -4.362  -8.106 -11.853  0.00  0.00    +0.159 HD
ATOM      9  H   UNL     1      -2.832  -7.320 -11.858  0.00  0.00    +0.159 HD
ENDROOT
BRANCH   1  10
ATOM     10  C   UNL     1      -6.620  -7.233 -12.711  0.00  0.00    +0.151 C 
BRANCH  10  11
ATOM     11  C   UNL     1      -6.710  -8.029 -13.983  0.00  0.00    -0.028 A 
ATOM     12  C   UNL     1      -7.131  -7.422 -15.175  0.00  0.00    +0.005 A 
ATOM     13  C   UNL     1      -6.369  -9.391 -14.005  0.00  0.00    +0.005 A 
ATOM     14  C   UNL     1      -7.186  -8.154 -16.364  0.00  0.00    +0.000 A 
ATOM     15  C   UNL     1      -6.426 -10.118 -15.194  0.00  0.00    +0.000 A 
ATOM     16  C   UNL     1      -6.832  -9.499 -16.373  0.00  0.00    +0.000 A 
ENDBRANCH  10  11
ENDBRANCH   1  10
TORSDOF 2
ENDMDL
MODEL 2
REMARK VINA RESULT:    -4.851      2.304      3.509
REMARK INTER + INTRA:          -5.591
REMARK INTER:                  -5.420
REMARK INTRA:                  -0.171
REMARK UNBOUND:                -0.173
REMARK  Name = 1550473
REMARK  2 active torsions:
REMARK  status: ('A' for Active; 'I' for Inactive)
REMARK    1  A    between atoms: N_1  and  C_4
REMARK    2  A    between atoms: C_4  and  C_5
REMARK                            x       y       z     vdW  Elec       q    Type
REMARK                         _______ _______ _______ _____ _____    ______ ____
ROOT
ATOM      1  N   UNL     1      -3.797  -7.425 -12.420  0.00  0.00    -0.354 N 
ATOM      2  N   UNL     1      -3.621  -5.117 -12.472  0.00  0.00    -0.372 N 
ATOM      3  N   UNL     1      -4.987  -6.160 -13.992  0.00  0.00    -0.372 N 
ATOM      4  C   UNL     1      -4.138  -6.250 -12.963  0.00  0.00    +0.166 C 
ATOM      5  H   UNL     1      -3.124  -7.428 -11.661  0.00  0.00    +0.163 HD
ATOM      6  H   UNL     1      -3.863  -4.214 -12.859  0.00  0.00    +0.159 HD
ATOM      7  H   UNL     1      -2.985  -5.119 -11.684  0.00  0.00    +0.159 HD
ATOM      8  H   UNL     1      -5.407  -6.978 -14.413  0.00  0.00    +0.159 HD
ATOM      9  H   UNL     1      -5.232  -5.267 -14.401  0.00  0.00    +0.159 HD
ENDROOT
BRANCH   1  10
ATOM     10  C   UNL     1      -4.344  -8.712 -12.845  0.00  0.00    +0.151 C 
BRANCH  10  11
ATOM     11  C   UNL     1      -5.554  -9.031 -12.012  0.00  0.00    -0.028 A 
ATOM     12  C   UNL     1      -6.812  -9.188 -12.614  0.00  0.00    +0.005 A 
ATOM     13  C   UNL     1      -5.450  -9.184 -10.621  0.00  0.00    +0.005 A 
ATOM     14  C   UNL     1      -7.931  -9.514 -11.844  0.00  0.00    +0.000 A 
ATOM     15  C   UNL     1      -6.570  -9.508  -9.856  0.00  0.00    +0.000 A 
ATOM     16  C   UNL     1      -7.809  -9.676 -10.468  0.00  0.00    +0.000 A 
ENDBRANCH  10  11
ENDBRANCH   1  10
TORSDOF 2
ENDMDL
MODEL 3
REMARK VINA RESULT:    -4.809     16.700     17.932
REMARK INTER + INTRA:          -5.545
REMARK INTER:                  -5.406
REMARK INTRA:                  -0.139
REMARK UNBOUND:                -0.173
REMARK  Name = 1550473
REMARK  2 active torsions:
REMARK  status: ('A' for Active; 'I' for Inactive)
REMARK    1  A    between atoms: N_1  and  C_4
REMARK    2  A    between atoms: C_4  and  C_5
REMARK                            x       y       z     vdW  Elec       q    Type
REMARK                         _______ _______ _______ _____ _____    ______ ____
ROOT
ATOM      1  N   UNL     1      -4.688  -4.836   3.973  0.00  0.00    -0.354 N 
ATOM      2  N   UNL     1      -4.856  -5.538   6.174  0.00  0.00    -0.372 N 
ATOM      3  N   UNL     1      -6.537  -4.252   5.288  0.00  0.00    -0.372 N 
ATOM      4  C   UNL     1      -5.361  -4.869   5.130  0.00  0.00    +0.166 C 
ATOM      5  H   UNL     1      -3.787  -5.299   3.927  0.00  0.00    +0.163 HD
ATOM      6  H   UNL     1      -5.343  -5.584   7.058  0.00  0.00    +0.159 HD
ATOM      7  H   UNL     1      -3.978  -6.039   6.111  0.00  0.00    +0.159 HD
ATOM      8  H   UNL     1      -6.970  -3.725   4.541  0.00  0.00    +0.159 HD
ATOM      9  H   UNL     1      -7.035  -4.276   6.169  0.00  0.00    +0.159 HD
ENDROOT
BRANCH   1  10
ATOM     10  C   UNL     1      -5.176  -4.181   2.761  0.00  0.00    +0.151 C 
BRANCH  10  11
ATOM     11  C   UNL     1      -4.046  -3.421   2.124  0.00  0.00    -0.028 A 
ATOM     12  C   UNL     1      -4.270  -2.633   0.985  0.00  0.00    +0.005 A 
ATOM     13  C   UNL     1      -2.749  -3.479   2.658  0.00  0.00    +0.005 A 
ATOM     14  C   UNL     1      -3.226  -1.903   0.411  0.00  0.00    +0.000 A 
ATOM     15  C   UNL     1      -1.710  -2.748   2.082  0.00  0.00    +0.000 A 
ATOM     16  C   UNL     1      -1.950  -1.959   0.960  0.00  0.00    +0.000 A 
ENDBRANCH  10  11
ENDBRANCH   1  10
TORSDOF 2
ENDMDL
MODEL 4
REMARK VINA RESULT:    -4.793     17.805     18.805
REMARK INTER + INTRA:          -5.526
REMARK INTER:                  -5.387
REMARK INTRA:                  -0.139
REMARK UNBOUND:                -0.173
REMARK  Name = 1550473
REMARK  2 active torsions:
REMARK  status: ('A' for Active; 'I' for Inactive)
REMARK    1  A    between atoms: N_1  and  C_4
REMARK    2  A    between atoms: C_4  and  C_5
REMARK                            x       y       z     vdW  Elec       q    Type
REMARK                         _______ _______ _______ _____ _____    ______ ____
ROOT
ATOM      1  N   UNL     1      -4.853  -4.483   3.384  0.00  0.00    -0.354 N 
ATOM      2  N   UNL     1      -6.932  -4.906   4.313  0.00  0.00    -0.372 N 
ATOM      3  N   UNL     1      -5.051  -5.523   5.475  0.00  0.00    -0.372 N 
ATOM      4  C   UNL     1      -5.597  -4.969   4.387  0.00  0.00    +0.166 C 
ATOM      5  H   UNL     1      -5.328  -4.103   2.573  0.00  0.00    +0.163 HD
ATOM      6  H   UNL     1      -7.519  -5.262   5.056  0.00  0.00    +0.159 HD
ATOM      7  H   UNL     1      -7.403  -4.485   3.522  0.00  0.00    +0.159 HD
ATOM      8  H   UNL     1      -4.050  -5.606   5.588  0.00  0.00    +0.159 HD
ATOM      9  H   UNL     1      -5.622  -5.895   6.223  0.00  0.00    +0.159 HD
ENDROOT
BRANCH   1  10
ATOM     10  C   UNL     1      -3.391  -4.453   3.390  0.00  0.00    +0.151 C 
BRANCH  10  11
ATOM     11  C   UNL     1      -2.928  -3.033   3.221  0.00  0.00    -0.028 A 
ATOM     12  C   UNL     1      -1.952  -2.711   2.266  0.00  0.00    +0.005 A 
ATOM     13  C   UNL     1      -3.464  -2.003   4.009  0.00  0.00    +0.005 A 
ATOM     14  C   UNL     1      -1.543  -1.388   2.087  0.00  0.00    +0.000 A 
ATOM     15  C   UNL     1      -3.052  -0.683   3.828  0.00  0.00    +0.000 A 
ATOM     16  C   UNL     1      -2.094  -0.375   2.866  0.00  0.00    +0.000 A 
ENDBRANCH  10  11
ENDBRANCH   1  10
TORSDOF 2
ENDMDL
MODEL 5
REMARK VINA RESULT:    -4.703      2.237      3.130
REMARK INTER + INTRA:          -5.427
REMARK INTER:                  -5.251
REMARK INTRA:                  -0.175
REMARK UNBOUND:                -0.173
REMARK  Name = 1550473
REMARK  2 active torsions:
REMARK  status: ('A' for Active; 'I' for Inactive)
REMARK    1  A    between atoms: N_1  and  C_4
REMARK    2  A    between atoms: C_4  and  C_5
REMARK                            x       y       z     vdW  Elec       q    Type
REMARK                         _______ _______ _______ _____ _____    ______ ____
ROOT
ATOM      1  N   UNL     1      -6.976  -8.487 -12.110  0.00  0.00    -0.354 N 
ATOM      2  N   UNL     1      -7.673  -9.551 -10.175  0.00  0.00    -0.372 N 
ATOM      3  N   UNL     1      -5.433  -9.505 -10.669  0.00  0.00    -0.372 N 
ATOM      4  C   UNL     1      -6.687  -9.175 -10.997  0.00  0.00    +0.166 C 
ATOM      5  H   UNL     1      -7.949  -8.294 -12.318  0.00  0.00    +0.163 HD
ATOM      6  H   UNL     1      -7.486 -10.068  -9.326  0.00  0.00    +0.159 HD
ATOM      7  H   UNL     1      -8.641  -9.317 -10.361  0.00  0.00    +0.159 HD
ATOM      8  H   UNL     1      -4.644  -9.256 -11.251  0.00  0.00    +0.159 HD
ATOM      9  H   UNL     1      -5.226 -10.032  -9.830  0.00  0.00    +0.159 HD
ENDROOT
BRANCH   1  10
ATOM     10  C   UNL     1      -5.971  -7.984 -13.044  0.00  0.00    +0.151 C 
BRANCH  10  11
ATOM     11  C   UNL     1      -6.033  -8.789 -14.313  0.00  0.00    -0.028 A 
ATOM     12  C   UNL     1      -5.202  -9.905 -14.490  0.00  0.00    +0.005 A 
ATOM     13  C   UNL     1      -6.925  -8.444 -15.340  0.00  0.00    +0.005 A 
ATOM     14  C   UNL     1      -5.280 -10.671 -15.656  0.00  0.00    +0.000 A 
ATOM     15  C   UNL     1      -6.999  -9.211 -16.503  0.00  0.00    +0.000 A 
ATOM     16  C   UNL     1      -6.179 -10.325 -16.659  0.00  0.00    +0.000 A 
ENDBRANCH  10  11
ENDBRANCH   1  10
TORSDOF 2
ENDMDL
MODEL 6
REMARK VINA RESULT:    -4.680      2.282      3.582
REMARK INTER + INTRA:          -5.401
REMARK INTER:                  -5.268
REMARK INTRA:                  -0.133
REMARK UNBOUND:                -0.173
REMARK  Name = 1550473
REMARK  2 active torsions:
REMARK  status: ('A' for Active; 'I' for Inactive)
REMARK    1  A    between atoms: N_1  and  C_4
REMARK    2  A    between atoms: C_4  and  C_5
REMARK                            x       y       z     vdW  Elec       q    Type
REMARK                         _______ _______ _______ _____ _____    ______ ____
ROOT
ATOM      1  N   UNL     1      -3.807  -6.742 -11.343  0.00  0.00    -0.354 N 
ATOM      2  N   UNL     1      -3.197  -4.694 -10.451  0.00  0.00    -0.372 N 
ATOM      3  N   UNL     1      -3.679  -4.829 -12.690  0.00  0.00    -0.372 N 
ATOM      4  C   UNL     1      -3.565  -5.435 -11.503  0.00  0.00    +0.166 C 
ATOM      5  H   UNL     1      -3.673  -7.148 -10.424  0.00  0.00    +0.163 HD
ATOM      6  H   UNL     1      -3.011  -3.704 -10.541  0.00  0.00    +0.159 HD
ATOM      7  H   UNL     1      -3.108  -5.092  -9.524  0.00  0.00    +0.159 HD
ATOM      8  H   UNL     1      -3.948  -5.333 -13.525  0.00  0.00    +0.159 HD
ATOM      9  H   UNL     1      -3.486  -3.842 -12.802  0.00  0.00    +0.159 HD
ENDROOT
BRANCH   1  10
ATOM     10  C   UNL     1      -4.265  -7.626 -12.413  0.00  0.00    +0.151 C 
BRANCH  10  11
ATOM     11  C   UNL     1      -5.454  -8.410 -11.928  0.00  0.00    -0.028 A 
ATOM     12  C   UNL     1      -5.548  -8.801 -10.585  0.00  0.00    +0.005 A 
ATOM     13  C   UNL     1      -6.492  -8.759 -12.806  0.00  0.00    +0.005 A 
ATOM     14  C   UNL     1      -6.666  -9.503 -10.127  0.00  0.00    +0.000 A 
ATOM     15  C   UNL     1      -7.606  -9.460 -12.345  0.00  0.00    +0.000 A 
ATOM     16  C   UNL     1      -7.694  -9.830 -11.005  0.00  0.00    +0.000 A 
ENDBRANCH  10  11
ENDBRANCH   1  10
TORSDOF 2
ENDMDL
MODEL 7
REMARK VINA RESULT:    -4.600     18.204     19.187
REMARK INTER + INTRA:          -5.311
REMARK INTER:                  -5.197
REMARK INTRA:                  -0.114
REMARK UNBOUND:                -0.173
REMARK  Name = 1550473
REMARK  2 active torsions:
REMARK  status: ('A' for Active; 'I' for Inactive)
REMARK    1  A    between atoms: N_1  and  C_4
REMARK    2  A    between atoms: C_4  and  C_5
REMARK                            x       y       z     vdW  Elec       q    Type
REMARK                         _______ _______ _______ _____ _____    ______ ____
ROOT
ATOM      1  N   UNL     1      -3.169  -1.433   3.995  0.00  0.00    -0.354 N 
ATOM      2  N   UNL     1      -1.617   0.276   3.813  0.00  0.00    -0.372 N 
ATOM      3  N   UNL     1      -2.368  -0.748   1.902  0.00  0.00    -0.372 N 
ATOM      4  C   UNL     1      -2.395  -0.647   3.236  0.00  0.00    +0.166 C 
ATOM      5  H   UNL     1      -3.122  -1.326   5.002  0.00  0.00    +0.163 HD
ATOM      6  H   UNL     1      -1.024   0.886   3.266  0.00  0.00    +0.159 HD
ATOM      7  H   UNL     1      -1.606   0.411   4.817  0.00  0.00    +0.159 HD
ATOM      8  H   UNL     1      -2.927  -1.429   1.406  0.00  0.00    +0.159 HD
ATOM      9  H   UNL     1      -1.772  -0.155   1.338  0.00  0.00    +0.159 HD
ENDROOT
BRANCH   1  10
ATOM     10  C   UNL     1      -4.093  -2.432   3.462  0.00  0.00    +0.151 C 
BRANCH  10  11
ATOM     11  C   UNL     1      -3.959  -3.700   4.259  0.00  0.00    -0.028 A 
ATOM     12  C   UNL     1      -4.619  -3.842   5.488  0.00  0.00    +0.005 A 
ATOM     13  C   UNL     1      -3.177  -4.766   3.787  0.00  0.00    +0.005 A 
ATOM     14  C   UNL     1      -4.519  -5.032   6.214  0.00  0.00    +0.000 A 
ATOM     15  C   UNL     1      -3.078  -5.951   4.516  0.00  0.00    +0.000 A 
ATOM     16  C   UNL     1      -3.751  -6.085   5.728  0.00  0.00    +0.000 A 
ENDBRANCH  10  11
ENDBRANCH   1  10
TORSDOF 2
ENDMDL
MODEL 8
REMARK VINA RESULT:    -4.451      1.227      2.114
REMARK INTER + INTRA:          -5.145
REMARK INTER:                  -5.035
REMARK INTRA:                  -0.110
REMARK UNBOUND:                -0.173
REMARK  Name = 1550473
REMARK  2 active torsions:
REMARK  status: ('A' for Active; 'I' for Inactive)
REMARK    1  A    between atoms: N_1  and  C_4
REMARK    2  A    between atoms: C_4  and  C_5
REMARK                            x       y       z     vdW  Elec       q    Type
REMARK                         _______ _______ _______ _____ _____    ______ ____
ROOT
ATOM      1  N   UNL     1      -5.000  -5.800 -13.409  0.00  0.00    -0.354 N 
ATOM      2  N   UNL     1      -3.455  -4.600 -12.169  0.00  0.00    -0.372 N 
ATOM      3  N   UNL     1      -5.360  -3.543 -12.890  0.00  0.00    -0.372 N 
ATOM      4  C   UNL     1      -4.617  -4.653 -12.831  0.00  0.00    +0.166 C 
ATOM      5  H   UNL     1      -4.378  -6.598 -13.354  0.00  0.00    +0.163 HD
ATOM      6  H   UNL     1      -3.141  -3.750 -11.720  0.00  0.00    +0.159 HD
ATOM      7  H   UNL     1      -2.857  -5.412 -12.076  0.00  0.00    +0.159 HD
ATOM      8  H   UNL     1      -6.244  -3.515 -13.380  0.00  0.00    +0.159 HD
ATOM      9  H   UNL     1      -5.057  -2.679 -12.457  0.00  0.00    +0.159 HD
ENDROOT
BRANCH   1  10
ATOM     10  C   UNL     1      -6.272  -5.978 -14.108  0.00  0.00    +0.151 C 
BRANCH  10  11
ATOM     11  C   UNL     1      -6.355  -7.388 -14.624  0.00  0.00    -0.028 A 
ATOM     12  C   UNL     1      -5.943  -8.464 -13.825  0.00  0.00    +0.005 A 
ATOM     13  C   UNL     1      -6.851  -7.655 -15.910  0.00  0.00    +0.005 A 
ATOM     14  C   UNL     1      -6.048  -9.776 -14.293  0.00  0.00    +0.000 A 
ATOM     15  C   UNL     1      -6.954  -8.966 -16.373  0.00  0.00    +0.000 A 
ATOM     16  C   UNL     1      -6.555 -10.027 -15.564  0.00  0.00    +0.000 A 
ENDBRANCH  10  11
ENDBRANCH   1  10
TORSDOF 2
ENDMDL
MODEL 9
REMARK VINA RESULT:    -4.419      8.380     10.059
REMARK INTER + INTRA:          -5.109
REMARK INTER:                  -4.964
REMARK INTRA:                  -0.145
REMARK UNBOUND:                -0.173
REMARK  Name = 1550473
REMARK  2 active torsions:
REMARK  status: ('A' for Active; 'I' for Inactive)
REMARK    1  A    between atoms: N_1  and  C_4
REMARK    2  A    between atoms: C_4  and  C_5
REMARK                            x       y       z     vdW  Elec       q    Type
REMARK                         _______ _______ _______ _____ _____    ______ ____
ROOT
ATOM      1  N   UNL     1     -14.388  -5.717 -18.552  0.00  0.00    -0.354 N 
ATOM      2  N   UNL     1     -15.863  -7.041 -17.354  0.00  0.00    -0.372 N 
ATOM      3  N   UNL     1     -16.441  -4.867 -17.809  0.00  0.00    -0.372 N 
ATOM      4  C   UNL     1     -15.556  -5.864 -17.913  0.00  0.00    +0.166 C 
ATOM      5  H   UNL     1     -13.747  -6.502 -18.570  0.00  0.00    +0.163 HD
ATOM      6  H   UNL     1     -16.739  -7.182 -16.868  0.00  0.00    +0.159 HD
ATOM      7  H   UNL     1     -15.241  -7.837 -17.413  0.00  0.00    +0.159 HD
ATOM      8  H   UNL     1     -16.266  -3.952 -18.203  0.00  0.00    +0.159 HD
ATOM      9  H   UNL     1     -17.317  -4.986 -17.316  0.00  0.00    +0.159 HD
ENDROOT
BRANCH   1  10
ATOM     10  C   UNL     1     -13.980  -4.494 -19.241  0.00  0.00    +0.151 C 
BRANCH  10  11
ATOM     11  C   UNL     1     -12.614  -4.091 -18.759  0.00  0.00    -0.028 A 
ATOM     12  C   UNL     1     -11.907  -4.904 -17.861  0.00  0.00    +0.005 A 
ATOM     13  C   UNL     1     -12.018  -2.900 -19.202  0.00  0.00    +0.005 A 
ATOM     14  C   UNL     1     -10.626  -4.545 -17.436  0.00  0.00    +0.000 A 
ATOM     15  C   UNL     1     -10.738  -2.545 -18.775  0.00  0.00    +0.000 A 
ATOM     16  C   UNL     1     -10.041  -3.369 -17.894  0.00  0.00    +0.000 A 
ENDBRANCH  10  11
ENDBRANCH   1  10
TORSDOF 2
ENDMDL
