MODEL 1
REMARK VINA RESULT:    -5.550      0.000      0.000
REMARK INTER + INTRA:          -6.340
REMARK INTER:                  -6.199
REMARK INTRA:                  -0.141
REMARK UNBOUND:                -0.141
REMARK  Name = 1550473
REMARK  2 active torsions:
REMARK  status: ('A' for Active; 'I' for Inactive)
REMARK    1  A    between atoms: N_1  and  C_4
REMARK    2  A    between atoms: C_4  and  C_5
REMARK                            x       y       z     vdW  Elec       q    Type
REMARK                         _______ _______ _______ _____ _____    ______ ____
ROOT
ATOM      1  N   UNL     1       0.306  -6.247  -8.722  0.00  0.00    -0.354 N 
ATOM      2  N   UNL     1       0.820  -4.443  -7.363  0.00  0.00    -0.372 N 
ATOM      3  N   UNL     1       2.188  -6.285  -7.326  0.00  0.00    -0.372 N 
ATOM      4  C   UNL     1       1.103  -5.672  -7.812  0.00  0.00    +0.166 C 
ATOM      5  H   UNL     1      -0.518  -5.742  -9.028  0.00  0.00    +0.163 HD
ATOM      6  H   UNL     1       1.405  -3.982  -6.679  0.00  0.00    +0.159 HD
ATOM      7  H   UNL     1       0.021  -3.922  -7.705  0.00  0.00    +0.159 HD
ATOM      8  H   UNL     1       2.454  -7.215  -7.620  0.00  0.00    +0.159 HD
ATOM      9  H   UNL     1       2.780  -5.845  -6.632  0.00  0.00    +0.159 HD
ENDROOT
BRANCH   1  10
ATOM     10  C   UNL     1       0.556  -7.560  -9.315  0.00  0.00    +0.151 C 
BRANCH  10  11
ATOM     11  C   UNL     1      -0.639  -8.441  -9.078  0.00  0.00    -0.028 A 
ATOM     12  C   UNL     1      -1.156  -9.233 -10.114  0.00  0.00    +0.005 A 
ATOM     13  C   UNL     1      -1.257  -8.492  -7.819  0.00  0.00    +0.005 A 
ATOM     14  C   UNL     1      -2.248 -10.075  -9.887  0.00  0.00    +0.000 A 
ATOM     15  C   UNL     1      -2.347  -9.333  -7.596  0.00  0.00    +0.000 A 
ATOM     16  C   UNL     1      -2.841 -10.126  -8.630  0.00  0.00    +0.000 A 
ENDBRANCH  10  11
ENDBRANCH   1  10
TORSDOF 2
ENDMDL
MODEL 2
REMARK VINA RESULT:    -5.462      3.724      4.935
REMARK INTER + INTRA:          -6.242
REMARK INTER:                  -6.101
REMARK INTRA:                  -0.140
REMARK UNBOUND:                -0.141
REMARK  Name = 1550473
REMARK  2 active torsions:
REMARK  status: ('A' for Active; 'I' for Inactive)
REMARK    1  A    between atoms: N_1  and  C_4
REMARK    2  A    between atoms: C_4  and  C_5
REMARK                            x       y       z     vdW  Elec       q    Type
REMARK                         _______ _______ _______ _____ _____    ______ ____
ROOT
ATOM      1  N   UNL     1      -1.657  -2.723  -6.224  0.00  0.00    -0.354 N 
ATOM      2  N   UNL     1      -2.509  -0.765  -7.123  0.00  0.00    -0.372 N 
ATOM      3  N   UNL     1      -3.663  -1.804  -5.433  0.00  0.00    -0.372 N 
ATOM      4  C   UNL     1      -2.606  -1.778  -6.253  0.00  0.00    +0.166 C 
ATOM      5  H   UNL     1      -0.897  -2.661  -6.892  0.00  0.00    +0.163 HD
ATOM      6  H   UNL     1      -3.208  -0.036  -7.165  0.00  0.00    +0.159 HD
ATOM      7  H   UNL     1      -1.725  -0.682  -7.758  0.00  0.00    +0.159 HD
ATOM      8  H   UNL     1      -3.798  -2.545  -4.758  0.00  0.00    +0.159 HD
ATOM      9  H   UNL     1      -4.379  -1.090  -5.468  0.00  0.00    +0.159 HD
ENDROOT
BRANCH   1  10
ATOM     10  C   UNL     1      -1.641  -3.837  -5.279  0.00  0.00    +0.151 C 
BRANCH  10  11
ATOM     11  C   UNL     1      -1.345  -5.109  -6.024  0.00  0.00    -0.028 A 
ATOM     12  C   UNL     1      -1.738  -5.259  -7.362  0.00  0.00    +0.005 A 
ATOM     13  C   UNL     1      -0.667  -6.167  -5.400  0.00  0.00    +0.005 A 
ATOM     14  C   UNL     1      -1.437  -6.428  -8.064  0.00  0.00    +0.000 A 
ATOM     15  C   UNL     1      -0.368  -7.334  -6.104  0.00  0.00    +0.000 A 
ATOM     16  C   UNL     1      -0.751  -7.463  -7.437  0.00  0.00    +0.000 A 
ENDBRANCH  10  11
ENDBRANCH   1  10
TORSDOF 2
ENDMDL
MODEL 3
REMARK VINA RESULT:    -5.328     21.392     22.252
REMARK INTER + INTRA:          -6.092
REMARK INTER:                  -5.998
REMARK INTRA:                  -0.095
REMARK UNBOUND:                -0.141
REMARK  Name = 1550473
REMARK  2 active torsions:
REMARK  status: ('A' for Active; 'I' for Inactive)
REMARK    1  A    between atoms: N_1  and  C_4
REMARK    2  A    between atoms: C_4  and  C_5
REMARK                            x       y       z     vdW  Elec       q    Type
REMARK                         _______ _______ _______ _____ _____    ______ ____
ROOT
ATOM      1  N   UNL     1       4.598  -8.979  12.755  0.00  0.00    -0.354 N 
ATOM      2  N   UNL     1       2.415  -9.703  13.029  0.00  0.00    -0.372 N 
ATOM      3  N   UNL     1       3.117  -7.839  14.169  0.00  0.00    -0.372 N 
ATOM      4  C   UNL     1       3.391  -8.833  13.318  0.00  0.00    +0.166 C 
ATOM      5  H   UNL     1       4.751  -9.771  12.141  0.00  0.00    +0.163 HD
ATOM      6  H   UNL     1       1.493  -9.616  13.435  0.00  0.00    +0.159 HD
ATOM      7  H   UNL     1       2.557 -10.467  12.380  0.00  0.00    +0.159 HD
ATOM      8  H   UNL     1       3.812  -7.154  14.433  0.00  0.00    +0.159 HD
ATOM      9  H   UNL     1       2.204  -7.743  14.595  0.00  0.00    +0.159 HD
ENDROOT
BRANCH   1  10
ATOM     10  C   UNL     1       5.713  -8.057  12.961  0.00  0.00    +0.151 C 
BRANCH  10  11
ATOM     11  C   UNL     1       6.895  -8.527  12.158  0.00  0.00    -0.028 A 
ATOM     12  C   UNL     1       7.347  -7.785  11.057  0.00  0.00    +0.005 A 
ATOM     13  C   UNL     1       7.569  -9.710  12.497  0.00  0.00    +0.005 A 
ATOM     14  C   UNL     1       8.463  -8.206  10.329  0.00  0.00    +0.000 A 
ATOM     15  C   UNL     1       8.683 -10.126  11.767  0.00  0.00    +0.000 A 
ATOM     16  C   UNL     1       9.130  -9.373  10.685  0.00  0.00    +0.000 A 
ENDBRANCH  10  11
ENDBRANCH   1  10
TORSDOF 2
ENDMDL
MODEL 4
REMARK VINA RESULT:    -5.318     21.507     22.429
REMARK INTER + INTRA:          -6.080
REMARK INTER:                  -5.987
REMARK INTRA:                  -0.094
REMARK UNBOUND:                -0.141
REMARK  Name = 1550473
REMARK  2 active torsions:
REMARK  status: ('A' for Active; 'I' for Inactive)
REMARK    1  A    between atoms: N_1  and  C_4
REMARK    2  A    between atoms: C_4  and  C_5
REMARK                            x       y       z     vdW  Elec       q    Type
REMARK                         _______ _______ _______ _____ _____    ______ ____
ROOT
ATOM      1  N   UNL     1       4.558  -9.018  13.074  0.00  0.00    -0.354 N 
ATOM      2  N   UNL     1       2.311  -9.569  13.186  0.00  0.00    -0.372 N 
ATOM      3  N   UNL     1       3.059  -7.725  14.328  0.00  0.00    -0.372 N 
ATOM      4  C   UNL     1       3.324  -8.765  13.531  0.00  0.00    +0.166 C 
ATOM      5  H   UNL     1       4.699  -9.840  12.498  0.00  0.00    +0.163 HD
ATOM      6  H   UNL     1       1.369  -9.401  13.512  0.00  0.00    +0.159 HD
ATOM      7  H   UNL     1       2.446 -10.363  12.572  0.00  0.00    +0.159 HD
ATOM      8  H   UNL     1       3.781  -7.084  14.630  0.00  0.00    +0.159 HD
ATOM      9  H   UNL     1       2.124  -7.547  14.674  0.00  0.00    +0.159 HD
ENDROOT
BRANCH   1  10
ATOM     10  C   UNL     1       5.720  -8.174  13.347  0.00  0.00    +0.151 C 
BRANCH  10  11
ATOM     11  C   UNL     1       6.851  -8.589  12.447  0.00  0.00    -0.028 A 
ATOM     12  C   UNL     1       7.547  -9.783  12.683  0.00  0.00    +0.005 A 
ATOM     13  C   UNL     1       7.227  -7.795  11.352  0.00  0.00    +0.005 A 
ATOM     14  C   UNL     1       8.578 -10.185  11.830  0.00  0.00    +0.000 A 
ATOM     15  C   UNL     1       8.258  -8.199  10.503  0.00  0.00    +0.000 A 
ATOM     16  C   UNL     1       8.931  -9.395  10.741  0.00  0.00    +0.000 A 
ENDBRANCH  10  11
ENDBRANCH   1  10
TORSDOF 2
ENDMDL
MODEL 5
REMARK VINA RESULT:    -5.211     18.935     20.424
REMARK INTER + INTRA:          -5.961
REMARK INTER:                  -5.865
REMARK INTRA:                  -0.096
REMARK UNBOUND:                -0.141
REMARK  Name = 1550473
REMARK  2 active torsions:
REMARK  status: ('A' for Active; 'I' for Inactive)
REMARK    1  A    between atoms: N_1  and  C_4
REMARK    2  A    between atoms: C_4  and  C_5
REMARK                            x       y       z     vdW  Elec       q    Type
REMARK                         _______ _______ _______ _____ _____    ______ ____
ROOT
ATOM      1  N   UNL     1       9.477  -9.418   7.600  0.00  0.00    -0.354 N 
ATOM      2  N   UNL     1       9.216  -9.769   5.326  0.00  0.00    -0.372 N 
ATOM      3  N   UNL     1      10.833  -8.308   6.044  0.00  0.00    -0.372 N 
ATOM      4  C   UNL     1       9.846  -9.161   6.338  0.00  0.00    +0.166 C 
ATOM      5  H   UNL     1       8.701 -10.051   7.755  0.00  0.00    +0.163 HD
ATOM      6  H   UNL     1       9.474  -9.597   4.363  0.00  0.00    +0.159 HD
ATOM      7  H   UNL     1       8.471 -10.436   5.485  0.00  0.00    +0.159 HD
ATOM      8  H   UNL     1      11.345  -7.813   6.762  0.00  0.00    +0.159 HD
ATOM      9  H   UNL     1      11.099  -8.115   5.086  0.00  0.00    +0.159 HD
ENDROOT
BRANCH   1  10
ATOM     10  C   UNL     1      10.135  -8.850   8.775  0.00  0.00    +0.151 C 
BRANCH  10  11
ATOM     11  C   UNL     1       9.188  -8.907   9.943  0.00  0.00    -0.028 A 
ATOM     12  C   UNL     1       9.201 -10.005  10.816  0.00  0.00    +0.005 A 
ATOM     13  C   UNL     1       8.281  -7.864  10.185  0.00  0.00    +0.005 A 
ATOM     14  C   UNL     1       8.343 -10.045  11.917  0.00  0.00    +0.000 A 
ATOM     15  C   UNL     1       7.426  -7.908  11.286  0.00  0.00    +0.000 A 
ATOM     16  C   UNL     1       7.458  -8.998  12.153  0.00  0.00    +0.000 A 
ENDBRANCH  10  11
ENDBRANCH   1  10
TORSDOF 2
ENDMDL
MODEL 6
REMARK VINA RESULT:    -5.100      1.820      2.555
REMARK INTER + INTRA:          -5.838
REMARK INTER:                  -5.716
REMARK INTRA:                  -0.122
REMARK UNBOUND:                -0.141
REMARK  Name = 1550473
REMARK  2 active torsions:
REMARK  status: ('A' for Active; 'I' for Inactive)
REMARK    1  A    between atoms: N_1  and  C_4
REMARK    2  A    between atoms: C_4  and  C_5
REMARK                            x       y       z     vdW  Elec       q    Type
REMARK                         _______ _______ _______ _____ _____    ______ ____
ROOT
ATOM      1  N   UNL     1      -1.090  -5.716  -8.159  0.00  0.00    -0.354 N 
ATOM      2  N   UNL     1      -0.068  -3.927  -7.101  0.00  0.00    -0.372 N 
ATOM      3  N   UNL     1      -2.048  -4.728  -6.262  0.00  0.00    -0.372 N 
ATOM      4  C   UNL     1      -1.078  -4.802  -7.179  0.00  0.00    +0.166 C 
ATOM      5  H   UNL     1      -0.341  -5.701  -8.841  0.00  0.00    +0.163 HD
ATOM      6  H   UNL     1      -0.030  -3.228  -6.372  0.00  0.00    +0.159 HD
ATOM      7  H   UNL     1       0.703  -3.944  -7.757  0.00  0.00    +0.159 HD
ATOM      8  H   UNL     1      -2.841  -5.355  -6.269  0.00  0.00    +0.159 HD
ATOM      9  H   UNL     1      -2.034  -4.028  -5.531  0.00  0.00    +0.159 HD
ENDROOT
BRANCH   1  10
ATOM     10  C   UNL     1      -2.116  -6.749  -8.301  0.00  0.00    +0.151 C 
BRANCH  10  11
ATOM     11  C   UNL     1      -1.602  -7.829  -9.212  0.00  0.00    -0.028 A 
ATOM     12  C   UNL     1      -2.489  -8.577 -10.001  0.00  0.00    +0.005 A 
ATOM     13  C   UNL     1      -0.229  -8.106  -9.296  0.00  0.00    +0.005 A 
ATOM     14  C   UNL     1      -2.010  -9.560 -10.870  0.00  0.00    +0.000 A 
ATOM     15  C   UNL     1       0.246  -9.089 -10.165  0.00  0.00    +0.000 A 
ATOM     16  C   UNL     1      -0.645  -9.814 -10.953  0.00  0.00    +0.000 A 
ENDBRANCH  10  11
ENDBRANCH   1  10
TORSDOF 2
ENDMDL
MODEL 7
REMARK VINA RESULT:    -5.019      0.983      2.059
REMARK INTER + INTRA:          -5.746
REMARK INTER:                  -5.604
REMARK INTRA:                  -0.143
REMARK UNBOUND:                -0.141
REMARK  Name = 1550473
REMARK  2 active torsions:
REMARK  status: ('A' for Active; 'I' for Inactive)
REMARK    1  A    between atoms: N_1  and  C_4
REMARK    2  A    between atoms: C_4  and  C_5
REMARK                            x       y       z     vdW  Elec       q    Type
REMARK                         _______ _______ _______ _____ _____    ______ ____
ROOT
ATOM      1  N   UNL     1       0.462  -6.731  -7.210  0.00  0.00    -0.354 N 
ATOM      2  N   UNL     1       1.519  -4.724  -7.678  0.00  0.00    -0.372 N 
ATOM      3  N   UNL     1      -0.392  -4.702  -6.408  0.00  0.00    -0.372 N 
ATOM      4  C   UNL     1       0.520  -5.398  -7.094  0.00  0.00    +0.166 C 
ATOM      5  H   UNL     1       1.168  -7.197  -7.769  0.00  0.00    +0.163 HD
ATOM      6  H   UNL     1       1.591  -3.718  -7.606  0.00  0.00    +0.159 HD
ATOM      7  H   UNL     1       2.248  -5.197  -8.198  0.00  0.00    +0.159 HD
ATOM      8  H   UNL     1      -1.173  -5.150  -5.949  0.00  0.00    +0.159 HD
ATOM      9  H   UNL     1      -0.344  -3.693  -6.334  0.00  0.00    +0.159 HD
ENDROOT
BRANCH   1  10
ATOM     10  C   UNL     1      -0.553  -7.564  -6.568  0.00  0.00    +0.151 C 
BRANCH  10  11
ATOM     11  C   UNL     1      -1.184  -8.455  -7.602  0.00  0.00    -0.028 A 
ATOM     12  C   UNL     1      -2.412  -9.082  -7.348  0.00  0.00    +0.005 A 
ATOM     13  C   UNL     1      -0.561  -8.671  -8.841  0.00  0.00    +0.005 A 
ATOM     14  C   UNL     1      -3.013  -9.885  -8.320  0.00  0.00    +0.000 A 
ATOM     15  C   UNL     1      -1.163  -9.475  -9.808  0.00  0.00    +0.000 A 
ATOM     16  C   UNL     1      -2.391 -10.079  -9.549  0.00  0.00    +0.000 A 
ENDBRANCH  10  11
ENDBRANCH   1  10
TORSDOF 2
ENDMDL
MODEL 8
REMARK VINA RESULT:    -4.717     20.996     22.208
REMARK INTER + INTRA:          -5.409
REMARK INTER:                  -5.294
REMARK INTRA:                  -0.115
REMARK UNBOUND:                -0.141
REMARK  Name = 1550473
REMARK  2 active torsions:
REMARK  status: ('A' for Active; 'I' for Inactive)
REMARK    1  A    between atoms: N_1  and  C_4
REMARK    2  A    between atoms: C_4  and  C_5
REMARK                            x       y       z     vdW  Elec       q    Type
REMARK                         _______ _______ _______ _____ _____    ______ ____
ROOT
ATOM      1  N   UNL     1       6.883  -9.166  11.531  0.00  0.00    -0.354 N 
ATOM      2  N   UNL     1       9.095  -9.777  11.225  0.00  0.00    -0.372 N 
ATOM      3  N   UNL     1       8.299  -7.918  10.142  0.00  0.00    -0.372 N 
ATOM      4  C   UNL     1       8.078  -8.948  10.966  0.00  0.00    +0.166 C 
ATOM      5  H   UNL     1       6.772  -9.981  12.123  0.00  0.00    +0.163 HD
ATOM      6  H   UNL     1      10.009  -9.636  10.816  0.00  0.00    +0.159 HD
ATOM      7  H   UNL     1       8.994 -10.565  11.853  0.00  0.00    +0.159 HD
ATOM      8  H   UNL     1       7.570  -7.259   9.901  0.00  0.00    +0.159 HD
ATOM      9  H   UNL     1       9.203  -7.767   9.713  0.00  0.00    +0.159 HD
ENDROOT
BRANCH   1  10
ATOM     10  C   UNL     1       5.724  -8.292  11.357  0.00  0.00    +0.151 C 
BRANCH  10  11
ATOM     11  C   UNL     1       4.893  -8.322  12.610  0.00  0.00    -0.028 A 
ATOM     12  C   UNL     1       5.416  -7.852  13.823  0.00  0.00    +0.005 A 
ATOM     13  C   UNL     1       3.579  -8.816  12.589  0.00  0.00    +0.005 A 
ATOM     14  C   UNL     1       4.635  -7.853  14.981  0.00  0.00    +0.000 A 
ATOM     15  C   UNL     1       2.802  -8.815  13.748  0.00  0.00    +0.000 A 
ATOM     16  C   UNL     1       3.329  -8.331  14.943  0.00  0.00    +0.000 A 
ENDBRANCH  10  11
ENDBRANCH   1  10
TORSDOF 2
ENDMDL
MODEL 9
REMARK VINA RESULT:    -4.711      2.929      4.206
REMARK INTER + INTRA:          -5.403
REMARK INTER:                  -5.290
REMARK INTRA:                  -0.113
REMARK UNBOUND:                -0.141
REMARK  Name = 1550473
REMARK  2 active torsions:
REMARK  status: ('A' for Active; 'I' for Inactive)
REMARK    1  A    between atoms: N_1  and  C_4
REMARK    2  A    between atoms: C_4  and  C_5
REMARK                            x       y       z     vdW  Elec       q    Type
REMARK                         _______ _______ _______ _____ _____    ______ ____
ROOT
ATOM      1  N   UNL     1      -2.320  -8.380 -10.042  0.00  0.00    -0.354 N 
ATOM      2  N   UNL     1      -2.577  -6.505  -8.708  0.00  0.00    -0.372 N 
ATOM      3  N   UNL     1      -1.733  -8.423  -7.774  0.00  0.00    -0.372 N 
ATOM      4  C   UNL     1      -2.207  -7.783  -8.848  0.00  0.00    +0.166 C 
ATOM      5  H   UNL     1      -2.715  -7.850 -10.810  0.00  0.00    +0.163 HD
ATOM      6  H   UNL     1      -2.500  -6.027  -7.821  0.00  0.00    +0.159 HD
ATOM      7  H   UNL     1      -2.929  -5.963  -9.489  0.00  0.00    +0.159 HD
ATOM      8  H   UNL     1      -1.442  -9.390  -7.812  0.00  0.00    +0.159 HD
ATOM      9  H   UNL     1      -1.659  -7.965  -6.874  0.00  0.00    +0.159 HD
ENDROOT
BRANCH   1  10
ATOM     10  C   UNL     1      -1.895  -9.753 -10.314  0.00  0.00    +0.151 C 
BRANCH  10  11
ATOM     11  C   UNL     1      -2.932 -10.427 -11.169  0.00  0.00    -0.028 A 
ATOM     12  C   UNL     1      -3.306  -9.875 -12.402  0.00  0.00    +0.005 A 
ATOM     13  C   UNL     1      -3.538 -11.623 -10.754  0.00  0.00    +0.005 A 
ATOM     14  C   UNL     1      -4.247 -10.517 -13.211  0.00  0.00    +0.000 A 
ATOM     15  C   UNL     1      -4.478 -12.261 -11.564  0.00  0.00    +0.000 A 
ATOM     16  C   UNL     1      -4.830 -11.709 -12.793  0.00  0.00    +0.000 A 
ENDBRANCH  10  11
ENDBRANCH   1  10
TORSDOF 2
ENDMDL
