MODEL 1
REMARK VINA RESULT:    -5.443      0.000      0.000
REMARK INTER + INTRA:          -6.231
REMARK INTER:                  -6.080
REMARK INTRA:                  -0.152
REMARK UNBOUND:                -0.152
REMARK  Name = 1550473
REMARK  2 active torsions:
REMARK  status: ('A' for Active; 'I' for Inactive)
REMARK    1  A    between atoms: N_1  and  C_4
REMARK    2  A    between atoms: C_4  and  C_5
REMARK                            x       y       z     vdW  Elec       q    Type
REMARK                         _______ _______ _______ _____ _____    ______ ____
ROOT
ATOM      1  N   UNL     1       0.535  -5.617   2.729  0.00  0.00    -0.354 N 
ATOM      2  N   UNL     1      -0.322  -3.492   3.063  0.00  0.00    -0.372 N 
ATOM      3  N   UNL     1      -1.055  -4.712   1.264  0.00  0.00    -0.372 N 
ATOM      4  C   UNL     1      -0.276  -4.622   2.347  0.00  0.00    +0.166 C 
ATOM      5  H   UNL     1       1.122  -5.475   3.542  0.00  0.00    +0.163 HD
ATOM      6  H   UNL     1      -0.927  -2.725   2.802  0.00  0.00    +0.159 HD
ATOM      7  H   UNL     1       0.232  -3.370   3.902  0.00  0.00    +0.159 HD
ATOM      8  H   UNL     1      -1.063  -5.536   0.678  0.00  0.00    +0.159 HD
ATOM      9  H   UNL     1      -1.659  -3.951   0.980  0.00  0.00    +0.159 HD
ENDROOT
BRANCH   1  10
ATOM     10  C   UNL     1       0.619  -6.909   2.049  0.00  0.00    +0.151 C 
BRANCH  10  11
ATOM     11  C   UNL     1       0.278  -8.001   3.026  0.00  0.00    -0.028 A 
ATOM     12  C   UNL     1       1.279  -8.843   3.531  0.00  0.00    +0.005 A 
ATOM     13  C   UNL     1      -1.044  -8.195   3.455  0.00  0.00    +0.005 A 
ATOM     14  C   UNL     1       0.968  -9.837   4.461  0.00  0.00    +0.000 A 
ATOM     15  C   UNL     1      -1.351  -9.190   4.383  0.00  0.00    +0.000 A 
ATOM     16  C   UNL     1      -0.345 -10.009   4.887  0.00  0.00    +0.000 A 
ENDBRANCH  10  11
ENDBRANCH   1  10
TORSDOF 2
ENDMDL
MODEL 2
REMARK VINA RESULT:    -5.247      2.469      5.838
REMARK INTER + INTRA:          -6.012
REMARK INTER:                  -5.880
REMARK INTRA:                  -0.133
REMARK UNBOUND:                -0.152
REMARK  Name = 1550473
REMARK  2 active torsions:
REMARK  status: ('A' for Active; 'I' for Inactive)
REMARK    1  A    between atoms: N_1  and  C_4
REMARK    2  A    between atoms: C_4  and  C_5
REMARK                            x       y       z     vdW  Elec       q    Type
REMARK                         _______ _______ _______ _____ _____    ______ ____
ROOT
ATOM      1  N   UNL     1      -0.794  -5.705   2.615  0.00  0.00    -0.354 N 
ATOM      2  N   UNL     1      -0.810  -7.603   3.942  0.00  0.00    -0.372 N 
ATOM      3  N   UNL     1       0.877  -7.336   2.410  0.00  0.00    -0.372 N 
ATOM      4  C   UNL     1      -0.240  -6.870   2.979  0.00  0.00    +0.166 C 
ATOM      5  H   UNL     1      -1.657  -5.422   3.064  0.00  0.00    +0.163 HD
ATOM      6  H   UNL     1      -0.413  -8.484   4.241  0.00  0.00    +0.159 HD
ATOM      7  H   UNL     1      -1.648  -7.295   4.421  0.00  0.00    +0.159 HD
ATOM      8  H   UNL     1       1.353  -6.833   1.673  0.00  0.00    +0.159 HD
ATOM      9  H   UNL     1       1.283  -8.221   2.687  0.00  0.00    +0.159 HD
ENDROOT
BRANCH   1  10
ATOM     10  C   UNL     1      -0.223  -4.806   1.614  0.00  0.00    +0.151 C 
BRANCH  10  11
ATOM     11  C   UNL     1      -0.479  -3.383   2.029  0.00  0.00    -0.028 A 
ATOM     12  C   UNL     1       0.047  -2.318   1.284  0.00  0.00    +0.005 A 
ATOM     13  C   UNL     1      -1.253  -3.094   3.163  0.00  0.00    +0.005 A 
ATOM     14  C   UNL     1      -0.216  -0.996   1.651  0.00  0.00    +0.000 A 
ATOM     15  C   UNL     1      -1.513  -1.773   3.528  0.00  0.00    +0.000 A 
ATOM     16  C   UNL     1      -0.996  -0.724   2.770  0.00  0.00    +0.000 A 
ENDBRANCH  10  11
ENDBRANCH   1  10
TORSDOF 2
ENDMDL
MODEL 3
REMARK VINA RESULT:    -5.227      3.158      4.544
REMARK INTER + INTRA:          -5.990
REMARK INTER:                  -5.821
REMARK INTRA:                  -0.169
REMARK UNBOUND:                -0.152
REMARK  Name = 1550473
REMARK  2 active torsions:
REMARK  status: ('A' for Active; 'I' for Inactive)
REMARK    1  A    between atoms: N_1  and  C_4
REMARK    2  A    between atoms: C_4  and  C_5
REMARK                            x       y       z     vdW  Elec       q    Type
REMARK                         _______ _______ _______ _____ _____    ______ ____
ROOT
ATOM      1  N   UNL     1      -2.760  -8.383   4.178  0.00  0.00    -0.354 N 
ATOM      2  N   UNL     1      -1.905  -6.234   4.312  0.00  0.00    -0.372 N 
ATOM      3  N   UNL     1      -0.464  -7.979   3.931  0.00  0.00    -0.372 N 
ATOM      4  C   UNL     1      -1.713  -7.548   4.139  0.00  0.00    +0.166 C 
ATOM      5  H   UNL     1      -3.677  -7.996   4.369  0.00  0.00    +0.163 HD
ATOM      6  H   UNL     1      -1.135  -5.580   4.284  0.00  0.00    +0.159 HD
ATOM      7  H   UNL     1      -2.829  -5.846   4.457  0.00  0.00    +0.159 HD
ATOM      8  H   UNL     1      -0.252  -8.959   3.800  0.00  0.00    +0.159 HD
ATOM      9  H   UNL     1       0.321  -7.341   3.912  0.00  0.00    +0.159 HD
ENDROOT
BRANCH   1  10
ATOM     10  C   UNL     1      -2.665  -9.824   3.948  0.00  0.00    +0.151 C 
BRANCH  10  11
ATOM     11  C   UNL     1      -2.776 -10.539   5.267  0.00  0.00    -0.028 A 
ATOM     12  C   UNL     1      -3.839 -10.264   6.139  0.00  0.00    +0.005 A 
ATOM     13  C   UNL     1      -1.823 -11.497   5.646  0.00  0.00    +0.005 A 
ATOM     14  C   UNL     1      -3.958 -10.950   7.350  0.00  0.00    +0.000 A 
ATOM     15  C   UNL     1      -1.946 -12.179   6.857  0.00  0.00    +0.000 A 
ATOM     16  C   UNL     1      -3.015 -11.907   7.707  0.00  0.00    +0.000 A 
ENDBRANCH  10  11
ENDBRANCH   1  10
TORSDOF 2
ENDMDL
MODEL 4
REMARK VINA RESULT:    -5.135      1.961      2.274
REMARK INTER + INTRA:          -5.886
REMARK INTER:                  -5.758
REMARK INTRA:                  -0.129
REMARK UNBOUND:                -0.152
REMARK  Name = 1550473
REMARK  2 active torsions:
REMARK  status: ('A' for Active; 'I' for Inactive)
REMARK    1  A    between atoms: N_1  and  C_4
REMARK    2  A    between atoms: C_4  and  C_5
REMARK                            x       y       z     vdW  Elec       q    Type
REMARK                         _______ _______ _______ _____ _____    ______ ____
ROOT
ATOM      1  N   UNL     1      -0.734  -5.096   1.742  0.00  0.00    -0.354 N 
ATOM      2  N   UNL     1      -1.755  -3.230   0.824  0.00  0.00    -0.372 N 
ATOM      3  N   UNL     1       0.368  -3.029   1.669  0.00  0.00    -0.372 N 
ATOM      4  C   UNL     1      -0.698  -3.796   1.419  0.00  0.00    +0.166 C 
ATOM      5  H   UNL     1      -1.583  -5.615   1.552  0.00  0.00    +0.163 HD
ATOM      6  H   UNL     1      -1.756  -2.253   0.565  0.00  0.00    +0.159 HD
ATOM      7  H   UNL     1      -2.585  -3.763   0.594  0.00  0.00    +0.159 HD
ATOM      8  H   UNL     1       1.196  -3.394   2.121  0.00  0.00    +0.159 HD
ATOM      9  H   UNL     1       0.382  -2.045   1.429  0.00  0.00    +0.159 HD
ENDROOT
BRANCH   1  10
ATOM     10  C   UNL     1       0.384  -5.820   2.343  0.00  0.00    +0.151 C 
BRANCH  10  11
ATOM     11  C   UNL     1       0.273  -7.277   1.989  0.00  0.00    -0.028 A 
ATOM     12  C   UNL     1       1.234  -8.195   2.438  0.00  0.00    +0.005 A 
ATOM     13  C   UNL     1      -0.795  -7.748   1.209  0.00  0.00    +0.005 A 
ATOM     14  C   UNL     1       1.115  -9.553   2.135  0.00  0.00    +0.000 A 
ATOM     15  C   UNL     1      -0.910  -9.105   0.907  0.00  0.00    +0.000 A 
ATOM     16  C   UNL     1       0.044 -10.007   1.372  0.00  0.00    +0.000 A 
ENDBRANCH  10  11
ENDBRANCH   1  10
TORSDOF 2
ENDMDL
MODEL 5
REMARK VINA RESULT:    -4.758     20.647     21.689
REMARK INTER + INTRA:          -5.466
REMARK INTER:                  -5.326
REMARK INTRA:                  -0.140
REMARK UNBOUND:                -0.152
REMARK  Name = 1550473
REMARK  2 active torsions:
REMARK  status: ('A' for Active; 'I' for Inactive)
REMARK    1  A    between atoms: N_1  and  C_4
REMARK    2  A    between atoms: C_4  and  C_5
REMARK                            x       y       z     vdW  Elec       q    Type
REMARK                         _______ _______ _______ _____ _____    ______ ____
ROOT
ATOM      1  N   UNL     1     -17.941  -4.774  -6.396  0.00  0.00    -0.354 N 
ATOM      2  N   UNL     1     -17.255  -4.060  -4.302  0.00  0.00    -0.372 N 
ATOM      3  N   UNL     1     -15.825  -5.338  -5.562  0.00  0.00    -0.372 N 
ATOM      4  C   UNL     1     -17.009  -4.730  -5.434  0.00  0.00    +0.166 C 
ATOM      5  H   UNL     1     -18.830  -4.319  -6.226  0.00  0.00    +0.163 HD
ATOM      6  H   UNL     1     -16.570  -4.007  -3.560  0.00  0.00    +0.159 HD
ATOM      7  H   UNL     1     -18.127  -3.567  -4.154  0.00  0.00    +0.159 HD
ATOM      8  H   UNL     1     -15.579  -5.865  -6.389  0.00  0.00    +0.159 HD
ATOM      9  H   UNL     1     -15.130  -5.305  -4.826  0.00  0.00    +0.159 HD
ENDROOT
BRANCH   1  10
ATOM     10  C   UNL     1     -17.752  -5.431  -7.688  0.00  0.00    +0.151 C 
BRANCH  10  11
ATOM     11  C   UNL     1     -18.985  -6.225  -8.020  0.00  0.00    -0.028 A 
ATOM     12  C   UNL     1     -19.155  -6.775  -9.300  0.00  0.00    +0.005 A 
ATOM     13  C   UNL     1     -19.985  -6.436  -7.059  0.00  0.00    +0.005 A 
ATOM     14  C   UNL     1     -20.286  -7.538  -9.600  0.00  0.00    +0.000 A 
ATOM     15  C   UNL     1     -21.113  -7.198  -7.362  0.00  0.00    +0.000 A 
ATOM     16  C   UNL     1     -21.262  -7.750  -8.632  0.00  0.00    +0.000 A 
ENDBRANCH  10  11
ENDBRANCH   1  10
TORSDOF 2
ENDMDL
MODEL 6
REMARK VINA RESULT:    -4.745     20.887     22.192
REMARK INTER + INTRA:          -5.451
REMARK INTER:                  -5.325
REMARK INTRA:                  -0.126
REMARK UNBOUND:                -0.152
REMARK  Name = 1550473
REMARK  2 active torsions:
REMARK  status: ('A' for Active; 'I' for Inactive)
REMARK    1  A    between atoms: N_1  and  C_4
REMARK    2  A    between atoms: C_4  and  C_5
REMARK                            x       y       z     vdW  Elec       q    Type
REMARK                         _______ _______ _______ _____ _____    ______ ____
ROOT
ATOM      1  N   UNL     1       5.729   5.022  20.467  0.00  0.00    -0.354 N 
ATOM      2  N   UNL     1       4.368   3.160  20.670  0.00  0.00    -0.372 N 
ATOM      3  N   UNL     1       6.595   2.968  21.189  0.00  0.00    -0.372 N 
ATOM      4  C   UNL     1       5.576   3.728  20.775  0.00  0.00    +0.166 C 
ATOM      5  H   UNL     1       4.923   5.536  20.130  0.00  0.00    +0.163 HD
ATOM      6  H   UNL     1       4.221   2.186  20.898  0.00  0.00    +0.159 HD
ATOM      7  H   UNL     1       3.555   3.687  20.377  0.00  0.00    +0.159 HD
ATOM      8  H   UNL     1       7.532   3.335  21.284  0.00  0.00    +0.159 HD
ATOM      9  H   UNL     1       6.470   1.988  21.411  0.00  0.00    +0.159 HD
ENDROOT
BRANCH   1  10
ATOM     10  C   UNL     1       6.990   5.750  20.599  0.00  0.00    +0.151 C 
BRANCH  10  11
ATOM     11  C   UNL     1       7.377   6.310  19.257  0.00  0.00    -0.028 A 
ATOM     12  C   UNL     1       8.176   7.459  19.169  0.00  0.00    +0.005 A 
ATOM     13  C   UNL     1       6.951   5.693  18.071  0.00  0.00    +0.005 A 
ATOM     14  C   UNL     1       8.560   7.962  17.924  0.00  0.00    +0.000 A 
ATOM     15  C   UNL     1       7.335   6.199  16.830  0.00  0.00    +0.000 A 
ATOM     16  C   UNL     1       8.142   7.332  16.756  0.00  0.00    +0.000 A 
ENDBRANCH  10  11
ENDBRANCH   1  10
TORSDOF 2
ENDMDL
MODEL 7
REMARK VINA RESULT:    -4.742     17.791     18.637
REMARK INTER + INTRA:          -5.448
REMARK INTER:                  -5.306
REMARK INTRA:                  -0.142
REMARK UNBOUND:                -0.152
REMARK  Name = 1550473
REMARK  2 active torsions:
REMARK  status: ('A' for Active; 'I' for Inactive)
REMARK    1  A    between atoms: N_1  and  C_4
REMARK    2  A    between atoms: C_4  and  C_5
REMARK                            x       y       z     vdW  Elec       q    Type
REMARK                         _______ _______ _______ _____ _____    ______ ____
ROOT
ATOM      1  N   UNL     1      -9.211 -15.719  -8.189  0.00  0.00    -0.354 N 
ATOM      2  N   UNL     1      -7.054 -16.516  -7.911  0.00  0.00    -0.372 N 
ATOM      3  N   UNL     1      -7.949 -16.453 -10.022  0.00  0.00    -0.372 N 
ATOM      4  C   UNL     1      -8.086 -16.224  -8.712  0.00  0.00    +0.166 C 
ATOM      5  H   UNL     1      -9.262 -15.598  -7.184  0.00  0.00    +0.163 HD
ATOM      6  H   UNL     1      -6.191 -16.895  -8.277  0.00  0.00    +0.159 HD
ATOM      7  H   UNL     1      -7.091 -16.350  -6.912  0.00  0.00    +0.159 HD
ATOM      8  H   UNL     1      -8.693 -16.260 -10.680  0.00  0.00    +0.159 HD
ATOM      9  H   UNL     1      -7.098 -16.843 -10.407  0.00  0.00    +0.159 HD
ENDROOT
BRANCH   1  10
ATOM     10  C   UNL     1     -10.372 -15.318  -8.980  0.00  0.00    +0.151 C 
BRANCH  10  11
ATOM     11  C   UNL     1     -11.560 -16.139  -8.559  0.00  0.00    -0.028 A 
ATOM     12  C   UNL     1     -11.822 -16.367  -7.200  0.00  0.00    +0.005 A 
ATOM     13  C   UNL     1     -12.431 -16.685  -9.514  0.00  0.00    +0.005 A 
ATOM     14  C   UNL     1     -12.943 -17.104  -6.808  0.00  0.00    +0.000 A 
ATOM     15  C   UNL     1     -13.548 -17.421  -9.118  0.00  0.00    +0.000 A 
ATOM     16  C   UNL     1     -13.805 -17.628  -7.765  0.00  0.00    +0.000 A 
ENDBRANCH  10  11
ENDBRANCH   1  10
TORSDOF 2
ENDMDL
MODEL 8
REMARK VINA RESULT:    -4.727      2.156      2.797
REMARK INTER + INTRA:          -5.431
REMARK INTER:                  -5.302
REMARK INTRA:                  -0.129
REMARK UNBOUND:                -0.152
REMARK  Name = 1550473
REMARK  2 active torsions:
REMARK  status: ('A' for Active; 'I' for Inactive)
REMARK    1  A    between atoms: N_1  and  C_4
REMARK    2  A    between atoms: C_4  and  C_5
REMARK                            x       y       z     vdW  Elec       q    Type
REMARK                         _______ _______ _______ _____ _____    ______ ____
ROOT
ATOM      1  N   UNL     1      -0.827  -6.538   3.173  0.00  0.00    -0.354 N 
ATOM      2  N   UNL     1      -1.379  -4.318   2.812  0.00  0.00    -0.372 N 
ATOM      3  N   UNL     1       0.714  -5.051   2.222  0.00  0.00    -0.372 N 
ATOM      4  C   UNL     1      -0.491  -5.317   2.737  0.00  0.00    +0.166 C 
ATOM      5  H   UNL     1      -1.746  -6.668   3.581  0.00  0.00    +0.163 HD
ATOM      6  H   UNL     1      -1.155  -3.387   2.488  0.00  0.00    +0.159 HD
ATOM      7  H   UNL     1      -2.313  -4.462   3.178  0.00  0.00    +0.159 HD
ATOM      8  H   UNL     1       1.431  -5.759   2.143  0.00  0.00    +0.159 HD
ATOM      9  H   UNL     1       0.961  -4.122   1.903  0.00  0.00    +0.159 HD
ENDROOT
BRANCH   1  10
ATOM     10  C   UNL     1       0.048  -7.706   3.087  0.00  0.00    +0.151 C 
BRANCH  10  11
ATOM     11  C   UNL     1      -0.660  -8.796   2.330  0.00  0.00    -0.028 A 
ATOM     12  C   UNL     1      -1.837  -9.367   2.838  0.00  0.00    +0.005 A 
ATOM     13  C   UNL     1      -0.163  -9.258   1.102  0.00  0.00    +0.005 A 
ATOM     14  C   UNL     1      -2.511 -10.358   2.121  0.00  0.00    +0.000 A 
ATOM     15  C   UNL     1      -0.839 -10.248   0.390  0.00  0.00    +0.000 A 
ATOM     16  C   UNL     1      -2.014 -10.796   0.898  0.00  0.00    +0.000 A 
ENDBRANCH  10  11
ENDBRANCH   1  10
TORSDOF 2
ENDMDL
MODEL 9
REMARK VINA RESULT:    -4.500      2.747      3.532
REMARK INTER + INTRA:          -5.178
REMARK INTER:                  -5.023
REMARK INTRA:                  -0.155
REMARK UNBOUND:                -0.152
REMARK  Name = 1550473
REMARK  2 active torsions:
REMARK  status: ('A' for Active; 'I' for Inactive)
REMARK    1  A    between atoms: N_1  and  C_4
REMARK    2  A    between atoms: C_4  and  C_5
REMARK                            x       y       z     vdW  Elec       q    Type
REMARK                         _______ _______ _______ _____ _____    ______ ____
ROOT
ATOM      1  N   UNL     1      -1.364  -8.424   2.828  0.00  0.00    -0.354 N 
ATOM      2  N   UNL     1      -1.968  -7.314   4.768  0.00  0.00    -0.372 N 
ATOM      3  N   UNL     1      -0.788  -6.177   3.162  0.00  0.00    -0.372 N 
ATOM      4  C   UNL     1      -1.368  -7.310   3.572  0.00  0.00    +0.166 C 
ATOM      5  H   UNL     1      -1.794  -9.259   3.208  0.00  0.00    +0.163 HD
ATOM      6  H   UNL     1      -1.991  -6.487   5.350  0.00  0.00    +0.159 HD
ATOM      7  H   UNL     1      -2.438  -8.136   5.126  0.00  0.00    +0.159 HD
ATOM      8  H   UNL     1      -0.313  -6.111   2.271  0.00  0.00    +0.159 HD
ATOM      9  H   UNL     1      -0.790  -5.343   3.735  0.00  0.00    +0.159 HD
ENDROOT
BRANCH   1  10
ATOM     10  C   UNL     1      -0.784  -8.511   1.488  0.00  0.00    +0.151 C 
BRANCH  10  11
ATOM     11  C   UNL     1       0.334  -9.516   1.501  0.00  0.00    -0.028 A 
ATOM     12  C   UNL     1       0.265 -10.669   0.705  0.00  0.00    +0.005 A 
ATOM     13  C   UNL     1       1.470  -9.318   2.302  0.00  0.00    +0.005 A 
ATOM     14  C   UNL     1       1.317 -11.588   0.694  0.00  0.00    +0.000 A 
ATOM     15  C   UNL     1       2.518 -10.238   2.289  0.00  0.00    +0.000 A 
ATOM     16  C   UNL     1       2.442 -11.371   1.483  0.00  0.00    +0.000 A 
ENDBRANCH  10  11
ENDBRANCH   1  10
TORSDOF 2
ENDMDL
