MODEL 1
REMARK VINA RESULT:    -4.628      0.000      0.000
REMARK INTER + INTRA:          -5.299
REMARK INTER:                  -5.169
REMARK INTRA:                  -0.130
REMARK UNBOUND:                -0.130
REMARK  Name = 1550473
REMARK  2 active torsions:
REMARK  status: ('A' for Active; 'I' for Inactive)
REMARK    1  A    between atoms: N_1  and  C_4
REMARK    2  A    between atoms: C_4  and  C_5
REMARK                            x       y       z     vdW  Elec       q    Type
REMARK                         _______ _______ _______ _____ _____    ______ ____
ROOT
ATOM      1  N   UNL     1       6.260   1.581   9.936  0.00  0.00    -0.354 N 
ATOM      2  N   UNL     1       7.726   1.302   8.165  0.00  0.00    -0.372 N 
ATOM      3  N   UNL     1       6.723   3.344   8.464  0.00  0.00    -0.372 N 
ATOM      4  C   UNL     1       6.892   2.080   8.866  0.00  0.00    +0.166 C 
ATOM      5  H   UNL     1       6.409   0.606  10.172  0.00  0.00    +0.163 HD
ATOM      6  H   UNL     1       8.220   1.652   7.355  0.00  0.00    +0.159 HD
ATOM      7  H   UNL     1       7.908   0.342   8.430  0.00  0.00    +0.159 HD
ATOM      8  H   UNL     1       6.102   3.981   8.946  0.00  0.00    +0.159 HD
ATOM      9  H   UNL     1       7.199   3.709   7.648  0.00  0.00    +0.159 HD
ENDROOT
BRANCH   1  10
ATOM     10  C   UNL     1       5.373   2.359  10.799  0.00  0.00    +0.151 C 
BRANCH  10  11
ATOM     11  C   UNL     1       4.344   1.442  11.401  0.00  0.00    -0.028 A 
ATOM     12  C   UNL     1       3.651   1.815  12.562  0.00  0.00    +0.005 A 
ATOM     13  C   UNL     1       4.054   0.202  10.812  0.00  0.00    +0.005 A 
ATOM     14  C   UNL     1       2.674   0.977  13.105  0.00  0.00    +0.000 A 
ATOM     15  C   UNL     1       3.078  -0.632  11.357  0.00  0.00    +0.000 A 
ATOM     16  C   UNL     1       2.387  -0.243  12.502  0.00  0.00    +0.000 A 
ENDBRANCH  10  11
ENDBRANCH   1  10
TORSDOF 2
ENDMDL
MODEL 2
REMARK VINA RESULT:    -4.545      4.126      5.486
REMARK INTER + INTRA:          -5.206
REMARK INTER:                  -5.084
REMARK INTRA:                  -0.122
REMARK UNBOUND:                -0.130
REMARK  Name = 1550473
REMARK  2 active torsions:
REMARK  status: ('A' for Active; 'I' for Inactive)
REMARK    1  A    between atoms: N_1  and  C_4
REMARK    2  A    between atoms: C_4  and  C_5
REMARK                            x       y       z     vdW  Elec       q    Type
REMARK                         _______ _______ _______ _____ _____    ______ ____
ROOT
ATOM      1  N   UNL     1       2.912   2.601  15.031  0.00  0.00    -0.354 N 
ATOM      2  N   UNL     1       1.979   2.969  17.119  0.00  0.00    -0.372 N 
ATOM      3  N   UNL     1       2.446   4.772  15.780  0.00  0.00    -0.372 N 
ATOM      4  C   UNL     1       2.452   3.448  15.962  0.00  0.00    +0.166 C 
ATOM      5  H   UNL     1       2.918   1.610  15.243  0.00  0.00    +0.163 HD
ATOM      6  H   UNL     1       1.622   3.583  17.839  0.00  0.00    +0.159 HD
ATOM      7  H   UNL     1       1.943   1.975  17.309  0.00  0.00    +0.159 HD
ATOM      8  H   UNL     1       2.795   5.198  14.931  0.00  0.00    +0.159 HD
ATOM      9  H   UNL     1       2.103   5.404  16.493  0.00  0.00    +0.159 HD
ENDROOT
BRANCH   1  10
ATOM     10  C   UNL     1       3.399   3.017  13.717  0.00  0.00    +0.151 C 
BRANCH  10  11
ATOM     11  C   UNL     1       3.432   1.822  12.805  0.00  0.00    -0.028 A 
ATOM     12  C   UNL     1       2.550   0.750  13.004  0.00  0.00    +0.005 A 
ATOM     13  C   UNL     1       4.340   1.758  11.736  0.00  0.00    +0.005 A 
ATOM     14  C   UNL     1       2.561  -0.347  12.139  0.00  0.00    +0.000 A 
ATOM     15  C   UNL     1       4.347   0.661  10.876  0.00  0.00    +0.000 A 
ATOM     16  C   UNL     1       3.456  -0.391  11.076  0.00  0.00    +0.000 A 
ENDBRANCH  10  11
ENDBRANCH   1  10
TORSDOF 2
ENDMDL
MODEL 3
REMARK VINA RESULT:    -4.542     20.117     21.516
REMARK INTER + INTRA:          -5.203
REMARK INTER:                  -5.079
REMARK INTRA:                  -0.124
REMARK UNBOUND:                -0.130
REMARK  Name = 1550473
REMARK  2 active torsions:
REMARK  status: ('A' for Active; 'I' for Inactive)
REMARK    1  A    between atoms: N_1  and  C_4
REMARK    2  A    between atoms: C_4  and  C_5
REMARK                            x       y       z     vdW  Elec       q    Type
REMARK                         _______ _______ _______ _____ _____    ______ ____
ROOT
ATOM      1  N   UNL     1      -1.642   8.062  -6.609  0.00  0.00    -0.354 N 
ATOM      2  N   UNL     1      -0.332   7.542  -4.771  0.00  0.00    -0.372 N 
ATOM      3  N   UNL     1      -1.725   9.362  -4.660  0.00  0.00    -0.372 N 
ATOM      4  C   UNL     1      -1.243   8.328  -5.358  0.00  0.00    +0.166 C 
ATOM      5  H   UNL     1      -1.216   7.282  -7.095  0.00  0.00    +0.163 HD
ATOM      6  H   UNL     1      -0.014   7.715  -3.827  0.00  0.00    +0.159 HD
ATOM      7  H   UNL     1       0.059   6.735  -5.243  0.00  0.00    +0.159 HD
ATOM      8  H   UNL     1      -2.410   9.996  -5.048  0.00  0.00    +0.159 HD
ATOM      9  H   UNL     1      -1.411   9.558  -3.718  0.00  0.00    +0.159 HD
ENDROOT
BRANCH   1  10
ATOM     10  C   UNL     1      -2.668   8.825  -7.319  0.00  0.00    +0.151 C 
BRANCH  10  11
ATOM     11  C   UNL     1      -2.991   8.128  -8.612  0.00  0.00    -0.028 A 
ATOM     12  C   UNL     1      -2.427   6.878  -8.907  0.00  0.00    +0.005 A 
ATOM     13  C   UNL     1      -3.864   8.709  -9.543  0.00  0.00    +0.005 A 
ATOM     14  C   UNL     1      -2.750   6.216 -10.094  0.00  0.00    +0.000 A 
ATOM     15  C   UNL     1      -4.184   8.046 -10.728  0.00  0.00    +0.000 A 
ATOM     16  C   UNL     1      -3.628   6.798 -11.002  0.00  0.00    +0.000 A 
ENDBRANCH  10  11
ENDBRANCH   1  10
TORSDOF 2
ENDMDL
MODEL 4
REMARK VINA RESULT:    -4.489      3.585      4.888
REMARK INTER + INTRA:          -5.143
REMARK INTER:                  -4.961
REMARK INTRA:                  -0.183
REMARK UNBOUND:                -0.130
REMARK  Name = 1550473
REMARK  2 active torsions:
REMARK  status: ('A' for Active; 'I' for Inactive)
REMARK    1  A    between atoms: N_1  and  C_4
REMARK    2  A    between atoms: C_4  and  C_5
REMARK                            x       y       z     vdW  Elec       q    Type
REMARK                         _______ _______ _______ _____ _____    ______ ____
ROOT
ATOM      1  N   UNL     1       3.989  -0.108  14.221  0.00  0.00    -0.354 N 
ATOM      2  N   UNL     1       5.291  -1.750  15.206  0.00  0.00    -0.372 N 
ATOM      3  N   UNL     1       3.828  -2.344  13.540  0.00  0.00    -0.372 N 
ATOM      4  C   UNL     1       4.359  -1.392  14.314  0.00  0.00    +0.166 C 
ATOM      5  H   UNL     1       4.407   0.561  14.857  0.00  0.00    +0.163 HD
ATOM      6  H   UNL     1       5.593  -2.711  15.296  0.00  0.00    +0.159 HD
ATOM      7  H   UNL     1       5.741  -1.072  15.808  0.00  0.00    +0.159 HD
ATOM      8  H   UNL     1       3.116  -2.140  12.852  0.00  0.00    +0.159 HD
ATOM      9  H   UNL     1       4.109  -3.313  13.624  0.00  0.00    +0.159 HD
ENDROOT
BRANCH   1  10
ATOM     10  C   UNL     1       3.022   0.396  13.247  0.00  0.00    +0.151 C 
BRANCH  10  11
ATOM     11  C   UNL     1       3.763   0.990  12.081  0.00  0.00    -0.028 A 
ATOM     12  C   UNL     1       4.327   2.271  12.175  0.00  0.00    +0.005 A 
ATOM     13  C   UNL     1       3.909   0.276  10.883  0.00  0.00    +0.005 A 
ATOM     14  C   UNL     1       5.042   2.812  11.103  0.00  0.00    +0.000 A 
ATOM     15  C   UNL     1       4.622   0.820   9.814  0.00  0.00    +0.000 A 
ATOM     16  C   UNL     1       5.190   2.086   9.926  0.00  0.00    +0.000 A 
ENDBRANCH  10  11
ENDBRANCH   1  10
TORSDOF 2
ENDMDL
MODEL 5
REMARK VINA RESULT:    -4.460      1.043      2.049
REMARK INTER + INTRA:          -5.111
REMARK INTER:                  -4.990
REMARK INTRA:                  -0.121
REMARK UNBOUND:                -0.130
REMARK  Name = 1550473
REMARK  2 active torsions:
REMARK  status: ('A' for Active; 'I' for Inactive)
REMARK    1  A    between atoms: N_1  and  C_4
REMARK    2  A    between atoms: C_4  and  C_5
REMARK                            x       y       z     vdW  Elec       q    Type
REMARK                         _______ _______ _______ _____ _____    ______ ____
ROOT
ATOM      1  N   UNL     1       5.613   2.943   9.625  0.00  0.00    -0.354 N 
ATOM      2  N   UNL     1       6.570   4.882   8.795  0.00  0.00    -0.372 N 
ATOM      3  N   UNL     1       7.647   2.883   8.464  0.00  0.00    -0.372 N 
ATOM      4  C   UNL     1       6.606   3.555   8.966  0.00  0.00    +0.166 C 
ATOM      5  H   UNL     1       4.867   3.513  10.008  0.00  0.00    +0.163 HD
ATOM      6  H   UNL     1       7.303   5.371   8.299  0.00  0.00    +0.159 HD
ATOM      7  H   UNL     1       5.800   5.443   9.139  0.00  0.00    +0.159 HD
ATOM      8  H   UNL     1       7.737   1.881   8.564  0.00  0.00    +0.159 HD
ATOM      9  H   UNL     1       8.397   3.356   7.975  0.00  0.00    +0.159 HD
ENDROOT
BRANCH   1  10
ATOM     10  C   UNL     1       5.529   1.497   9.819  0.00  0.00    +0.151 C 
BRANCH  10  11
ATOM     11  C   UNL     1       4.511   1.202  10.886  0.00  0.00    -0.028 A 
ATOM     12  C   UNL     1       3.811  -0.013  10.886  0.00  0.00    +0.005 A 
ATOM     13  C   UNL     1       4.246   2.132  11.903  0.00  0.00    +0.005 A 
ATOM     14  C   UNL     1       2.888  -0.300  11.894  0.00  0.00    +0.000 A 
ATOM     15  C   UNL     1       3.322   1.843  12.907  0.00  0.00    +0.000 A 
ATOM     16  C   UNL     1       2.645   0.626  12.904  0.00  0.00    +0.000 A 
ENDBRANCH  10  11
ENDBRANCH   1  10
TORSDOF 2
ENDMDL
MODEL 6
REMARK VINA RESULT:    -4.336      3.672      4.853
REMARK INTER + INTRA:          -4.972
REMARK INTER:                  -4.824
REMARK INTRA:                  -0.148
REMARK UNBOUND:                -0.130
REMARK  Name = 1550473
REMARK  2 active torsions:
REMARK  status: ('A' for Active; 'I' for Inactive)
REMARK    1  A    between atoms: N_1  and  C_4
REMARK    2  A    between atoms: C_4  and  C_5
REMARK                            x       y       z     vdW  Elec       q    Type
REMARK                         _______ _______ _______ _____ _____    ______ ____
ROOT
ATOM      1  N   UNL     1       3.724   4.169  14.084  0.00  0.00    -0.354 N 
ATOM      2  N   UNL     1       3.704   6.452  13.698  0.00  0.00    -0.372 N 
ATOM      3  N   UNL     1       1.714   5.373  14.072  0.00  0.00    -0.372 N 
ATOM      4  C   UNL     1       3.045   5.316  13.954  0.00  0.00    +0.166 C 
ATOM      5  H   UNL     1       4.729   4.187  13.953  0.00  0.00    +0.163 HD
ATOM      6  H   UNL     1       3.219   7.334  13.598  0.00  0.00    +0.159 HD
ATOM      7  H   UNL     1       4.713   6.475  13.613  0.00  0.00    +0.159 HD
ATOM      8  H   UNL     1       1.157   4.550  14.260  0.00  0.00    +0.159 HD
ATOM      9  H   UNL     1       1.209   6.244  13.964  0.00  0.00    +0.159 HD
ENDROOT
BRANCH   1  10
ATOM     10  C   UNL     1       3.107   2.886  14.417  0.00  0.00    +0.151 C 
BRANCH  10  11
ATOM     11  C   UNL     1       3.330   1.925  13.282  0.00  0.00    -0.028 A 
ATOM     12  C   UNL     1       4.245   2.226  12.263  0.00  0.00    +0.005 A 
ATOM     13  C   UNL     1       2.633   0.708  13.223  0.00  0.00    +0.005 A 
ATOM     14  C   UNL     1       4.475   1.320  11.225  0.00  0.00    +0.000 A 
ATOM     15  C   UNL     1       2.865  -0.194  12.185  0.00  0.00    +0.000 A 
ATOM     16  C   UNL     1       3.788   0.112  11.187  0.00  0.00    +0.000 A 
ENDBRANCH  10  11
ENDBRANCH   1  10
TORSDOF 2
ENDMDL
MODEL 7
REMARK VINA RESULT:    -4.289     20.191     21.590
REMARK INTER + INTRA:          -4.920
REMARK INTER:                  -4.781
REMARK INTRA:                  -0.139
REMARK UNBOUND:                -0.130
REMARK  Name = 1550473
REMARK  2 active torsions:
REMARK  status: ('A' for Active; 'I' for Inactive)
REMARK    1  A    between atoms: N_1  and  C_4
REMARK    2  A    between atoms: C_4  and  C_5
REMARK                            x       y       z     vdW  Elec       q    Type
REMARK                         _______ _______ _______ _____ _____    ______ ____
ROOT
ATOM      1  N   UNL     1      -1.626   9.498  -6.810  0.00  0.00    -0.354 N 
ATOM      2  N   UNL     1      -1.632  11.321  -5.381  0.00  0.00    -0.372 N 
ATOM      3  N   UNL     1      -1.822   9.215  -4.492  0.00  0.00    -0.372 N 
ATOM      4  C   UNL     1      -1.694   9.997  -5.568  0.00  0.00    +0.166 C 
ATOM      5  H   UNL     1      -1.559  10.146  -7.586  0.00  0.00    +0.163 HD
ATOM      6  H   UNL     1      -1.678  11.727  -4.456  0.00  0.00    +0.159 HD
ATOM      7  H   UNL     1      -1.520  11.964  -6.156  0.00  0.00    +0.159 HD
ATOM      8  H   UNL     1      -1.880   8.208  -4.565  0.00  0.00    +0.159 HD
ATOM      9  H   UNL     1      -1.881   9.602  -3.558  0.00  0.00    +0.159 HD
ENDROOT
BRANCH   1  10
ATOM     10  C   UNL     1      -1.629   8.069  -7.117  0.00  0.00    +0.151 C 
BRANCH  10  11
ATOM     11  C   UNL     1      -2.493   7.829  -8.325  0.00  0.00    -0.028 A 
ATOM     12  C   UNL     1      -3.403   8.805  -8.755  0.00  0.00    +0.005 A 
ATOM     13  C   UNL     1      -2.403   6.628  -9.046  0.00  0.00    +0.005 A 
ATOM     14  C   UNL     1      -4.184   8.595  -9.894  0.00  0.00    +0.000 A 
ATOM     15  C   UNL     1      -3.185   6.422 -10.182  0.00  0.00    +0.000 A 
ATOM     16  C   UNL     1      -4.074   7.406 -10.607  0.00  0.00    +0.000 A 
ENDBRANCH  10  11
ENDBRANCH   1  10
TORSDOF 2
ENDMDL
MODEL 8
REMARK VINA RESULT:    -4.070     19.624     21.200
REMARK INTER + INTRA:          -4.675
REMARK INTER:                  -4.543
REMARK INTRA:                  -0.132
REMARK UNBOUND:                -0.130
REMARK  Name = 1550473
REMARK  2 active torsions:
REMARK  status: ('A' for Active; 'I' for Inactive)
REMARK    1  A    between atoms: N_1  and  C_4
REMARK    2  A    between atoms: C_4  and  C_5
REMARK                            x       y       z     vdW  Elec       q    Type
REMARK                         _______ _______ _______ _____ _____    ______ ____
ROOT
ATOM      1  N   UNL     1      -1.096   9.376  -6.891  0.00  0.00    -0.354 N 
ATOM      2  N   UNL     1      -2.023  11.188  -5.786  0.00  0.00    -0.372 N 
ATOM      3  N   UNL     1      -1.833   9.190  -4.674  0.00  0.00    -0.372 N 
ATOM      4  C   UNL     1      -1.645   9.904  -5.789  0.00  0.00    +0.166 C 
ATOM      5  H   UNL     1      -1.009   9.961  -7.713  0.00  0.00    +0.163 HD
ATOM      6  H   UNL     1      -2.437  11.615  -4.969  0.00  0.00    +0.159 HD
ATOM      7  H   UNL     1      -1.892  11.784  -6.595  0.00  0.00    +0.159 HD
ATOM      8  H   UNL     1      -1.574   8.214  -4.613  0.00  0.00    +0.159 HD
ATOM      9  H   UNL     1      -2.256   9.597  -3.849  0.00  0.00    +0.159 HD
ENDROOT
BRANCH   1  10
ATOM     10  C   UNL     1      -0.601   8.003  -6.980  0.00  0.00    +0.151 C 
BRANCH  10  11
ATOM     11  C   UNL     1      -1.106   7.380  -8.252  0.00  0.00    -0.028 A 
ATOM     12  C   UNL     1      -2.459   7.033  -8.387  0.00  0.00    +0.005 A 
ATOM     13  C   UNL     1      -0.239   7.141  -9.329  0.00  0.00    +0.005 A 
ATOM     14  C   UNL     1      -2.934   6.482  -9.579  0.00  0.00    +0.000 A 
ATOM     15  C   UNL     1      -0.718   6.591 -10.518  0.00  0.00    +0.000 A 
ATOM     16  C   UNL     1      -2.066   6.263 -10.644  0.00  0.00    +0.000 A 
ENDBRANCH  10  11
ENDBRANCH   1  10
TORSDOF 2
ENDMDL
MODEL 9
REMARK VINA RESULT:    -3.804     26.482     27.693
REMARK INTER + INTRA:          -4.379
REMARK INTER:                  -4.210
REMARK INTRA:                  -0.169
REMARK UNBOUND:                -0.130
REMARK  Name = 1550473
REMARK  2 active torsions:
REMARK  status: ('A' for Active; 'I' for Inactive)
REMARK    1  A    between atoms: N_1  and  C_4
REMARK    2  A    between atoms: C_4  and  C_5
REMARK                            x       y       z     vdW  Elec       q    Type
REMARK                         _______ _______ _______ _____ _____    ______ ____
ROOT
ATOM      1  N   UNL     1      -3.401 -15.182  -8.402  0.00  0.00    -0.354 N 
ATOM      2  N   UNL     1      -2.737 -12.993  -8.769  0.00  0.00    -0.372 N 
ATOM      3  N   UNL     1      -1.635 -14.235  -7.185  0.00  0.00    -0.372 N 
ATOM      4  C   UNL     1      -2.594 -14.152  -8.114  0.00  0.00    +0.166 C 
ATOM      5  H   UNL     1      -4.127 -15.045  -9.095  0.00  0.00    +0.163 HD
ATOM      6  H   UNL     1      -2.141 -12.200  -8.577  0.00  0.00    +0.159 HD
ATOM      7  H   UNL     1      -3.434 -12.874  -9.494  0.00  0.00    +0.159 HD
ATOM      8  H   UNL     1      -1.479 -15.079  -6.651  0.00  0.00    +0.159 HD
ATOM      9  H   UNL     1      -1.036 -13.448  -6.970  0.00  0.00    +0.159 HD
ENDROOT
BRANCH   1  10
ATOM     10  C   UNL     1      -3.293 -16.502  -7.784  0.00  0.00    +0.151 C 
BRANCH  10  11
ATOM     11  C   UNL     1      -2.485 -17.399  -8.681  0.00  0.00    -0.028 A 
ATOM     12  C   UNL     1      -3.089 -18.054  -9.764  0.00  0.00    +0.005 A 
ATOM     13  C   UNL     1      -1.114 -17.594  -8.456  0.00  0.00    +0.005 A 
ATOM     14  C   UNL     1      -2.333 -18.864 -10.615  0.00  0.00    +0.000 A 
ATOM     15  C   UNL     1      -0.362 -18.404  -9.308  0.00  0.00    +0.000 A 
ATOM     16  C   UNL     1      -0.972 -19.037 -10.388  0.00  0.00    +0.000 A 
ENDBRANCH  10  11
ENDBRANCH   1  10
TORSDOF 2
ENDMDL
