MODEL 1
REMARK VINA RESULT:    -5.816      0.000      0.000
REMARK INTER + INTRA:          -6.639
REMARK INTER:                  -6.496
REMARK INTRA:                  -0.143
REMARK UNBOUND:                -0.143
REMARK  Name = 1550473
REMARK  2 active torsions:
REMARK  status: ('A' for Active; 'I' for Inactive)
REMARK    1  A    between atoms: N_1  and  C_4
REMARK    2  A    between atoms: C_4  and  C_5
REMARK                            x       y       z     vdW  Elec       q    Type
REMARK                         _______ _______ _______ _____ _____    ______ ____
ROOT
ATOM      1  N   UNL     1      12.705 -11.408   3.587  0.00  0.00    -0.354 N 
ATOM      2  N   UNL     1      10.701 -10.303   3.945  0.00  0.00    -0.372 N 
ATOM      3  N   UNL     1      11.577 -10.352   1.825  0.00  0.00    -0.372 N 
ATOM      4  C   UNL     1      11.674 -10.694   3.114  0.00  0.00    +0.166 C 
ATOM      5  H   UNL     1      12.735 -11.608   4.580  0.00  0.00    +0.163 HD
ATOM      6  H   UNL     1       9.909  -9.767   3.616  0.00  0.00    +0.159 HD
ATOM      7  H   UNL     1      10.711 -10.545   4.928  0.00  0.00    +0.159 HD
ATOM      8  H   UNL     1      12.281 -10.611   1.147  0.00  0.00    +0.159 HD
ATOM      9  H   UNL     1      10.798  -9.806   1.479  0.00  0.00    +0.159 HD
ENDROOT
BRANCH   1  10
ATOM     10  C   UNL     1      13.789 -11.928   2.756  0.00  0.00    +0.151 C 
BRANCH  10  11
ATOM     11  C   UNL     1      15.106 -11.592   3.400  0.00  0.00    -0.028 A 
ATOM     12  C   UNL     1      16.311 -11.997   2.808  0.00  0.00    +0.005 A 
ATOM     13  C   UNL     1      15.155 -10.865   4.599  0.00  0.00    +0.005 A 
ATOM     14  C   UNL     1      17.536 -11.659   3.390  0.00  0.00    +0.000 A 
ATOM     15  C   UNL     1      16.379 -10.531   5.178  0.00  0.00    +0.000 A 
ATOM     16  C   UNL     1      17.569 -10.926   4.572  0.00  0.00    +0.000 A 
ENDBRANCH  10  11
ENDBRANCH   1  10
TORSDOF 2
ENDMDL
MODEL 2
REMARK VINA RESULT:    -5.746     13.470     16.501
REMARK INTER + INTRA:          -6.560
REMARK INTER:                  -6.422
REMARK INTRA:                  -0.138
REMARK UNBOUND:                -0.143
REMARK  Name = 1550473
REMARK  2 active torsions:
REMARK  status: ('A' for Active; 'I' for Inactive)
REMARK    1  A    between atoms: N_1  and  C_4
REMARK    2  A    between atoms: C_4  and  C_5
REMARK                            x       y       z     vdW  Elec       q    Type
REMARK                         _______ _______ _______ _____ _____    ______ ____
ROOT
ATOM      1  N   UNL     1       3.810  -3.589  -1.878  0.00  0.00    -0.354 N 
ATOM      2  N   UNL     1       5.845  -4.695  -1.863  0.00  0.00    -0.372 N 
ATOM      3  N   UNL     1       5.783  -2.478  -1.274  0.00  0.00    -0.372 N 
ATOM      4  C   UNL     1       5.133  -3.577  -1.671  0.00  0.00    +0.166 C 
ATOM      5  H   UNL     1       3.382  -4.446  -2.208  0.00  0.00    +0.163 HD
ATOM      6  H   UNL     1       6.844  -4.718  -1.712  0.00  0.00    +0.159 HD
ATOM      7  H   UNL     1       5.407  -5.562  -2.149  0.00  0.00    +0.159 HD
ATOM      8  H   UNL     1       5.305  -1.601  -1.117  0.00  0.00    +0.159 HD
ATOM      9  H   UNL     1       6.785  -2.478  -1.128  0.00  0.00    +0.159 HD
ENDROOT
BRANCH   1  10
ATOM     10  C   UNL     1       2.936  -2.440  -1.646  0.00  0.00    +0.151 C 
BRANCH  10  11
ATOM     11  C   UNL     1       1.931  -2.354  -2.761  0.00  0.00    -0.028 A 
ATOM     12  C   UNL     1       1.917  -3.315  -3.783  0.00  0.00    +0.005 A 
ATOM     13  C   UNL     1       0.985  -1.318  -2.799  0.00  0.00    +0.005 A 
ATOM     14  C   UNL     1       0.964  -3.253  -4.803  0.00  0.00    +0.000 A 
ATOM     15  C   UNL     1       0.036  -1.259  -3.819  0.00  0.00    +0.000 A 
ATOM     16  C   UNL     1       0.024  -2.228  -4.819  0.00  0.00    +0.000 A 
ENDBRANCH  10  11
ENDBRANCH   1  10
TORSDOF 2
ENDMDL
MODEL 3
REMARK VINA RESULT:    -5.684     13.404     15.936
REMARK INTER + INTRA:          -6.492
REMARK INTER:                  -6.352
REMARK INTRA:                  -0.140
REMARK UNBOUND:                -0.143
REMARK  Name = 1550473
REMARK  2 active torsions:
REMARK  status: ('A' for Active; 'I' for Inactive)
REMARK    1  A    between atoms: N_1  and  C_4
REMARK    2  A    between atoms: C_4  and  C_5
REMARK                            x       y       z     vdW  Elec       q    Type
REMARK                         _______ _______ _______ _____ _____    ______ ____
ROOT
ATOM      1  N   UNL     1       5.230  -1.893  -0.970  0.00  0.00    -0.354 N 
ATOM      2  N   UNL     1       5.519  -4.137  -1.466  0.00  0.00    -0.372 N 
ATOM      3  N   UNL     1       5.312  -2.637  -3.191  0.00  0.00    -0.372 N 
ATOM      4  C   UNL     1       5.352  -2.873  -1.875  0.00  0.00    +0.166 C 
ATOM      5  H   UNL     1       5.239  -2.141   0.012  0.00  0.00    +0.163 HD
ATOM      6  H   UNL     1       5.617  -4.897  -2.126  0.00  0.00    +0.159 HD
ATOM      7  H   UNL     1       5.573  -4.376  -0.484  0.00  0.00    +0.159 HD
ATOM      8  H   UNL     1       5.182  -1.707  -3.564  0.00  0.00    +0.159 HD
ATOM      9  H   UNL     1       5.396  -3.387  -3.866  0.00  0.00    +0.159 HD
ENDROOT
BRANCH   1  10
ATOM     10  C   UNL     1       5.098  -0.477  -1.311  0.00  0.00    +0.151 C 
BRANCH  10  11
ATOM     11  C   UNL     1       3.920   0.097  -0.573  0.00  0.00    -0.028 A 
ATOM     12  C   UNL     1       2.777  -0.681  -0.341  0.00  0.00    +0.005 A 
ATOM     13  C   UNL     1       3.944   1.418  -0.098  0.00  0.00    +0.005 A 
ATOM     14  C   UNL     1       1.695  -0.157   0.371  0.00  0.00    +0.000 A 
ATOM     15  C   UNL     1       2.862   1.937   0.611  0.00  0.00    +0.000 A 
ATOM     16  C   UNL     1       1.738   1.149   0.848  0.00  0.00    +0.000 A 
ENDBRANCH  10  11
ENDBRANCH   1  10
TORSDOF 2
ENDMDL
MODEL 4
REMARK VINA RESULT:    -5.517     13.436     15.642
REMARK INTER + INTRA:          -6.305
REMARK INTER:                  -6.172
REMARK INTRA:                  -0.134
REMARK UNBOUND:                -0.143
REMARK  Name = 1550473
REMARK  2 active torsions:
REMARK  status: ('A' for Active; 'I' for Inactive)
REMARK    1  A    between atoms: N_1  and  C_4
REMARK    2  A    between atoms: C_4  and  C_5
REMARK                            x       y       z     vdW  Elec       q    Type
REMARK                         _______ _______ _______ _____ _____    ______ ____
ROOT
ATOM      1  N   UNL     1       4.431  -2.343  -2.548  0.00  0.00    -0.354 N 
ATOM      2  N   UNL     1       6.289  -3.345  -3.502  0.00  0.00    -0.372 N 
ATOM      3  N   UNL     1       5.380  -4.270  -1.609  0.00  0.00    -0.372 N 
ATOM      4  C   UNL     1       5.354  -3.314  -2.545  0.00  0.00    +0.166 C 
ATOM      5  H   UNL     1       4.484  -1.631  -3.267  0.00  0.00    +0.163 HD
ATOM      6  H   UNL     1       6.996  -4.067  -3.528  0.00  0.00    +0.159 HD
ATOM      7  H   UNL     1       6.312  -2.658  -4.247  0.00  0.00    +0.159 HD
ATOM      8  H   UNL     1       4.706  -4.300  -0.856  0.00  0.00    +0.159 HD
ATOM      9  H   UNL     1       6.087  -4.994  -1.611  0.00  0.00    +0.159 HD
ENDROOT
BRANCH   1  10
ATOM     10  C   UNL     1       3.338  -2.251  -1.582  0.00  0.00    +0.151 C 
BRANCH  10  11
ATOM     11  C   UNL     1       3.369  -0.894  -0.934  0.00  0.00    -0.028 A 
ATOM     12  C   UNL     1       4.571  -0.177  -0.839  0.00  0.00    +0.005 A 
ATOM     13  C   UNL     1       2.199  -0.317  -0.418  0.00  0.00    +0.005 A 
ATOM     14  C   UNL     1       4.595   1.096  -0.264  0.00  0.00    +0.000 A 
ATOM     15  C   UNL     1       2.227   0.954   0.156  0.00  0.00    +0.000 A 
ATOM     16  C   UNL     1       3.424   1.661   0.230  0.00  0.00    +0.000 A 
ENDBRANCH  10  11
ENDBRANCH   1  10
TORSDOF 2
ENDMDL
MODEL 5
REMARK VINA RESULT:    -5.408     16.205     17.537
REMARK INTER + INTRA:          -6.184
REMARK INTER:                  -6.050
REMARK INTRA:                  -0.134
REMARK UNBOUND:                -0.143
REMARK  Name = 1550473
REMARK  2 active torsions:
REMARK  status: ('A' for Active; 'I' for Inactive)
REMARK    1  A    between atoms: N_1  and  C_4
REMARK    2  A    between atoms: C_4  and  C_5
REMARK                            x       y       z     vdW  Elec       q    Type
REMARK                         _______ _______ _______ _____ _____    ______ ____
ROOT
ATOM      1  N   UNL     1       1.510   0.702  -0.376  0.00  0.00    -0.354 N 
ATOM      2  N   UNL     1       0.941   2.931  -0.112  0.00  0.00    -0.372 N 
ATOM      3  N   UNL     1       3.046   2.244   0.493  0.00  0.00    -0.372 N 
ATOM      4  C   UNL     1       1.839   1.944   0.001  0.00  0.00    +0.166 C 
ATOM      5  H   UNL     1       0.569   0.534  -0.712  0.00  0.00    +0.163 HD
ATOM      6  H   UNL     1       1.162   3.880   0.161  0.00  0.00    +0.159 HD
ATOM      7  H   UNL     1       0.017   2.769  -0.491  0.00  0.00    +0.159 HD
ATOM      8  H   UNL     1       3.766   1.544   0.609  0.00  0.00    +0.159 HD
ATOM      9  H   UNL     1       3.281   3.185   0.783  0.00  0.00    +0.159 HD
ENDROOT
BRANCH   1  10
ATOM     10  C   UNL     1       2.431  -0.433  -0.343  0.00  0.00    +0.151 C 
BRANCH  10  11
ATOM     11  C   UNL     1       2.154  -1.324  -1.522  0.00  0.00    -0.028 A 
ATOM     12  C   UNL     1       2.884  -2.508  -1.708  0.00  0.00    +0.005 A 
ATOM     13  C   UNL     1       1.159  -0.994  -2.455  0.00  0.00    +0.005 A 
ATOM     14  C   UNL     1       2.607  -3.351  -2.786  0.00  0.00    +0.000 A 
ATOM     15  C   UNL     1       0.885  -1.839  -3.531  0.00  0.00    +0.000 A 
ATOM     16  C   UNL     1       1.607  -3.018  -3.695  0.00  0.00    +0.000 A 
ENDBRANCH  10  11
ENDBRANCH   1  10
TORSDOF 2
ENDMDL
MODEL 6
REMARK VINA RESULT:    -5.391     22.782     24.557
REMARK INTER + INTRA:          -6.164
REMARK INTER:                  -6.048
REMARK INTRA:                  -0.116
REMARK UNBOUND:                -0.143
REMARK  Name = 1550473
REMARK  2 active torsions:
REMARK  status: ('A' for Active; 'I' for Inactive)
REMARK    1  A    between atoms: N_1  and  C_4
REMARK    2  A    between atoms: C_4  and  C_5
REMARK                            x       y       z     vdW  Elec       q    Type
REMARK                         _______ _______ _______ _____ _____    ______ ____
ROOT
ATOM      1  N   UNL     1       2.516   8.194  -2.575  0.00  0.00    -0.354 N 
ATOM      2  N   UNL     1       2.323   5.916  -2.205  0.00  0.00    -0.372 N 
ATOM      3  N   UNL     1       0.449   7.229  -2.038  0.00  0.00    -0.372 N 
ATOM      4  C   UNL     1       1.762   7.129  -2.274  0.00  0.00    +0.166 C 
ATOM      5  H   UNL     1       3.511   8.056  -2.714  0.00  0.00    +0.163 HD
ATOM      6  H   UNL     1       1.778   5.093  -1.984  0.00  0.00    +0.159 HD
ATOM      7  H   UNL     1       3.309   5.774  -2.390  0.00  0.00    +0.159 HD
ATOM      8  H   UNL     1      -0.034   8.117  -2.068  0.00  0.00    +0.159 HD
ATOM      9  H   UNL     1      -0.111   6.419  -1.803  0.00  0.00    +0.159 HD
ENDROOT
BRANCH   1  10
ATOM     10  C   UNL     1       1.993   9.550  -2.728  0.00  0.00    +0.151 C 
BRANCH  10  11
ATOM     11  C   UNL     1       2.888  10.508  -1.991  0.00  0.00    -0.028 A 
ATOM     12  C   UNL     1       4.258  10.571  -2.284  0.00  0.00    +0.005 A 
ATOM     13  C   UNL     1       2.371  11.360  -1.003  0.00  0.00    +0.005 A 
ATOM     14  C   UNL     1       5.084  11.482  -1.622  0.00  0.00    +0.000 A 
ATOM     15  C   UNL     1       3.200  12.268  -0.343  0.00  0.00    +0.000 A 
ATOM     16  C   UNL     1       4.556  12.330  -0.655  0.00  0.00    +0.000 A 
ENDBRANCH  10  11
ENDBRANCH   1  10
TORSDOF 2
ENDMDL
MODEL 7
REMARK VINA RESULT:    -5.260     14.898     16.309
REMARK INTER + INTRA:          -6.018
REMARK INTER:                  -5.878
REMARK INTRA:                  -0.140
REMARK UNBOUND:                -0.143
REMARK  Name = 1550473
REMARK  2 active torsions:
REMARK  status: ('A' for Active; 'I' for Inactive)
REMARK    1  A    between atoms: N_1  and  C_4
REMARK    2  A    between atoms: C_4  and  C_5
REMARK                            x       y       z     vdW  Elec       q    Type
REMARK                         _______ _______ _______ _____ _____    ______ ____
ROOT
ATOM      1  N   UNL     1       4.922   1.616  -1.295  0.00  0.00    -0.354 N 
ATOM      2  N   UNL     1       4.341   3.857  -1.354  0.00  0.00    -0.372 N 
ATOM      3  N   UNL     1       5.013   2.938   0.638  0.00  0.00    -0.372 N 
ATOM      4  C   UNL     1       4.763   2.789  -0.667  0.00  0.00    +0.166 C 
ATOM      5  H   UNL     1       4.686   1.561  -2.279  0.00  0.00    +0.163 HD
ATOM      6  H   UNL     1       4.215   4.756  -0.908  0.00  0.00    +0.159 HD
ATOM      7  H   UNL     1       4.151   3.811  -2.347  0.00  0.00    +0.159 HD
ATOM      8  H   UNL     1       5.328   2.169   1.214  0.00  0.00    +0.159 HD
ATOM      9  H   UNL     1       4.882   3.826   1.105  0.00  0.00    +0.159 HD
ENDROOT
BRANCH   1  10
ATOM     10  C   UNL     1       5.427   0.405  -0.650  0.00  0.00    +0.151 C 
BRANCH  10  11
ATOM     11  C   UNL     1       4.553  -0.757  -1.032  0.00  0.00    -0.028 A 
ATOM     12  C   UNL     1       3.156  -0.633  -1.011  0.00  0.00    +0.005 A 
ATOM     13  C   UNL     1       5.114  -1.982  -1.422  0.00  0.00    +0.005 A 
ATOM     14  C   UNL     1       2.343  -1.703  -1.394  0.00  0.00    +0.000 A 
ATOM     15  C   UNL     1       4.300  -3.048  -1.804  0.00  0.00    +0.000 A 
ATOM     16  C   UNL     1       2.914  -2.907  -1.792  0.00  0.00    +0.000 A 
ENDBRANCH  10  11
ENDBRANCH   1  10
TORSDOF 2
ENDMDL
MODEL 8
REMARK VINA RESULT:    -5.150      3.820      6.215
REMARK INTER + INTRA:          -5.896
REMARK INTER:                  -5.719
REMARK INTRA:                  -0.176
REMARK UNBOUND:                -0.143
REMARK  Name = 1550473
REMARK  2 active torsions:
REMARK  status: ('A' for Active; 'I' for Inactive)
REMARK    1  A    between atoms: N_1  and  C_4
REMARK    2  A    between atoms: C_4  and  C_5
REMARK                            x       y       z     vdW  Elec       q    Type
REMARK                         _______ _______ _______ _____ _____    ______ ____
ROOT
ATOM      1  N   UNL     1      11.543 -10.503   1.551  0.00  0.00    -0.354 N 
ATOM      2  N   UNL     1      10.943 -10.293   3.778  0.00  0.00    -0.372 N 
ATOM      3  N   UNL     1      12.362 -11.989   3.167  0.00  0.00    -0.372 N 
ATOM      4  C   UNL     1      11.621 -10.932   2.817  0.00  0.00    +0.166 C 
ATOM      5  H   UNL     1      10.940  -9.714   1.346  0.00  0.00    +0.163 HD
ATOM      6  H   UNL     1      10.986 -10.592   4.743  0.00  0.00    +0.159 HD
ATOM      7  H   UNL     1      10.377  -9.477   3.578  0.00  0.00    +0.159 HD
ATOM      8  H   UNL     1      12.894 -12.518   2.488  0.00  0.00    +0.159 HD
ATOM      9  H   UNL     1      12.409 -12.311   4.126  0.00  0.00    +0.159 HD
ENDROOT
BRANCH   1  10
ATOM     10  C   UNL     1      12.284 -11.095   0.439  0.00  0.00    +0.151 C 
BRANCH  10  11
ATOM     11  C   UNL     1      11.352 -11.953  -0.371  0.00  0.00    -0.028 A 
ATOM     12  C   UNL     1      11.614 -13.320  -0.546  0.00  0.00    +0.005 A 
ATOM     13  C   UNL     1      10.203 -11.407  -0.962  0.00  0.00    +0.005 A 
ATOM     14  C   UNL     1      10.733 -14.124  -1.274  0.00  0.00    +0.000 A 
ATOM     15  C   UNL     1       9.326 -12.212  -1.688  0.00  0.00    +0.000 A 
ATOM     16  C   UNL     1       9.590 -13.571  -1.842  0.00  0.00    +0.000 A 
ENDBRANCH  10  11
ENDBRANCH   1  10
TORSDOF 2
ENDMDL
MODEL 9
REMARK VINA RESULT:    -5.127      1.658      2.518
REMARK INTER + INTRA:          -5.870
REMARK INTER:                  -5.741
REMARK INTRA:                  -0.129
REMARK UNBOUND:                -0.143
REMARK  Name = 1550473
REMARK  2 active torsions:
REMARK  status: ('A' for Active; 'I' for Inactive)
REMARK    1  A    between atoms: N_1  and  C_4
REMARK    2  A    between atoms: C_4  and  C_5
REMARK                            x       y       z     vdW  Elec       q    Type
REMARK                         _______ _______ _______ _____ _____    ______ ____
ROOT
ATOM      1  N   UNL     1      13.884 -10.671   5.166  0.00  0.00    -0.354 N 
ATOM      2  N   UNL     1      11.645 -10.347   4.671  0.00  0.00    -0.372 N 
ATOM      3  N   UNL     1      12.662  -8.947   6.178  0.00  0.00    -0.372 N 
ATOM      4  C   UNL     1      12.745  -9.989   5.344  0.00  0.00    +0.166 C 
ATOM      5  H   UNL     1      13.874 -11.470   4.542  0.00  0.00    +0.163 HD
ATOM      6  H   UNL     1      10.772  -9.848   4.781  0.00  0.00    +0.159 HD
ATOM      7  H   UNL     1      11.650 -11.117   4.013  0.00  0.00    +0.159 HD
ATOM      8  H   UNL     1      13.454  -8.630   6.719  0.00  0.00    +0.159 HD
ATOM      9  H   UNL     1      11.794  -8.442   6.311  0.00  0.00    +0.159 HD
ENDROOT
BRANCH   1  10
ATOM     10  C   UNL     1      15.151 -10.329   5.810  0.00  0.00    +0.151 C 
BRANCH  10  11
ATOM     11  C   UNL     1      16.285 -10.727   4.905  0.00  0.00    -0.028 A 
ATOM     12  C   UNL     1      16.047 -11.519   3.772  0.00  0.00    +0.005 A 
ATOM     13  C   UNL     1      17.598 -10.309   5.172  0.00  0.00    +0.005 A 
ATOM     14  C   UNL     1      17.095 -11.864   2.915  0.00  0.00    +0.000 A 
ATOM     15  C   UNL     1      18.641 -10.656   4.314  0.00  0.00    +0.000 A 
ATOM     16  C   UNL     1      18.389 -11.431   3.184  0.00  0.00    +0.000 A 
ENDBRANCH  10  11
ENDBRANCH   1  10
TORSDOF 2
ENDMDL
