MODEL 1
REMARK VINA RESULT:    -5.870      0.000      0.000
REMARK INTER + INTRA:          -6.680
REMARK INTER:                  -6.557
REMARK INTRA:                  -0.123
REMARK UNBOUND:                -0.123
REMARK  Name = 1550473
REMARK  2 active torsions:
REMARK  status: ('A' for Active; 'I' for Inactive)
REMARK    1  A    between atoms: N_1  and  C_4
REMARK    2  A    between atoms: C_4  and  C_5
REMARK                            x       y       z     vdW  Elec       q    Type
REMARK                         _______ _______ _______ _____ _____    ______ ____
ROOT
ATOM      1  N   UNL     1       0.141   1.710   3.365  0.00  0.00    -0.354 N 
ATOM      2  N   UNL     1       0.204   3.982   2.923  0.00  0.00    -0.372 N 
ATOM      3  N   UNL     1       2.105   2.738   2.604  0.00  0.00    -0.372 N 
ATOM      4  C   UNL     1       0.819   2.795   2.966  0.00  0.00    +0.166 C 
ATOM      5  H   UNL     1      -0.823   1.824   3.655  0.00  0.00    +0.163 HD
ATOM      6  H   UNL     1       0.688   4.818   2.623  0.00  0.00    +0.159 HD
ATOM      7  H   UNL     1      -0.773   4.086   3.169  0.00  0.00    +0.159 HD
ATOM      8  H   UNL     1       2.629   1.873   2.621  0.00  0.00    +0.159 HD
ATOM      9  H   UNL     1       2.611   3.566   2.313  0.00  0.00    +0.159 HD
ENDROOT
BRANCH   1  10
ATOM     10  C   UNL     1       0.704   0.361   3.397  0.00  0.00    +0.151 C 
BRANCH  10  11
ATOM     11  C   UNL     1      -0.300  -0.575   4.013  0.00  0.00    -0.028 A 
ATOM     12  C   UNL     1      -1.469  -0.075   4.605  0.00  0.00    +0.005 A 
ATOM     13  C   UNL     1      -0.089  -1.962   4.003  0.00  0.00    +0.005 A 
ATOM     14  C   UNL     1      -2.416  -0.946   5.151  0.00  0.00    +0.000 A 
ATOM     15  C   UNL     1      -1.036  -2.828   4.550  0.00  0.00    +0.000 A 
ATOM     16  C   UNL     1      -2.200  -2.320   5.122  0.00  0.00    +0.000 A 
ENDBRANCH  10  11
ENDBRANCH   1  10
TORSDOF 2
ENDMDL
MODEL 2
REMARK VINA RESULT:    -5.217      3.051      4.871
REMARK INTER + INTRA:          -5.951
REMARK INTER:                  -5.809
REMARK INTRA:                  -0.142
REMARK UNBOUND:                -0.123
REMARK  Name = 1550473
REMARK  2 active torsions:
REMARK  status: ('A' for Active; 'I' for Inactive)
REMARK    1  A    between atoms: N_1  and  C_4
REMARK    2  A    between atoms: C_4  and  C_5
REMARK                            x       y       z     vdW  Elec       q    Type
REMARK                         _______ _______ _______ _____ _____    ______ ____
ROOT
ATOM      1  N   UNL     1      -1.490  -1.960   2.824  0.00  0.00    -0.354 N 
ATOM      2  N   UNL     1      -3.290  -3.409   2.980  0.00  0.00    -0.372 N 
ATOM      3  N   UNL     1      -1.370  -3.898   4.136  0.00  0.00    -0.372 N 
ATOM      4  C   UNL     1      -2.036  -3.081   3.314  0.00  0.00    +0.166 C 
ATOM      5  H   UNL     1      -2.037  -1.399   2.182  0.00  0.00    +0.163 HD
ATOM      6  H   UNL     1      -3.731  -4.246   3.336  0.00  0.00    +0.159 HD
ATOM      7  H   UNL     1      -3.851  -2.822   2.374  0.00  0.00    +0.159 HD
ATOM      8  H   UNL     1      -0.418  -3.711   4.422  0.00  0.00    +0.159 HD
ATOM      9  H   UNL     1      -1.789  -4.747   4.494  0.00  0.00    +0.159 HD
ENDROOT
BRANCH   1  10
ATOM     10  C   UNL     1      -0.151  -1.485   3.169  0.00  0.00    +0.151 C 
BRANCH  10  11
ATOM     11  C   UNL     1      -0.252  -0.093   3.729  0.00  0.00    -0.028 A 
ATOM     12  C   UNL     1      -1.127   0.186   4.789  0.00  0.00    +0.005 A 
ATOM     13  C   UNL     1       0.528   0.950   3.207  0.00  0.00    +0.005 A 
ATOM     14  C   UNL     1      -1.200   1.472   5.329  0.00  0.00    +0.000 A 
ATOM     15  C   UNL     1       0.452   2.233   3.749  0.00  0.00    +0.000 A 
ATOM     16  C   UNL     1      -0.410   2.493   4.811  0.00  0.00    +0.000 A 
ENDBRANCH  10  11
ENDBRANCH   1  10
TORSDOF 2
ENDMDL
MODEL 3
REMARK VINA RESULT:    -5.114      1.969      2.575
REMARK INTER + INTRA:          -5.835
REMARK INTER:                  -5.704
REMARK INTRA:                  -0.131
REMARK UNBOUND:                -0.123
REMARK  Name = 1550473
REMARK  2 active torsions:
REMARK  status: ('A' for Active; 'I' for Inactive)
REMARK    1  A    between atoms: N_1  and  C_4
REMARK    2  A    between atoms: C_4  and  C_5
REMARK                            x       y       z     vdW  Elec       q    Type
REMARK                         _______ _______ _______ _____ _____    ______ ____
ROOT
ATOM      1  N   UNL     1      -1.052   0.947   4.704  0.00  0.00    -0.354 N 
ATOM      2  N   UNL     1      -0.304   2.754   5.945  0.00  0.00    -0.372 N 
ATOM      3  N   UNL     1       1.234   1.440   4.862  0.00  0.00    -0.372 N 
ATOM      4  C   UNL     1      -0.043   1.701   5.161  0.00  0.00    +0.166 C 
ATOM      5  H   UNL     1      -1.996   1.180   4.992  0.00  0.00    +0.163 HD
ATOM      6  H   UNL     1       0.436   3.342   6.303  0.00  0.00    +0.159 HD
ATOM      7  H   UNL     1      -1.251   3.011   6.194  0.00  0.00    +0.159 HD
ATOM      8  H   UNL     1       1.498   0.656   4.280  0.00  0.00    +0.159 HD
ATOM      9  H   UNL     1       1.989   2.010   5.220  0.00  0.00    +0.159 HD
ENDROOT
BRANCH   1  10
ATOM     10  C   UNL     1      -0.880  -0.189   3.800  0.00  0.00    +0.151 C 
BRANCH  10  11
ATOM     11  C   UNL     1      -1.970  -1.191   4.058  0.00  0.00    -0.028 A 
ATOM     12  C   UNL     1      -2.252  -2.195   3.119  0.00  0.00    +0.005 A 
ATOM     13  C   UNL     1      -2.722  -1.147   5.243  0.00  0.00    +0.005 A 
ATOM     14  C   UNL     1      -3.245  -3.144   3.372  0.00  0.00    +0.000 A 
ATOM     15  C   UNL     1      -3.713  -2.097   5.491  0.00  0.00    +0.000 A 
ATOM     16  C   UNL     1      -3.972  -3.097   4.557  0.00  0.00    +0.000 A 
ENDBRANCH  10  11
ENDBRANCH   1  10
TORSDOF 2
ENDMDL
MODEL 4
REMARK VINA RESULT:    -5.101     13.241     14.010
REMARK INTER + INTRA:          -5.821
REMARK INTER:                  -5.676
REMARK INTRA:                  -0.145
REMARK UNBOUND:                -0.123
REMARK  Name = 1550473
REMARK  2 active torsions:
REMARK  status: ('A' for Active; 'I' for Inactive)
REMARK    1  A    between atoms: N_1  and  C_4
REMARK    2  A    between atoms: C_4  and  C_5
REMARK                            x       y       z     vdW  Elec       q    Type
REMARK                         _______ _______ _______ _____ _____    ______ ____
ROOT
ATOM      1  N   UNL     1      -6.537   4.528  16.011  0.00  0.00    -0.354 N 
ATOM      2  N   UNL     1      -6.442   6.718  15.263  0.00  0.00    -0.372 N 
ATOM      3  N   UNL     1      -6.336   5.016  13.728  0.00  0.00    -0.372 N 
ATOM      4  C   UNL     1      -6.438   5.405  15.003  0.00  0.00    +0.166 C 
ATOM      5  H   UNL     1      -6.581   4.887  16.958  0.00  0.00    +0.163 HD
ATOM      6  H   UNL     1      -6.373   7.403  14.522  0.00  0.00    +0.159 HD
ATOM      7  H   UNL     1      -6.533   7.074  16.206  0.00  0.00    +0.159 HD
ATOM      8  H   UNL     1      -6.321   4.039  13.465  0.00  0.00    +0.159 HD
ATOM      9  H   UNL     1      -6.254   5.687  12.974  0.00  0.00    +0.159 HD
ENDROOT
BRANCH   1  10
ATOM     10  C   UNL     1      -6.596   3.079  15.831  0.00  0.00    +0.151 C 
BRANCH  10  11
ATOM     11  C   UNL     1      -5.458   2.444  16.582  0.00  0.00    -0.028 A 
ATOM     12  C   UNL     1      -5.225   1.064  16.489  0.00  0.00    +0.005 A 
ATOM     13  C   UNL     1      -4.605   3.218  17.384  0.00  0.00    +0.005 A 
ATOM     14  C   UNL     1      -4.150   0.479  17.162  0.00  0.00    +0.000 A 
ATOM     15  C   UNL     1      -3.533   2.630  18.056  0.00  0.00    +0.000 A 
ATOM     16  C   UNL     1      -3.305   1.261  17.942  0.00  0.00    +0.000 A 
ENDBRANCH  10  11
ENDBRANCH   1  10
TORSDOF 2
ENDMDL
MODEL 5
REMARK VINA RESULT:    -5.045     21.327     22.288
REMARK INTER + INTRA:          -5.758
REMARK INTER:                  -5.614
REMARK INTRA:                  -0.145
REMARK UNBOUND:                -0.123
REMARK  Name = 1550473
REMARK  2 active torsions:
REMARK  status: ('A' for Active; 'I' for Inactive)
REMARK    1  A    between atoms: N_1  and  C_4
REMARK    2  A    between atoms: C_4  and  C_5
REMARK                            x       y       z     vdW  Elec       q    Type
REMARK                         _______ _______ _______ _____ _____    ______ ____
ROOT
ATOM      1  N   UNL     1       4.228  12.672 -12.640  0.00  0.00    -0.354 N 
ATOM      2  N   UNL     1       3.417  10.600 -13.281  0.00  0.00    -0.372 N 
ATOM      3  N   UNL     1       4.097  12.074 -14.902  0.00  0.00    -0.372 N 
ATOM      4  C   UNL     1       3.920  11.797 -13.606  0.00  0.00    +0.166 C 
ATOM      5  H   UNL     1       4.041  12.413 -11.678  0.00  0.00    +0.163 HD
ATOM      6  H   UNL     1       3.178   9.917 -13.988  0.00  0.00    +0.159 HD
ATOM      7  H   UNL     1       3.275  10.326 -12.317  0.00  0.00    +0.159 HD
ATOM      8  H   UNL     1       4.467  12.962 -15.214  0.00  0.00    +0.159 HD
ATOM      9  H   UNL     1       3.854  11.409 -15.625  0.00  0.00    +0.159 HD
ENDROOT
BRANCH   1  10
ATOM     10  C   UNL     1       4.830  13.982 -12.885  0.00  0.00    +0.151 C 
BRANCH  10  11
ATOM     11  C   UNL     1       4.018  15.035 -12.184  0.00  0.00    -0.028 A 
ATOM     12  C   UNL     1       2.623  15.070 -12.326  0.00  0.00    +0.005 A 
ATOM     13  C   UNL     1       4.637  15.997 -11.371  0.00  0.00    +0.005 A 
ATOM     14  C   UNL     1       1.865  16.030 -11.650  0.00  0.00    +0.000 A 
ATOM     15  C   UNL     1       3.876  16.955 -10.699  0.00  0.00    +0.000 A 
ATOM     16  C   UNL     1       2.491  16.969 -10.837  0.00  0.00    +0.000 A 
ENDBRANCH  10  11
ENDBRANCH   1  10
TORSDOF 2
ENDMDL
MODEL 6
REMARK VINA RESULT:    -4.886     21.314     22.756
REMARK INTER + INTRA:          -5.580
REMARK INTER:                  -5.399
REMARK INTRA:                  -0.181
REMARK UNBOUND:                -0.123
REMARK  Name = 1550473
REMARK  2 active torsions:
REMARK  status: ('A' for Active; 'I' for Inactive)
REMARK    1  A    between atoms: N_1  and  C_4
REMARK    2  A    between atoms: C_4  and  C_5
REMARK                            x       y       z     vdW  Elec       q    Type
REMARK                         _______ _______ _______ _____ _____    ______ ____
ROOT
ATOM      1  N   UNL     1       2.781  15.364 -13.515  0.00  0.00    -0.354 N 
ATOM      2  N   UNL     1       2.133  16.757 -15.248  0.00  0.00    -0.372 N 
ATOM      3  N   UNL     1       4.359  16.619 -14.709  0.00  0.00    -0.372 N 
ATOM      4  C   UNL     1       3.098  16.238 -14.479  0.00  0.00    +0.166 C 
ATOM      5  H   UNL     1       1.803  15.140 -13.372  0.00  0.00    +0.163 HD
ATOM      6  H   UNL     1       2.342  17.416 -15.986  0.00  0.00    +0.159 HD
ATOM      7  H   UNL     1       1.161  16.496 -15.133  0.00  0.00    +0.159 HD
ATOM      8  H   UNL     1       5.133  16.269 -14.160  0.00  0.00    +0.159 HD
ATOM      9  H   UNL     1       4.587  17.287 -15.435  0.00  0.00    +0.159 HD
ENDROOT
BRANCH   1  10
ATOM     10  C   UNL     1       3.762  14.700 -12.658  0.00  0.00    +0.151 C 
BRANCH  10  11
ATOM     11  C   UNL     1       3.967  13.293 -13.146  0.00  0.00    -0.028 A 
ATOM     12  C   UNL     1       5.070  12.972 -13.951  0.00  0.00    +0.005 A 
ATOM     13  C   UNL     1       3.066  12.274 -12.802  0.00  0.00    +0.005 A 
ATOM     14  C   UNL     1       5.278  11.659 -14.380  0.00  0.00    +0.000 A 
ATOM     15  C   UNL     1       3.277  10.964 -13.232  0.00  0.00    +0.000 A 
ATOM     16  C   UNL     1       4.384  10.657 -14.019  0.00  0.00    +0.000 A 
ENDBRANCH  10  11
ENDBRANCH   1  10
TORSDOF 2
ENDMDL
MODEL 7
REMARK VINA RESULT:    -4.880     21.134     22.232
REMARK INTER + INTRA:          -5.574
REMARK INTER:                  -5.441
REMARK INTRA:                  -0.133
REMARK UNBOUND:                -0.123
REMARK  Name = 1550473
REMARK  2 active torsions:
REMARK  status: ('A' for Active; 'I' for Inactive)
REMARK    1  A    between atoms: N_1  and  C_4
REMARK    2  A    between atoms: C_4  and  C_5
REMARK                            x       y       z     vdW  Elec       q    Type
REMARK                         _______ _______ _______ _____ _____    ______ ____
ROOT
ATOM      1  N   UNL     1       5.421  15.526 -12.458  0.00  0.00    -0.354 N 
ATOM      2  N   UNL     1       7.258  16.875 -12.044  0.00  0.00    -0.372 N 
ATOM      3  N   UNL     1       5.712  16.564 -10.377  0.00  0.00    -0.372 N 
ATOM      4  C   UNL     1       6.117  16.313 -11.627  0.00  0.00    +0.166 C 
ATOM      5  H   UNL     1       5.766  15.401 -13.403  0.00  0.00    +0.163 HD
ATOM      6  H   UNL     1       7.806  17.471 -11.438  0.00  0.00    +0.159 HD
ATOM      7  H   UNL     1       7.624  16.711 -12.973  0.00  0.00    +0.159 HD
ATOM      8  H   UNL     1       4.857  16.175 -10.003  0.00  0.00    +0.159 HD
ATOM      9  H   UNL     1       6.241  17.167  -9.759  0.00  0.00    +0.159 HD
ENDROOT
BRANCH   1  10
ATOM     10  C   UNL     1       4.195  14.824 -12.085  0.00  0.00    +0.151 C 
BRANCH  10  11
ATOM     11  C   UNL     1       4.155  13.497 -12.791  0.00  0.00    -0.028 A 
ATOM     12  C   UNL     1       5.148  13.154 -13.720  0.00  0.00    +0.005 A 
ATOM     13  C   UNL     1       3.128  12.575 -12.532  0.00  0.00    +0.005 A 
ATOM     14  C   UNL     1       5.128  11.909 -14.354  0.00  0.00    +0.000 A 
ATOM     15  C   UNL     1       3.111  11.334 -13.168  0.00  0.00    +0.000 A 
ATOM     16  C   UNL     1       4.112  11.001 -14.077  0.00  0.00    +0.000 A 
ENDBRANCH  10  11
ENDBRANCH   1  10
TORSDOF 2
ENDMDL
MODEL 8
REMARK VINA RESULT:    -4.879     12.900     13.730
REMARK INTER + INTRA:          -5.573
REMARK INTER:                  -5.399
REMARK INTRA:                  -0.174
REMARK UNBOUND:                -0.123
REMARK  Name = 1550473
REMARK  2 active torsions:
REMARK  status: ('A' for Active; 'I' for Inactive)
REMARK    1  A    between atoms: N_1  and  C_4
REMARK    2  A    between atoms: C_4  and  C_5
REMARK                            x       y       z     vdW  Elec       q    Type
REMARK                         _______ _______ _______ _____ _____    ______ ____
ROOT
ATOM      1  N   UNL     1      -6.728   3.263  14.928  0.00  0.00    -0.354 N 
ATOM      2  N   UNL     1      -6.367   5.280  13.850  0.00  0.00    -0.372 N 
ATOM      3  N   UNL     1      -6.731   5.283  16.115  0.00  0.00    -0.372 N 
ATOM      4  C   UNL     1      -6.612   4.597  14.974  0.00  0.00    +0.166 C 
ATOM      5  H   UNL     1      -6.657   2.804  14.027  0.00  0.00    +0.163 HD
ATOM      6  H   UNL     1      -6.270   6.287  13.854  0.00  0.00    +0.159 HD
ATOM      7  H   UNL     1      -6.250   4.815  12.958  0.00  0.00    +0.159 HD
ATOM      8  H   UNL     1      -6.922   4.827  16.997  0.00  0.00    +0.159 HD
ATOM      9  H   UNL     1      -6.650   6.292  16.138  0.00  0.00    +0.159 HD
ENDROOT
BRANCH   1  10
ATOM     10  C   UNL     1      -6.942   2.420  16.103  0.00  0.00    +0.151 C 
BRANCH  10  11
ATOM     11  C   UNL     1      -5.633   1.798  16.505  0.00  0.00    -0.028 A 
ATOM     12  C   UNL     1      -4.789   2.444  17.420  0.00  0.00    +0.005 A 
ATOM     13  C   UNL     1      -5.233   0.560  15.979  0.00  0.00    +0.005 A 
ATOM     14  C   UNL     1      -3.587   1.852  17.817  0.00  0.00    +0.000 A 
ATOM     15  C   UNL     1      -4.032  -0.027  16.377  0.00  0.00    +0.000 A 
ATOM     16  C   UNL     1      -3.211   0.618  17.298  0.00  0.00    +0.000 A 
ENDBRANCH  10  11
ENDBRANCH   1  10
TORSDOF 2
ENDMDL
MODEL 9
REMARK VINA RESULT:    -4.724     21.946     22.448
REMARK INTER + INTRA:          -5.400
REMARK INTER:                  -5.241
REMARK INTRA:                  -0.159
REMARK UNBOUND:                -0.123
REMARK  Name = 1550473
REMARK  2 active torsions:
REMARK  status: ('A' for Active; 'I' for Inactive)
REMARK    1  A    between atoms: N_1  and  C_4
REMARK    2  A    between atoms: C_4  and  C_5
REMARK                            x       y       z     vdW  Elec       q    Type
REMARK                         _______ _______ _______ _____ _____    ______ ____
ROOT
ATOM      1  N   UNL     1     -14.133  -0.084 -11.646  0.00  0.00    -0.354 N 
ATOM      2  N   UNL     1     -13.562  -1.454  -9.868  0.00  0.00    -0.372 N 
ATOM      3  N   UNL     1     -15.164  -2.167 -11.348  0.00  0.00    -0.372 N 
ATOM      4  C   UNL     1     -14.292  -1.227 -10.967  0.00  0.00    +0.166 C 
ATOM      5  H   UNL     1     -13.478   0.602 -11.288  0.00  0.00    +0.163 HD
ATOM      6  H   UNL     1     -13.658  -2.309  -9.337  0.00  0.00    +0.159 HD
ATOM      7  H   UNL     1     -12.875  -0.787  -9.538  0.00  0.00    +0.159 HD
ATOM      8  H   UNL     1     -15.749  -2.055 -12.165  0.00  0.00    +0.159 HD
ATOM      9  H   UNL     1     -15.282  -3.025 -10.823  0.00  0.00    +0.159 HD
ENDROOT
BRANCH   1  10
ATOM     10  C   UNL     1     -14.840   0.237 -12.885  0.00  0.00    +0.151 C 
BRANCH  10  11
ATOM     11  C   UNL     1     -15.735   1.422 -12.647  0.00  0.00    -0.028 A 
ATOM     12  C   UNL     1     -15.226   2.726 -12.730  0.00  0.00    +0.005 A 
ATOM     13  C   UNL     1     -17.094   1.247 -12.345  0.00  0.00    +0.005 A 
ATOM     14  C   UNL     1     -16.063   3.828 -12.539  0.00  0.00    +0.000 A 
ATOM     15  C   UNL     1     -17.927   2.350 -12.154  0.00  0.00    +0.000 A 
ATOM     16  C   UNL     1     -17.411   3.640 -12.253  0.00  0.00    +0.000 A 
ENDBRANCH  10  11
ENDBRANCH   1  10
TORSDOF 2
ENDMDL
