MODEL 1
REMARK VINA RESULT:    -5.532      0.000      0.000
REMARK INTER + INTRA:          -6.299
REMARK INTER:                  -6.179
REMARK INTRA:                  -0.120
REMARK UNBOUND:                -0.120
REMARK  Name = 1550473
REMARK  2 active torsions:
REMARK  status: ('A' for Active; 'I' for Inactive)
REMARK    1  A    between atoms: N_1  and  C_4
REMARK    2  A    between atoms: C_4  and  C_5
REMARK                            x       y       z     vdW  Elec       q    Type
REMARK                         _______ _______ _______ _____ _____    ______ ____
ROOT
ATOM      1  N   UNL     1       0.555   0.898  -1.420  0.00  0.00    -0.354 N 
ATOM      2  N   UNL     1      -0.103   0.092  -3.489  0.00  0.00    -0.372 N 
ATOM      3  N   UNL     1      -0.100   2.359  -3.132  0.00  0.00    -0.372 N 
ATOM      4  C   UNL     1       0.121   1.124  -2.667  0.00  0.00    +0.166 C 
ATOM      5  H   UNL     1       0.674  -0.062  -1.119  0.00  0.00    +0.163 HD
ATOM      6  H   UNL     1      -0.428   0.232  -4.437  0.00  0.00    +0.159 HD
ATOM      7  H   UNL     1       0.060  -0.864  -3.201  0.00  0.00    +0.159 HD
ATOM      8  H   UNL     1       0.045   3.180  -2.559  0.00  0.00    +0.159 HD
ATOM      9  H   UNL     1      -0.436   2.519  -4.073  0.00  0.00    +0.159 HD
ENDROOT
BRANCH   1  10
ATOM     10  C   UNL     1       0.881   1.954  -0.463  0.00  0.00    +0.151 C 
BRANCH  10  11
ATOM     11  C   UNL     1       1.263   1.327   0.849  0.00  0.00    -0.028 A 
ATOM     12  C   UNL     1       1.653  -0.019   0.908  0.00  0.00    +0.005 A 
ATOM     13  C   UNL     1       1.242   2.075   2.036  0.00  0.00    +0.005 A 
ATOM     14  C   UNL     1       2.036  -0.594   2.122  0.00  0.00    +0.000 A 
ATOM     15  C   UNL     1       1.626   1.498   3.246  0.00  0.00    +0.000 A 
ATOM     16  C   UNL     1       2.025   0.164   3.289  0.00  0.00    +0.000 A 
ENDBRANCH  10  11
ENDBRANCH   1  10
TORSDOF 2
ENDMDL
MODEL 2
REMARK VINA RESULT:    -5.292      1.888      2.221
REMARK INTER + INTRA:          -6.031
REMARK INTER:                  -5.890
REMARK INTRA:                  -0.141
REMARK UNBOUND:                -0.120
REMARK  Name = 1550473
REMARK  2 active torsions:
REMARK  status: ('A' for Active; 'I' for Inactive)
REMARK    1  A    between atoms: N_1  and  C_4
REMARK    2  A    between atoms: C_4  and  C_5
REMARK                            x       y       z     vdW  Elec       q    Type
REMARK                         _______ _______ _______ _____ _____    ______ ____
ROOT
ATOM      1  N   UNL     1       3.033   2.238  -0.974  0.00  0.00    -0.354 N 
ATOM      2  N   UNL     1       1.574   2.838  -2.670  0.00  0.00    -0.372 N 
ATOM      3  N   UNL     1       1.527   4.013  -0.699  0.00  0.00    -0.372 N 
ATOM      4  C   UNL     1       2.053   3.028  -1.434  0.00  0.00    +0.166 C 
ATOM      5  H   UNL     1       3.368   1.490  -1.570  0.00  0.00    +0.163 HD
ATOM      6  H   UNL     1       0.837   3.421  -3.045  0.00  0.00    +0.159 HD
ATOM      7  H   UNL     1       1.942   2.119  -3.280  0.00  0.00    +0.159 HD
ATOM      8  H   UNL     1       1.840   4.204   0.243  0.00  0.00    +0.159 HD
ATOM      9  H   UNL     1       0.781   4.599  -1.053  0.00  0.00    +0.159 HD
ENDROOT
BRANCH   1  10
ATOM     10  C   UNL     1       3.661   2.395   0.336  0.00  0.00    +0.151 C 
BRANCH  10  11
ATOM     11  C   UNL     1       2.900   1.582   1.347  0.00  0.00    -0.028 A 
ATOM     12  C   UNL     1       2.529   0.260   1.062  0.00  0.00    +0.005 A 
ATOM     13  C   UNL     1       2.553   2.126   2.593  0.00  0.00    +0.005 A 
ATOM     14  C   UNL     1       1.848  -0.506   2.012  0.00  0.00    +0.000 A 
ATOM     15  C   UNL     1       1.873   1.358   3.538  0.00  0.00    +0.000 A 
ATOM     16  C   UNL     1       1.523   0.042   3.248  0.00  0.00    +0.000 A 
ENDBRANCH  10  11
ENDBRANCH   1  10
TORSDOF 2
ENDMDL
MODEL 3
REMARK VINA RESULT:    -5.111     23.299     24.235
REMARK INTER + INTRA:          -5.829
REMARK INTER:                  -5.728
REMARK INTRA:                  -0.101
REMARK UNBOUND:                -0.120
REMARK  Name = 1550473
REMARK  2 active torsions:
REMARK  status: ('A' for Active; 'I' for Inactive)
REMARK    1  A    between atoms: N_1  and  C_4
REMARK    2  A    between atoms: C_4  and  C_5
REMARK                            x       y       z     vdW  Elec       q    Type
REMARK                         _______ _______ _______ _____ _____    ______ ____
ROOT
ATOM      1  N   UNL     1     -10.043 -16.048 -14.757  0.00  0.00    -0.354 N 
ATOM      2  N   UNL     1     -10.495 -15.778 -17.012  0.00  0.00    -0.372 N 
ATOM      3  N   UNL     1      -8.468 -15.076 -16.195  0.00  0.00    -0.372 N 
ATOM      4  C   UNL     1      -9.663 -15.635 -15.973  0.00  0.00    +0.166 C 
ATOM      5  H   UNL     1     -10.973 -16.435 -14.648  0.00  0.00    +0.163 HD
ATOM      6  H   UNL     1     -10.234 -15.479 -17.942  0.00  0.00    +0.159 HD
ATOM      7  H   UNL     1     -11.406 -16.208 -16.910  0.00  0.00    +0.159 HD
ATOM      8  H   UNL     1      -7.797 -14.934 -15.453  0.00  0.00    +0.159 HD
ATOM      9  H   UNL     1      -8.194 -14.760 -17.117  0.00  0.00    +0.159 HD
ENDROOT
BRANCH   1  10
ATOM     10  C   UNL     1      -9.192 -15.986 -13.570  0.00  0.00    +0.151 C 
BRANCH  10  11
ATOM     11  C   UNL     1     -10.061 -15.903 -12.346  0.00  0.00    -0.028 A 
ATOM     12  C   UNL     1     -10.340 -17.053 -11.592  0.00  0.00    +0.005 A 
ATOM     13  C   UNL     1     -10.605 -14.678 -11.931  0.00  0.00    +0.005 A 
ATOM     14  C   UNL     1     -11.123 -16.972 -10.437  0.00  0.00    +0.000 A 
ATOM     15  C   UNL     1     -11.387 -14.601 -10.779  0.00  0.00    +0.000 A 
ATOM     16  C   UNL     1     -11.643 -15.748 -10.031  0.00  0.00    +0.000 A 
ENDBRANCH  10  11
ENDBRANCH   1  10
TORSDOF 2
ENDMDL
MODEL 4
REMARK VINA RESULT:    -5.023      3.669      5.269
REMARK INTER + INTRA:          -5.730
REMARK INTER:                  -5.564
REMARK INTRA:                  -0.166
REMARK UNBOUND:                -0.120
REMARK  Name = 1550473
REMARK  2 active torsions:
REMARK  status: ('A' for Active; 'I' for Inactive)
REMARK    1  A    between atoms: N_1  and  C_4
REMARK    2  A    between atoms: C_4  and  C_5
REMARK                            x       y       z     vdW  Elec       q    Type
REMARK                         _______ _______ _______ _____ _____    ______ ____
ROOT
ATOM      1  N   UNL     1       2.807   0.559   2.461  0.00  0.00    -0.354 N 
ATOM      2  N   UNL     1       2.874  -0.143   4.667  0.00  0.00    -0.372 N 
ATOM      3  N   UNL     1       0.941   0.791   3.859  0.00  0.00    -0.372 N 
ATOM      4  C   UNL     1       2.204   0.408   3.648  0.00  0.00    +0.166 C 
ATOM      5  H   UNL     1       3.776   0.276   2.374  0.00  0.00    +0.163 HD
ATOM      6  H   UNL     1       2.445  -0.273   5.573  0.00  0.00    +0.159 HD
ATOM      7  H   UNL     1       3.828  -0.467   4.564  0.00  0.00    +0.159 HD
ATOM      8  H   UNL     1       0.382   1.219   3.133  0.00  0.00    +0.159 HD
ATOM      9  H   UNL     1       0.497   0.680   4.762  0.00  0.00    +0.159 HD
ENDROOT
BRANCH   1  10
ATOM     10  C   UNL     1       2.148   1.099   1.272  0.00  0.00    +0.151 C 
BRANCH  10  11
ATOM     11  C   UNL     1       2.542   2.540   1.105  0.00  0.00    -0.028 A 
ATOM     12  C   UNL     1       1.608   3.485   0.653  0.00  0.00    +0.005 A 
ATOM     13  C   UNL     1       3.844   2.969   1.402  0.00  0.00    +0.005 A 
ATOM     14  C   UNL     1       1.965   4.830   0.526  0.00  0.00    +0.000 A 
ATOM     15  C   UNL     1       4.196   4.313   1.272  0.00  0.00    +0.000 A 
ATOM     16  C   UNL     1       3.256   5.243   0.837  0.00  0.00    +0.000 A 
ENDBRANCH  10  11
ENDBRANCH   1  10
TORSDOF 2
ENDMDL
MODEL 5
REMARK VINA RESULT:    -4.869     22.211     23.732
REMARK INTER + INTRA:          -5.558
REMARK INTER:                  -5.424
REMARK INTRA:                  -0.134
REMARK UNBOUND:                -0.120
REMARK  Name = 1550473
REMARK  2 active torsions:
REMARK  status: ('A' for Active; 'I' for Inactive)
REMARK    1  A    between atoms: N_1  and  C_4
REMARK    2  A    between atoms: C_4  and  C_5
REMARK                            x       y       z     vdW  Elec       q    Type
REMARK                         _______ _______ _______ _____ _____    ______ ____
ROOT
ATOM      1  N   UNL     1     -12.707 -14.393 -10.172  0.00  0.00    -0.354 N 
ATOM      2  N   UNL     1     -14.795 -13.648  -9.503  0.00  0.00    -0.372 N 
ATOM      3  N   UNL     1     -13.010 -12.214  -9.364  0.00  0.00    -0.372 N 
ATOM      4  C   UNL     1     -13.489 -13.421  -9.683  0.00  0.00    +0.166 C 
ATOM      5  H   UNL     1     -13.125 -15.296 -10.365  0.00  0.00    +0.163 HD
ATOM      6  H   UNL     1     -15.411 -12.933  -9.140  0.00  0.00    +0.159 HD
ATOM      7  H   UNL     1     -15.220 -14.536  -9.741  0.00  0.00    +0.159 HD
ATOM      8  H   UNL     1     -12.031 -11.981  -9.471  0.00  0.00    +0.159 HD
ATOM      9  H   UNL     1     -13.608 -11.489  -8.988  0.00  0.00    +0.159 HD
ENDROOT
BRANCH   1  10
ATOM     10  C   UNL     1     -11.282 -14.231 -10.456  0.00  0.00    +0.151 C 
BRANCH  10  11
ATOM     11  C   UNL     1     -10.944 -14.978 -11.716  0.00  0.00    -0.028 A 
ATOM     12  C   UNL     1     -11.932 -15.235 -12.678  0.00  0.00    +0.005 A 
ATOM     13  C   UNL     1      -9.637 -15.428 -11.957  0.00  0.00    +0.005 A 
ATOM     14  C   UNL     1     -11.613 -15.902 -13.863  0.00  0.00    +0.000 A 
ATOM     15  C   UNL     1      -9.322 -16.095 -13.141  0.00  0.00    +0.000 A 
ATOM     16  C   UNL     1     -10.310 -16.330 -14.095  0.00  0.00    +0.000 A 
ENDBRANCH  10  11
ENDBRANCH   1  10
TORSDOF 2
ENDMDL
MODEL 6
REMARK VINA RESULT:    -4.840     23.232     24.940
REMARK INTER + INTRA:          -5.526
REMARK INTER:                  -5.401
REMARK INTRA:                  -0.125
REMARK UNBOUND:                -0.120
REMARK  Name = 1550473
REMARK  2 active torsions:
REMARK  status: ('A' for Active; 'I' for Inactive)
REMARK    1  A    between atoms: N_1  and  C_4
REMARK    2  A    between atoms: C_4  and  C_5
REMARK                            x       y       z     vdW  Elec       q    Type
REMARK                         _______ _______ _______ _____ _____    ______ ____
ROOT
ATOM      1  N   UNL     1     -11.443 -16.545 -10.790  0.00  0.00    -0.354 N 
ATOM      2  N   UNL     1     -13.276 -15.752  -9.619  0.00  0.00    -0.372 N 
ATOM      3  N   UNL     1     -11.364 -14.484  -9.678  0.00  0.00    -0.372 N 
ATOM      4  C   UNL     1     -12.014 -15.597 -10.036  0.00  0.00    +0.166 C 
ATOM      5  H   UNL     1     -11.978 -17.379 -11.002  0.00  0.00    +0.163 HD
ATOM      6  H   UNL     1     -13.735 -15.051  -9.051  0.00  0.00    +0.159 HD
ATOM      7  H   UNL     1     -13.825 -16.565  -9.870  0.00  0.00    +0.159 HD
ATOM      8  H   UNL     1     -10.408 -14.310  -9.955  0.00  0.00    +0.159 HD
ATOM      9  H   UNL     1     -11.802 -13.777  -9.101  0.00  0.00    +0.159 HD
ENDROOT
BRANCH   1  10
ATOM     10  C   UNL     1     -10.092 -16.449 -11.341  0.00  0.00    +0.151 C 
BRANCH  10  11
ATOM     11  C   UNL     1     -10.152 -16.654 -12.829  0.00  0.00    -0.028 A 
ATOM     12  C   UNL     1      -9.773 -15.627 -13.706  0.00  0.00    +0.005 A 
ATOM     13  C   UNL     1     -10.582 -17.876 -13.370  0.00  0.00    +0.005 A 
ATOM     14  C   UNL     1      -9.800 -15.827 -15.088  0.00  0.00    +0.000 A 
ATOM     15  C   UNL     1     -10.609 -18.071 -14.751  0.00  0.00    +0.000 A 
ATOM     16  C   UNL     1     -10.216 -17.048 -15.609  0.00  0.00    +0.000 A 
ENDBRANCH  10  11
ENDBRANCH   1  10
TORSDOF 2
ENDMDL
MODEL 7
REMARK VINA RESULT:    -4.715     18.177     19.418
REMARK INTER + INTRA:          -5.387
REMARK INTER:                  -5.271
REMARK INTRA:                  -0.116
REMARK UNBOUND:                -0.120
REMARK  Name = 1550473
REMARK  2 active torsions:
REMARK  status: ('A' for Active; 'I' for Inactive)
REMARK    1  A    between atoms: N_1  and  C_4
REMARK    2  A    between atoms: C_4  and  C_5
REMARK                            x       y       z     vdW  Elec       q    Type
REMARK                         _______ _______ _______ _____ _____    ______ ____
ROOT
ATOM      1  N   UNL     1      -3.228  16.198   8.078  0.00  0.00    -0.354 N 
ATOM      2  N   UNL     1      -3.516  13.901   8.002  0.00  0.00    -0.372 N 
ATOM      3  N   UNL     1      -4.042  15.147   6.148  0.00  0.00    -0.372 N 
ATOM      4  C   UNL     1      -3.595  15.098   7.407  0.00  0.00    +0.166 C 
ATOM      5  H   UNL     1      -2.927  16.097   9.040  0.00  0.00    +0.163 HD
ATOM      6  H   UNL     1      -3.782  13.053   7.520  0.00  0.00    +0.159 HD
ATOM      7  H   UNL     1      -3.171  13.799   8.949  0.00  0.00    +0.159 HD
ATOM      8  H   UNL     1      -4.130  16.019   5.645  0.00  0.00    +0.159 HD
ATOM      9  H   UNL     1      -4.324  14.310   5.653  0.00  0.00    +0.159 HD
ENDROOT
BRANCH   1  10
ATOM     10  C   UNL     1      -3.225  17.543   7.504  0.00  0.00    +0.151 C 
BRANCH  10  11
ATOM     11  C   UNL     1      -2.907  18.538   8.585  0.00  0.00    -0.028 A 
ATOM     12  C   UNL     1      -2.184  19.703   8.291  0.00  0.00    +0.005 A 
ATOM     13  C   UNL     1      -3.332  18.325   9.906  0.00  0.00    +0.005 A 
ATOM     14  C   UNL     1      -1.915  20.642   9.289  0.00  0.00    +0.000 A 
ATOM     15  C   UNL     1      -3.061  19.265  10.900  0.00  0.00    +0.000 A 
ATOM     16  C   UNL     1      -2.354  20.425  10.590  0.00  0.00    +0.000 A 
ENDBRANCH  10  11
ENDBRANCH   1  10
TORSDOF 2
ENDMDL
MODEL 8
REMARK VINA RESULT:    -4.607     12.281     13.529
REMARK INTER + INTRA:          -5.265
REMARK INTER:                  -5.162
REMARK INTRA:                  -0.103
REMARK UNBOUND:                -0.120
REMARK  Name = 1550473
REMARK  2 active torsions:
REMARK  status: ('A' for Active; 'I' for Inactive)
REMARK    1  A    between atoms: N_1  and  C_4
REMARK    2  A    between atoms: C_4  and  C_5
REMARK                            x       y       z     vdW  Elec       q    Type
REMARK                         _______ _______ _______ _____ _____    ______ ____
ROOT
ATOM      1  N   UNL     1       5.843  10.252   5.482  0.00  0.00    -0.354 N 
ATOM      2  N   UNL     1       7.179   9.317   7.127  0.00  0.00    -0.372 N 
ATOM      3  N   UNL     1       8.030  11.015   5.839  0.00  0.00    -0.372 N 
ATOM      4  C   UNL     1       7.010  10.203   6.137  0.00  0.00    +0.166 C 
ATOM      5  H   UNL     1       5.120   9.589   5.736  0.00  0.00    +0.163 HD
ATOM      6  H   UNL     1       8.048   9.259   7.641  0.00  0.00    +0.159 HD
ATOM      7  H   UNL     1       6.439   8.686   7.409  0.00  0.00    +0.159 HD
ATOM      8  H   UNL     1       7.968  11.702   5.099  0.00  0.00    +0.159 HD
ATOM      9  H   UNL     1       8.911  10.964   6.335  0.00  0.00    +0.159 HD
ENDROOT
BRANCH   1  10
ATOM     10  C   UNL     1       5.538  11.215   4.426  0.00  0.00    +0.151 C 
BRANCH  10  11
ATOM     11  C   UNL     1       4.546  12.219   4.947  0.00  0.00    -0.028 A 
ATOM     12  C   UNL     1       4.086  13.257   4.125  0.00  0.00    +0.005 A 
ATOM     13  C   UNL     1       4.059  12.132   6.260  0.00  0.00    +0.005 A 
ATOM     14  C   UNL     1       3.142  14.172   4.598  0.00  0.00    +0.000 A 
ATOM     15  C   UNL     1       3.117  13.048   6.729  0.00  0.00    +0.000 A 
ATOM     16  C   UNL     1       2.657  14.066   5.897  0.00  0.00    +0.000 A 
ENDBRANCH  10  11
ENDBRANCH   1  10
TORSDOF 2
ENDMDL
MODEL 9
REMARK VINA RESULT:    -4.550      2.056      3.007
REMARK INTER + INTRA:          -5.202
REMARK INTER:                  -5.062
REMARK INTRA:                  -0.140
REMARK UNBOUND:                -0.120
REMARK  Name = 1550473
REMARK  2 active torsions:
REMARK  status: ('A' for Active; 'I' for Inactive)
REMARK    1  A    between atoms: N_1  and  C_4
REMARK    2  A    between atoms: C_4  and  C_5
REMARK                            x       y       z     vdW  Elec       q    Type
REMARK                         _______ _______ _______ _____ _____    ______ ____
ROOT
ATOM      1  N   UNL     1       1.221   3.665   0.111  0.00  0.00    -0.354 N 
ATOM      2  N   UNL     1       2.348   5.461  -0.820  0.00  0.00    -0.372 N 
ATOM      3  N   UNL     1       2.089   3.550  -2.062  0.00  0.00    -0.372 N 
ATOM      4  C   UNL     1       1.879   4.212  -0.920  0.00  0.00    +0.166 C 
ATOM      5  H   UNL     1       1.121   4.208   0.961  0.00  0.00    +0.163 HD
ATOM      6  H   UNL     1       2.846   5.902  -1.582  0.00  0.00    +0.159 HD
ATOM      7  H   UNL     1       2.207   6.019   0.014  0.00  0.00    +0.159 HD
ATOM      8  H   UNL     1       1.765   2.602  -2.199  0.00  0.00    +0.159 HD
ATOM      9  H   UNL     1       2.595   3.969  -2.832  0.00  0.00    +0.159 HD
ENDROOT
BRANCH   1  10
ATOM     10  C   UNL     1       0.623   2.331   0.085  0.00  0.00    +0.151 C 
BRANCH  10  11
ATOM     11  C   UNL     1       1.215   1.506   1.194  0.00  0.00    -0.028 A 
ATOM     12  C   UNL     1       1.448   2.071   2.456  0.00  0.00    +0.005 A 
ATOM     13  C   UNL     1       1.541   0.156   0.990  0.00  0.00    +0.005 A 
ATOM     14  C   UNL     1       1.970   1.297   3.495  0.00  0.00    +0.000 A 
ATOM     15  C   UNL     1       2.062  -0.613   2.030  0.00  0.00    +0.000 A 
ATOM     16  C   UNL     1       2.275  -0.043   3.282  0.00  0.00    +0.000 A 
ENDBRANCH  10  11
ENDBRANCH   1  10
TORSDOF 2
ENDMDL
