MODEL 1
REMARK VINA RESULT:    -6.179      0.000      0.000
REMARK INTER + INTRA:          -7.081
REMARK INTER:                  -6.902
REMARK INTRA:                  -0.179
REMARK UNBOUND:                -0.179
REMARK  Name = 1550473
REMARK  2 active torsions:
REMARK  status: ('A' for Active; 'I' for Inactive)
REMARK    1  A    between atoms: N_1  and  C_4
REMARK    2  A    between atoms: C_4  and  C_5
REMARK                            x       y       z     vdW  Elec       q    Type
REMARK                         _______ _______ _______ _____ _____    ______ ____
ROOT
ATOM      1  N   UNL     1      -6.438   1.037  -1.151  0.00  0.00    -0.354 N 
ATOM      2  N   UNL     1      -4.991   1.036   0.657  0.00  0.00    -0.372 N 
ATOM      3  N   UNL     1      -4.390   2.174  -1.243  0.00  0.00    -0.372 N 
ATOM      4  C   UNL     1      -5.281   1.417  -0.593  0.00  0.00    +0.166 C 
ATOM      5  H   UNL     1      -7.056   0.438  -0.617  0.00  0.00    +0.163 HD
ATOM      6  H   UNL     1      -4.127   1.310   1.106  0.00  0.00    +0.159 HD
ATOM      7  H   UNL     1      -5.632   0.475   1.206  0.00  0.00    +0.159 HD
ATOM      8  H   UNL     1      -4.547   2.490  -2.190  0.00  0.00    +0.159 HD
ATOM      9  H   UNL     1      -3.515   2.449  -0.814  0.00  0.00    +0.159 HD
ENDROOT
BRANCH   1  10
ATOM     10  C   UNL     1      -6.873   1.443  -2.487  0.00  0.00    +0.151 C 
BRANCH  10  11
ATOM     11  C   UNL     1      -6.665   0.298  -3.440  0.00  0.00    -0.028 A 
ATOM     12  C   UNL     1      -5.487   0.207  -4.196  0.00  0.00    +0.005 A 
ATOM     13  C   UNL     1      -7.639  -0.701  -3.587  0.00  0.00    +0.005 A 
ATOM     14  C   UNL     1      -5.280  -0.872  -5.059  0.00  0.00    +0.000 A 
ATOM     15  C   UNL     1      -7.429  -1.776  -4.451  0.00  0.00    +0.000 A 
ATOM     16  C   UNL     1      -6.249  -1.863  -5.185  0.00  0.00    +0.000 A 
ENDBRANCH  10  11
ENDBRANCH   1  10
TORSDOF 2
ENDMDL
MODEL 2
REMARK VINA RESULT:    -5.733     24.861     27.289
REMARK INTER + INTRA:          -6.582
REMARK INTER:                  -6.456
REMARK INTRA:                  -0.126
REMARK UNBOUND:                -0.179
REMARK  Name = 1550473
REMARK  2 active torsions:
REMARK  status: ('A' for Active; 'I' for Inactive)
REMARK    1  A    between atoms: N_1  and  C_4
REMARK    2  A    between atoms: C_4  and  C_5
REMARK                            x       y       z     vdW  Elec       q    Type
REMARK                         _______ _______ _______ _____ _____    ______ ____
ROOT
ATOM      1  N   UNL     1      -5.334   8.433  22.074  0.00  0.00    -0.354 N 
ATOM      2  N   UNL     1      -5.546   6.229  21.395  0.00  0.00    -0.372 N 
ATOM      3  N   UNL     1      -5.827   7.899  19.847  0.00  0.00    -0.372 N 
ATOM      4  C   UNL     1      -5.568   7.536  21.107  0.00  0.00    +0.166 C 
ATOM      5  H   UNL     1      -5.174   8.094  23.016  0.00  0.00    +0.163 HD
ATOM      6  H   UNL     1      -5.716   5.529  20.685  0.00  0.00    +0.159 HD
ATOM      7  H   UNL     1      -5.341   5.892  22.328  0.00  0.00    +0.159 HD
ATOM      8  H   UNL     1      -5.864   8.869  19.566  0.00  0.00    +0.159 HD
ATOM      9  H   UNL     1      -6.011   7.213  19.125  0.00  0.00    +0.159 HD
ENDROOT
BRANCH   1  10
ATOM     10  C   UNL     1      -5.282   9.877  21.855  0.00  0.00    +0.151 C 
BRANCH  10  11
ATOM     11  C   UNL     1      -4.083  10.439  22.568  0.00  0.00    -0.028 A 
ATOM     12  C   UNL     1      -3.350  11.495  22.005  0.00  0.00    +0.005 A 
ATOM     13  C   UNL     1      -3.677   9.925  23.809  0.00  0.00    +0.005 A 
ATOM     14  C   UNL     1      -2.255  12.038  22.681  0.00  0.00    +0.000 A 
ATOM     15  C   UNL     1      -2.582  10.468  24.480  0.00  0.00    +0.000 A 
ATOM     16  C   UNL     1      -1.873  11.527  23.917  0.00  0.00    +0.000 A 
ENDBRANCH  10  11
ENDBRANCH   1  10
TORSDOF 2
ENDMDL
MODEL 3
REMARK VINA RESULT:    -5.493     14.261     15.874
REMARK INTER + INTRA:          -6.315
REMARK INTER:                  -6.167
REMARK INTRA:                  -0.148
REMARK UNBOUND:                -0.179
REMARK  Name = 1550473
REMARK  2 active torsions:
REMARK  status: ('A' for Active; 'I' for Inactive)
REMARK    1  A    between atoms: N_1  and  C_4
REMARK    2  A    between atoms: C_4  and  C_5
REMARK                            x       y       z     vdW  Elec       q    Type
REMARK                         _______ _______ _______ _____ _____    ______ ____
ROOT
ATOM      1  N   UNL     1     -12.057  -3.900  10.189  0.00  0.00    -0.354 N 
ATOM      2  N   UNL     1     -14.295  -3.585   9.680  0.00  0.00    -0.372 N 
ATOM      3  N   UNL     1     -12.731  -2.228   8.692  0.00  0.00    -0.372 N 
ATOM      4  C   UNL     1     -13.012  -3.237   9.522  0.00  0.00    +0.166 C 
ATOM      5  H   UNL     1     -12.338  -4.636  10.827  0.00  0.00    +0.163 HD
ATOM      6  H   UNL     1     -15.037  -3.105   9.188  0.00  0.00    +0.159 HD
ATOM      7  H   UNL     1     -14.569  -4.351  10.283  0.00  0.00    +0.159 HD
ATOM      8  H   UNL     1     -11.783  -1.913   8.533  0.00  0.00    +0.159 HD
ATOM      9  H   UNL     1     -13.460  -1.728   8.199  0.00  0.00    +0.159 HD
ENDROOT
BRANCH   1  10
ATOM     10  C   UNL     1     -10.627  -3.636  10.046  0.00  0.00    +0.151 C 
BRANCH  10  11
ATOM     11  C   UNL     1     -10.062  -3.252  11.386  0.00  0.00    -0.028 A 
ATOM     12  C   UNL     1      -8.885  -2.494  11.472  0.00  0.00    +0.005 A 
ATOM     13  C   UNL     1     -10.703  -3.638  12.573  0.00  0.00    +0.005 A 
ATOM     14  C   UNL     1      -8.377  -2.111  12.715  0.00  0.00    +0.000 A 
ATOM     15  C   UNL     1     -10.191  -3.255  13.813  0.00  0.00    +0.000 A 
ATOM     16  C   UNL     1      -9.030  -2.489  13.884  0.00  0.00    +0.000 A 
ENDBRANCH  10  11
ENDBRANCH   1  10
TORSDOF 2
ENDMDL
MODEL 4
REMARK VINA RESULT:    -5.444      3.427      4.708
REMARK INTER + INTRA:          -6.260
REMARK INTER:                  -6.087
REMARK INTRA:                  -0.173
REMARK UNBOUND:                -0.179
REMARK  Name = 1550473
REMARK  2 active torsions:
REMARK  status: ('A' for Active; 'I' for Inactive)
REMARK    1  A    between atoms: N_1  and  C_4
REMARK    2  A    between atoms: C_4  and  C_5
REMARK                            x       y       z     vdW  Elec       q    Type
REMARK                         _______ _______ _______ _____ _____    ______ ____
ROOT
ATOM      1  N   UNL     1      -5.566  -3.348  -4.025  0.00  0.00    -0.354 N 
ATOM      2  N   UNL     1      -6.003  -5.234  -2.755  0.00  0.00    -0.372 N 
ATOM      3  N   UNL     1      -7.453  -4.673  -4.442  0.00  0.00    -0.372 N 
ATOM      4  C   UNL     1      -6.340  -4.406  -3.751  0.00  0.00    +0.166 C 
ATOM      5  H   UNL     1      -4.752  -3.184  -3.444  0.00  0.00    +0.163 HD
ATOM      6  H   UNL     1      -6.566  -6.043  -2.526  0.00  0.00    +0.159 HD
ATOM      7  H   UNL     1      -5.164  -5.094  -2.205  0.00  0.00    +0.159 HD
ATOM      8  H   UNL     1      -7.766  -4.084  -5.202  0.00  0.00    +0.159 HD
ATOM      9  H   UNL     1      -8.036  -5.471  -4.221  0.00  0.00    +0.159 HD
ENDROOT
BRANCH   1  10
ATOM     10  C   UNL     1      -5.815  -2.416  -5.123  0.00  0.00    +0.151 C 
BRANCH  10  11
ATOM     11  C   UNL     1      -6.321  -1.117  -4.559  0.00  0.00    -0.028 A 
ATOM     12  C   UNL     1      -5.439  -0.053  -4.320  0.00  0.00    +0.005 A 
ATOM     13  C   UNL     1      -7.683  -0.942  -4.267  0.00  0.00    +0.005 A 
ATOM     14  C   UNL     1      -5.914   1.164  -3.825  0.00  0.00    +0.000 A 
ATOM     15  C   UNL     1      -8.152   0.274  -3.772  0.00  0.00    +0.000 A 
ATOM     16  C   UNL     1      -7.268   1.328  -3.553  0.00  0.00    +0.000 A 
ENDBRANCH  10  11
ENDBRANCH   1  10
TORSDOF 2
ENDMDL
MODEL 5
REMARK VINA RESULT:    -5.357     24.092     24.826
REMARK INTER + INTRA:          -6.163
REMARK INTER:                  -6.022
REMARK INTRA:                  -0.141
REMARK UNBOUND:                -0.179
REMARK  Name = 1550473
REMARK  2 active torsions:
REMARK  status: ('A' for Active; 'I' for Inactive)
REMARK    1  A    between atoms: N_1  and  C_4
REMARK    2  A    between atoms: C_4  and  C_5
REMARK                            x       y       z     vdW  Elec       q    Type
REMARK                         _______ _______ _______ _____ _____    ______ ____
ROOT
ATOM      1  N   UNL     1      -6.757   6.874  20.248  0.00  0.00    -0.354 N 
ATOM      2  N   UNL     1      -5.544   5.405  21.565  0.00  0.00    -0.372 N 
ATOM      3  N   UNL     1      -5.066   7.647  21.673  0.00  0.00    -0.372 N 
ATOM      4  C   UNL     1      -5.795   6.654  21.154  0.00  0.00    +0.166 C 
ATOM      5  H   UNL     1      -7.255   6.075  19.870  0.00  0.00    +0.163 HD
ATOM      6  H   UNL     1      -4.826   5.209  22.250  0.00  0.00    +0.159 HD
ATOM      7  H   UNL     1      -6.073   4.614  21.220  0.00  0.00    +0.159 HD
ATOM      8  H   UNL     1      -5.202   8.611  21.400  0.00  0.00    +0.159 HD
ATOM      9  H   UNL     1      -4.335   7.469  22.351  0.00  0.00    +0.159 HD
ENDROOT
BRANCH   1  10
ATOM     10  C   UNL     1      -7.147   8.201  19.774  0.00  0.00    +0.151 C 
BRANCH  10  11
ATOM     11  C   UNL     1      -8.626   8.380  19.976  0.00  0.00    -0.028 A 
ATOM     12  C   UNL     1      -9.482   7.270  19.992  0.00  0.00    +0.005 A 
ATOM     13  C   UNL     1      -9.177   9.658  20.158  0.00  0.00    +0.005 A 
ATOM     14  C   UNL     1     -10.853   7.433  20.210  0.00  0.00    +0.000 A 
ATOM     15  C   UNL     1     -10.545   9.817  20.375  0.00  0.00    +0.000 A 
ATOM     16  C   UNL     1     -11.383   8.705  20.403  0.00  0.00    +0.000 A 
ENDBRANCH  10  11
ENDBRANCH   1  10
TORSDOF 2
ENDMDL
MODEL 6
REMARK VINA RESULT:    -5.177     24.818     26.415
REMARK INTER + INTRA:          -5.962
REMARK INTER:                  -5.805
REMARK INTRA:                  -0.157
REMARK UNBOUND:                -0.179
REMARK  Name = 1550473
REMARK  2 active torsions:
REMARK  status: ('A' for Active; 'I' for Inactive)
REMARK    1  A    between atoms: N_1  and  C_4
REMARK    2  A    between atoms: C_4  and  C_5
REMARK                            x       y       z     vdW  Elec       q    Type
REMARK                         _______ _______ _______ _____ _____    ______ ____
ROOT
ATOM      1  N   UNL     1      -8.502  -8.225  20.350  0.00  0.00    -0.354 N 
ATOM      2  N   UNL     1      -8.989  -6.052  20.988  0.00  0.00    -0.372 N 
ATOM      3  N   UNL     1     -10.701  -7.415  20.295  0.00  0.00    -0.372 N 
ATOM      4  C   UNL     1      -9.397  -7.246  20.539  0.00  0.00    +0.166 C 
ATOM      5  H   UNL     1      -7.524  -8.024  20.525  0.00  0.00    +0.163 HD
ATOM      6  H   UNL     1      -9.642  -5.296  21.144  0.00  0.00    +0.159 HD
ATOM      7  H   UNL     1      -8.018  -5.868  21.206  0.00  0.00    +0.159 HD
ATOM      8  H   UNL     1     -11.071  -8.290  19.949  0.00  0.00    +0.159 HD
ATOM      9  H   UNL     1     -11.367  -6.666  20.434  0.00  0.00    +0.159 HD
ENDROOT
BRANCH   1  10
ATOM     10  C   UNL     1      -8.849  -9.577  19.915  0.00  0.00    +0.151 C 
BRANCH  10  11
ATOM     11  C   UNL     1      -8.442 -10.555  20.982  0.00  0.00    -0.028 A 
ATOM     12  C   UNL     1      -9.178 -10.660  22.171  0.00  0.00    +0.005 A 
ATOM     13  C   UNL     1      -7.324 -11.385  20.807  0.00  0.00    +0.005 A 
ATOM     14  C   UNL     1      -8.818 -11.590  23.150  0.00  0.00    +0.000 A 
ATOM     15  C   UNL     1      -6.967 -12.312  21.787  0.00  0.00    +0.000 A 
ATOM     16  C   UNL     1      -7.715 -12.415  22.956  0.00  0.00    +0.000 A 
ENDBRANCH  10  11
ENDBRANCH   1  10
TORSDOF 2
ENDMDL
MODEL 7
REMARK VINA RESULT:    -5.136     15.615     17.044
REMARK INTER + INTRA:          -5.915
REMARK INTER:                  -5.774
REMARK INTRA:                  -0.141
REMARK UNBOUND:                -0.179
REMARK  Name = 1550473
REMARK  2 active torsions:
REMARK  status: ('A' for Active; 'I' for Inactive)
REMARK    1  A    between atoms: N_1  and  C_4
REMARK    2  A    between atoms: C_4  and  C_5
REMARK                            x       y       z     vdW  Elec       q    Type
REMARK                         _______ _______ _______ _____ _____    ______ ____
ROOT
ATOM      1  N   UNL     1     -11.401  -6.067  12.692  0.00  0.00    -0.354 N 
ATOM      2  N   UNL     1     -11.342  -7.979  11.387  0.00  0.00    -0.372 N 
ATOM      3  N   UNL     1     -12.642  -6.214  10.710  0.00  0.00    -0.372 N 
ATOM      4  C   UNL     1     -11.798  -6.739  11.603  0.00  0.00    +0.166 C 
ATOM      5  H   UNL     1     -10.783  -6.532  13.347  0.00  0.00    +0.163 HD
ATOM      6  H   UNL     1     -11.620  -8.509  10.572  0.00  0.00    +0.159 HD
ATOM      7  H   UNL     1     -10.688  -8.424  12.019  0.00  0.00    +0.159 HD
ATOM      8  H   UNL     1     -13.027  -5.285  10.818  0.00  0.00    +0.159 HD
ATOM      9  H   UNL     1     -12.942  -6.733   9.894  0.00  0.00    +0.159 HD
ENDROOT
BRANCH   1  10
ATOM     10  C   UNL     1     -11.797  -4.692  12.993  0.00  0.00    +0.151 C 
BRANCH  10  11
ATOM     11  C   UNL     1     -10.601  -3.793  12.843  0.00  0.00    -0.028 A 
ATOM     12  C   UNL     1     -10.060  -3.134  13.957  0.00  0.00    +0.005 A 
ATOM     13  C   UNL     1      -9.999  -3.599  11.590  0.00  0.00    +0.005 A 
ATOM     14  C   UNL     1      -8.931  -2.323  13.823  0.00  0.00    +0.000 A 
ATOM     15  C   UNL     1      -8.872  -2.788  11.460  0.00  0.00    +0.000 A 
ATOM     16  C   UNL     1      -8.337  -2.151  12.577  0.00  0.00    +0.000 A 
ENDBRANCH  10  11
ENDBRANCH   1  10
TORSDOF 2
ENDMDL
MODEL 8
REMARK VINA RESULT:    -5.098     14.181     14.633
REMARK INTER + INTRA:          -5.874
REMARK INTER:                  -5.755
REMARK INTRA:                  -0.118
REMARK UNBOUND:                -0.179
REMARK  Name = 1550473
REMARK  2 active torsions:
REMARK  status: ('A' for Active; 'I' for Inactive)
REMARK    1  A    between atoms: N_1  and  C_4
REMARK    2  A    between atoms: C_4  and  C_5
REMARK                            x       y       z     vdW  Elec       q    Type
REMARK                         _______ _______ _______ _____ _____    ______ ____
ROOT
ATOM      1  N   UNL     1      -9.698  -1.908  10.961  0.00  0.00    -0.354 N 
ATOM      2  N   UNL     1      -8.640   0.011  11.711  0.00  0.00    -0.372 N 
ATOM      3  N   UNL     1      -7.667  -2.025  12.124  0.00  0.00    -0.372 N 
ATOM      4  C   UNL     1      -8.674  -1.322  11.595  0.00  0.00    +0.166 C 
ATOM      5  H   UNL     1     -10.445  -1.321  10.609  0.00  0.00    +0.163 HD
ATOM      6  H   UNL     1      -7.879   0.482  12.180  0.00  0.00    +0.159 HD
ATOM      7  H   UNL     1      -9.365   0.598  11.317  0.00  0.00    +0.159 HD
ATOM      8  H   UNL     1      -7.635  -3.035  12.076  0.00  0.00    +0.159 HD
ATOM      9  H   UNL     1      -6.901  -1.573  12.608  0.00  0.00    +0.159 HD
ENDROOT
BRANCH   1  10
ATOM     10  C   UNL     1      -9.803  -3.349  10.734  0.00  0.00    +0.151 C 
BRANCH  10  11
ATOM     11  C   UNL     1     -11.176  -3.665  10.210  0.00  0.00    -0.028 A 
ATOM     12  C   UNL     1     -11.932  -2.682   9.555  0.00  0.00    +0.005 A 
ATOM     13  C   UNL     1     -11.726  -4.947  10.361  0.00  0.00    +0.005 A 
ATOM     14  C   UNL     1     -13.196  -2.983   9.041  0.00  0.00    +0.000 A 
ATOM     15  C   UNL     1     -12.988  -5.244   9.847  0.00  0.00    +0.000 A 
ATOM     16  C   UNL     1     -13.722  -4.262   9.185  0.00  0.00    +0.000 A 
ENDBRANCH  10  11
ENDBRANCH   1  10
TORSDOF 2
ENDMDL
MODEL 9
REMARK VINA RESULT:    -4.903     15.384     16.718
REMARK INTER + INTRA:          -5.655
REMARK INTER:                  -5.528
REMARK INTRA:                  -0.128
REMARK UNBOUND:                -0.179
REMARK  Name = 1550473
REMARK  2 active torsions:
REMARK  status: ('A' for Active; 'I' for Inactive)
REMARK    1  A    between atoms: N_1  and  C_4
REMARK    2  A    between atoms: C_4  and  C_5
REMARK                            x       y       z     vdW  Elec       q    Type
REMARK                         _______ _______ _______ _____ _____    ______ ____
ROOT
ATOM      1  N   UNL     1     -12.169  -4.933  11.163  0.00  0.00    -0.354 N 
ATOM      2  N   UNL     1     -13.393  -5.750   9.374  0.00  0.00    -0.372 N 
ATOM      3  N   UNL     1     -14.500  -5.145  11.291  0.00  0.00    -0.372 N 
ATOM      4  C   UNL     1     -13.348  -5.270  10.623  0.00  0.00    +0.166 C 
ATOM      5  H   UNL     1     -11.329  -5.080  10.615  0.00  0.00    +0.163 HD
ATOM      6  H   UNL     1     -14.268  -6.010   8.939  0.00  0.00    +0.159 HD
ATOM      7  H   UNL     1     -12.556  -5.854   8.813  0.00  0.00    +0.159 HD
ATOM      8  H   UNL     1     -14.533  -4.794  12.239  0.00  0.00    +0.159 HD
ATOM      9  H   UNL     1     -15.384  -5.411  10.877  0.00  0.00    +0.159 HD
ENDROOT
BRANCH   1  10
ATOM     10  C   UNL     1     -12.017  -4.351  12.495  0.00  0.00    +0.151 C 
BRANCH  10  11
ATOM     11  C   UNL     1     -10.702  -3.624  12.566  0.00  0.00    -0.028 A 
ATOM     12  C   UNL     1      -9.957  -3.385  11.402  0.00  0.00    +0.005 A 
ATOM     13  C   UNL     1     -10.198  -3.168  13.794  0.00  0.00    +0.005 A 
ATOM     14  C   UNL     1      -8.750  -2.684  11.464  0.00  0.00    +0.000 A 
ATOM     15  C   UNL     1      -8.992  -2.470  13.852  0.00  0.00    +0.000 A 
ATOM     16  C   UNL     1      -8.270  -2.226  12.686  0.00  0.00    +0.000 A 
ENDBRANCH  10  11
ENDBRANCH   1  10
TORSDOF 2
ENDMDL
