MODEL 1
REMARK VINA RESULT:    -5.596      0.000      0.000
REMARK INTER + INTRA:          -6.374
REMARK INTER:                  -6.250
REMARK INTRA:                  -0.124
REMARK UNBOUND:                -0.124
REMARK  Name = 1550473
REMARK  2 active torsions:
REMARK  status: ('A' for Active; 'I' for Inactive)
REMARK    1  A    between atoms: N_1  and  C_4
REMARK    2  A    between atoms: C_4  and  C_5
REMARK                            x       y       z     vdW  Elec       q    Type
REMARK                         _______ _______ _______ _____ _____    ______ ____
ROOT
ATOM      1  N   UNL     1      -2.299  -5.375  -6.057  0.00  0.00    -0.354 N 
ATOM      2  N   UNL     1      -0.682  -3.854  -6.718  0.00  0.00    -0.372 N 
ATOM      3  N   UNL     1      -2.222  -3.220  -5.139  0.00  0.00    -0.372 N 
ATOM      4  C   UNL     1      -1.746  -4.158  -5.965  0.00  0.00    +0.166 C 
ATOM      5  H   UNL     1      -1.911  -6.031  -6.724  0.00  0.00    +0.163 HD
ATOM      6  H   UNL     1      -0.242  -2.945  -6.668  0.00  0.00    +0.159 HD
ATOM      7  H   UNL     1      -0.268  -4.527  -7.351  0.00  0.00    +0.159 HD
ATOM      8  H   UNL     1      -3.026  -3.384  -4.548  0.00  0.00    +0.159 HD
ATOM      9  H   UNL     1      -1.801  -2.301  -5.083  0.00  0.00    +0.159 HD
ENDROOT
BRANCH   1  10
ATOM     10  C   UNL     1      -3.427  -5.824  -5.243  0.00  0.00    +0.151 C 
BRANCH  10  11
ATOM     11  C   UNL     1      -4.141  -6.934  -5.963  0.00  0.00    -0.028 A 
ATOM     12  C   UNL     1      -4.794  -7.946  -5.242  0.00  0.00    +0.005 A 
ATOM     13  C   UNL     1      -4.174  -6.978  -7.365  0.00  0.00    +0.005 A 
ATOM     14  C   UNL     1      -5.483  -8.961  -5.911  0.00  0.00    +0.000 A 
ATOM     15  C   UNL     1      -4.862  -7.994  -8.028  0.00  0.00    +0.000 A 
ATOM     16  C   UNL     1      -5.519  -8.983  -7.301  0.00  0.00    +0.000 A 
ENDBRANCH  10  11
ENDBRANCH   1  10
TORSDOF 2
ENDMDL
MODEL 2
REMARK VINA RESULT:    -5.331      8.864     10.051
REMARK INTER + INTRA:          -6.079
REMARK INTER:                  -5.936
REMARK INTRA:                  -0.143
REMARK UNBOUND:                -0.124
REMARK  Name = 1550473
REMARK  2 active torsions:
REMARK  status: ('A' for Active; 'I' for Inactive)
REMARK    1  A    between atoms: N_1  and  C_4
REMARK    2  A    between atoms: C_4  and  C_5
REMARK                            x       y       z     vdW  Elec       q    Type
REMARK                         _______ _______ _______ _____ _____    ______ ____
ROOT
ATOM      1  N   UNL     1      -6.952   2.535  -6.354  0.00  0.00    -0.354 N 
ATOM      2  N   UNL     1      -5.391   1.878  -7.934  0.00  0.00    -0.372 N 
ATOM      3  N   UNL     1      -5.044   3.829  -6.777  0.00  0.00    -0.372 N 
ATOM      4  C   UNL     1      -5.805   2.754  -7.011  0.00  0.00    +0.166 C 
ATOM      5  H   UNL     1      -7.498   1.717  -6.599  0.00  0.00    +0.163 HD
ATOM      6  H   UNL     1      -4.528   2.015  -8.443  0.00  0.00    +0.159 HD
ATOM      7  H   UNL     1      -5.916   1.038  -8.144  0.00  0.00    +0.159 HD
ATOM      8  H   UNL     1      -5.303   4.531  -6.097  0.00  0.00    +0.159 HD
ATOM      9  H   UNL     1      -4.183   3.989  -7.285  0.00  0.00    +0.159 HD
ENDROOT
BRANCH   1  10
ATOM     10  C   UNL     1      -7.464   3.400  -5.292  0.00  0.00    +0.151 C 
BRANCH  10  11
ATOM     11  C   UNL     1      -7.404   2.660  -3.985  0.00  0.00    -0.028 A 
ATOM     12  C   UNL     1      -7.562   3.345  -2.771  0.00  0.00    +0.005 A 
ATOM     13  C   UNL     1      -7.196   1.272  -3.953  0.00  0.00    +0.005 A 
ATOM     14  C   UNL     1      -7.537   2.653  -1.557  0.00  0.00    +0.000 A 
ATOM     15  C   UNL     1      -7.170   0.586  -2.739  0.00  0.00    +0.000 A 
ATOM     16  C   UNL     1      -7.343   1.276  -1.542  0.00  0.00    +0.000 A 
ENDBRANCH  10  11
ENDBRANCH   1  10
TORSDOF 2
ENDMDL
MODEL 3
REMARK VINA RESULT:    -5.160      1.644      2.118
REMARK INTER + INTRA:          -5.888
REMARK INTER:                  -5.752
REMARK INTRA:                  -0.136
REMARK UNBOUND:                -0.124
REMARK  Name = 1550473
REMARK  2 active torsions:
REMARK  status: ('A' for Active; 'I' for Inactive)
REMARK    1  A    between atoms: N_1  and  C_4
REMARK    2  A    between atoms: C_4  and  C_5
REMARK                            x       y       z     vdW  Elec       q    Type
REMARK                         _______ _______ _______ _____ _____    ______ ____
ROOT
ATOM      1  N   UNL     1      -3.881  -4.358  -4.012  0.00  0.00    -0.354 N 
ATOM      2  N   UNL     1      -4.234  -2.077  -3.830  0.00  0.00    -0.372 N 
ATOM      3  N   UNL     1      -2.094  -2.847  -4.138  0.00  0.00    -0.372 N 
ATOM      4  C   UNL     1      -3.398  -3.109  -3.994  0.00  0.00    +0.166 C 
ATOM      5  H   UNL     1      -4.875  -4.492  -3.867  0.00  0.00    +0.163 HD
ATOM      6  H   UNL     1      -3.899  -1.122  -3.816  0.00  0.00    +0.159 HD
ATOM      7  H   UNL     1      -5.233  -2.210  -3.732  0.00  0.00    +0.159 HD
ATOM      8  H   UNL     1      -1.411  -3.582  -4.260  0.00  0.00    +0.159 HD
ATOM      9  H   UNL     1      -1.739  -1.899  -4.115  0.00  0.00    +0.159 HD
ENDROOT
BRANCH   1  10
ATOM     10  C   UNL     1      -3.062  -5.548  -4.238  0.00  0.00    +0.151 C 
BRANCH  10  11
ATOM     11  C   UNL     1      -3.691  -6.378  -5.323  0.00  0.00    -0.028 A 
ATOM     12  C   UNL     1      -4.356  -7.573  -5.011  0.00  0.00    +0.005 A 
ATOM     13  C   UNL     1      -3.631  -5.971  -6.665  0.00  0.00    +0.005 A 
ATOM     14  C   UNL     1      -4.966  -8.328  -6.015  0.00  0.00    +0.000 A 
ATOM     15  C   UNL     1      -4.241  -6.729  -7.665  0.00  0.00    +0.000 A 
ATOM     16  C   UNL     1      -4.910  -7.906  -7.339  0.00  0.00    +0.000 A 
ENDBRANCH  10  11
ENDBRANCH   1  10
TORSDOF 2
ENDMDL
MODEL 4
REMARK VINA RESULT:    -5.106      3.778      5.806
REMARK INTER + INTRA:          -5.827
REMARK INTER:                  -5.702
REMARK INTRA:                  -0.125
REMARK UNBOUND:                -0.124
REMARK  Name = 1550473
REMARK  2 active torsions:
REMARK  status: ('A' for Active; 'I' for Inactive)
REMARK    1  A    between atoms: N_1  and  C_4
REMARK    2  A    between atoms: C_4  and  C_5
REMARK                            x       y       z     vdW  Elec       q    Type
REMARK                         _______ _______ _______ _____ _____    ______ ____
ROOT
ATOM      1  N   UNL     1      -1.765  -4.338  -4.418  0.00  0.00    -0.354 N 
ATOM      2  N   UNL     1      -0.752  -3.870  -6.447  0.00  0.00    -0.372 N 
ATOM      3  N   UNL     1      -2.343  -5.521  -6.356  0.00  0.00    -0.372 N 
ATOM      4  C   UNL     1      -1.628  -4.581  -5.728  0.00  0.00    +0.166 C 
ATOM      5  H   UNL     1      -1.172  -3.633  -3.995  0.00  0.00    +0.163 HD
ATOM      6  H   UNL     1      -0.629  -4.029  -7.438  0.00  0.00    +0.159 HD
ATOM      7  H   UNL     1      -0.193  -3.135  -6.031  0.00  0.00    +0.159 HD
ATOM      8  H   UNL     1      -3.017  -6.096  -5.869  0.00  0.00    +0.159 HD
ATOM      9  H   UNL     1      -2.226  -5.703  -7.345  0.00  0.00    +0.159 HD
ENDROOT
BRANCH   1  10
ATOM     10  C   UNL     1      -2.730  -5.019  -3.556  0.00  0.00    +0.151 C 
BRANCH  10  11
ATOM     11  C   UNL     1      -2.263  -4.928  -2.129  0.00  0.00    -0.028 A 
ATOM     12  C   UNL     1      -0.895  -4.845  -1.831  0.00  0.00    +0.005 A 
ATOM     13  C   UNL     1      -3.185  -4.918  -1.071  0.00  0.00    +0.005 A 
ATOM     14  C   UNL     1      -0.463  -4.730  -0.507  0.00  0.00    +0.000 A 
ATOM     15  C   UNL     1      -2.750  -4.804   0.249  0.00  0.00    +0.000 A 
ATOM     16  C   UNL     1      -1.389  -4.707   0.530  0.00  0.00    +0.000 A 
ENDBRANCH  10  11
ENDBRANCH   1  10
TORSDOF 2
ENDMDL
MODEL 5
REMARK VINA RESULT:    -4.956      5.948      7.030
REMARK INTER + INTRA:          -5.659
REMARK INTER:                  -5.513
REMARK INTRA:                  -0.146
REMARK UNBOUND:                -0.124
REMARK  Name = 1550473
REMARK  2 active torsions:
REMARK  status: ('A' for Active; 'I' for Inactive)
REMARK    1  A    between atoms: N_1  and  C_4
REMARK    2  A    between atoms: C_4  and  C_5
REMARK                            x       y       z     vdW  Elec       q    Type
REMARK                         _______ _______ _______ _____ _____    ______ ____
ROOT
ATOM      1  N   UNL     1       0.637  -5.282   0.623  0.00  0.00    -0.354 N 
ATOM      2  N   UNL     1       1.460  -6.872   2.093  0.00  0.00    -0.372 N 
ATOM      3  N   UNL     1      -0.471  -5.757   2.633  0.00  0.00    -0.372 N 
ATOM      4  C   UNL     1       0.535  -5.959   1.775  0.00  0.00    +0.166 C 
ATOM      5  H   UNL     1       1.440  -5.459   0.030  0.00  0.00    +0.163 HD
ATOM      6  H   UNL     1       1.408  -7.400   2.953  0.00  0.00    +0.159 HD
ATOM      7  H   UNL     1       2.237  -7.080   1.476  0.00  0.00    +0.159 HD
ATOM      8  H   UNL     1      -1.199  -5.078   2.455  0.00  0.00    +0.159 HD
ATOM      9  H   UNL     1      -0.535  -6.268   3.504  0.00  0.00    +0.159 HD
ENDROOT
BRANCH   1  10
ATOM     10  C   UNL     1      -0.346  -4.305   0.159  0.00  0.00    +0.151 C 
BRANCH  10  11
ATOM     11  C   UNL     1      -1.208  -4.940  -0.897  0.00  0.00    -0.028 A 
ATOM     12  C   UNL     1      -2.265  -5.790  -0.537  0.00  0.00    +0.005 A 
ATOM     13  C   UNL     1      -0.978  -4.692  -2.259  0.00  0.00    +0.005 A 
ATOM     14  C   UNL     1      -3.085  -6.356  -1.516  0.00  0.00    +0.000 A 
ATOM     15  C   UNL     1      -1.798  -5.261  -3.233  0.00  0.00    +0.000 A 
ATOM     16  C   UNL     1      -2.853  -6.091  -2.861  0.00  0.00    +0.000 A 
ENDBRANCH  10  11
ENDBRANCH   1  10
TORSDOF 2
ENDMDL
MODEL 6
REMARK VINA RESULT:    -4.789      8.010      8.806
REMARK INTER + INTRA:          -5.474
REMARK INTER:                  -5.356
REMARK INTRA:                  -0.118
REMARK UNBOUND:                -0.124
REMARK  Name = 1550473
REMARK  2 active torsions:
REMARK  status: ('A' for Active; 'I' for Inactive)
REMARK    1  A    between atoms: N_1  and  C_4
REMARK    2  A    between atoms: C_4  and  C_5
REMARK                            x       y       z     vdW  Elec       q    Type
REMARK                         _______ _______ _______ _____ _____    ______ ____
ROOT
ATOM      1  N   UNL     1      -6.086   1.173  -2.538  0.00  0.00    -0.354 N 
ATOM      2  N   UNL     1      -4.641   2.591  -3.663  0.00  0.00    -0.372 N 
ATOM      3  N   UNL     1      -5.967   1.167  -4.878  0.00  0.00    -0.372 N 
ATOM      4  C   UNL     1      -5.575   1.633  -3.688  0.00  0.00    +0.166 C 
ATOM      5  H   UNL     1      -5.725   1.546  -1.667  0.00  0.00    +0.163 HD
ATOM      6  H   UNL     1      -4.239   2.960  -4.514  0.00  0.00    +0.159 HD
ATOM      7  H   UNL     1      -4.315   2.995  -2.793  0.00  0.00    +0.159 HD
ATOM      8  H   UNL     1      -6.664   0.439  -4.966  0.00  0.00    +0.159 HD
ATOM      9  H   UNL     1      -5.568   1.515  -5.741  0.00  0.00    +0.159 HD
ENDROOT
BRANCH   1  10
ATOM     10  C   UNL     1      -7.146   0.169  -2.458  0.00  0.00    +0.151 C 
BRANCH  10  11
ATOM     11  C   UNL     1      -6.957  -0.646  -1.208  0.00  0.00    -0.028 A 
ATOM     12  C   UNL     1      -5.782  -1.386  -1.012  0.00  0.00    +0.005 A 
ATOM     13  C   UNL     1      -7.947  -0.678  -0.214  0.00  0.00    +0.005 A 
ATOM     14  C   UNL     1      -5.593  -2.119   0.162  0.00  0.00    +0.000 A 
ATOM     15  C   UNL     1      -7.755  -1.412   0.956  0.00  0.00    +0.000 A 
ATOM     16  C   UNL     1      -6.577  -2.130   1.145  0.00  0.00    +0.000 A 
ENDBRANCH  10  11
ENDBRANCH   1  10
TORSDOF 2
ENDMDL
MODEL 7
REMARK VINA RESULT:    -4.662     17.154     18.372
REMARK INTER + INTRA:          -5.331
REMARK INTER:                  -5.248
REMARK INTRA:                  -0.084
REMARK UNBOUND:                -0.124
REMARK  Name = 1550473
REMARK  2 active torsions:
REMARK  status: ('A' for Active; 'I' for Inactive)
REMARK    1  A    between atoms: N_1  and  C_4
REMARK    2  A    between atoms: C_4  and  C_5
REMARK                            x       y       z     vdW  Elec       q    Type
REMARK                         _______ _______ _______ _____ _____    ______ ____
ROOT
ATOM      1  N   UNL     1      -0.908  -2.065 -23.554  0.00  0.00    -0.354 N 
ATOM      2  N   UNL     1       0.689  -1.737 -25.199  0.00  0.00    -0.372 N 
ATOM      3  N   UNL     1      -0.409  -3.749 -25.105  0.00  0.00    -0.372 N 
ATOM      4  C   UNL     1      -0.220  -2.522 -24.609  0.00  0.00    +0.166 C 
ATOM      5  H   UNL     1      -0.696  -1.136 -23.208  0.00  0.00    +0.163 HD
ATOM      6  H   UNL     1       1.221  -2.053 -25.999  0.00  0.00    +0.159 HD
ATOM      7  H   UNL     1       0.866  -0.792 -24.879  0.00  0.00    +0.159 HD
ATOM      8  H   UNL     1      -1.076  -4.393 -24.701  0.00  0.00    +0.159 HD
ATOM      9  H   UNL     1       0.122  -4.088 -25.897  0.00  0.00    +0.159 HD
ENDROOT
BRANCH   1  10
ATOM     10  C   UNL     1      -1.958  -2.820 -22.873  0.00  0.00    +0.151 C 
BRANCH  10  11
ATOM     11  C   UNL     1      -3.288  -2.180 -23.160  0.00  0.00    -0.028 A 
ATOM     12  C   UNL     1      -3.614  -1.767 -24.460  0.00  0.00    +0.005 A 
ATOM     13  C   UNL     1      -4.229  -1.988 -22.137  0.00  0.00    +0.005 A 
ATOM     14  C   UNL     1      -4.861  -1.200 -24.733  0.00  0.00    +0.000 A 
ATOM     15  C   UNL     1      -5.473  -1.421 -22.413  0.00  0.00    +0.000 A 
ATOM     16  C   UNL     1      -5.789  -1.029 -23.711  0.00  0.00    +0.000 A 
ENDBRANCH  10  11
ENDBRANCH   1  10
TORSDOF 2
ENDMDL
MODEL 8
REMARK VINA RESULT:    -4.646      2.635      5.085
REMARK INTER + INTRA:          -5.313
REMARK INTER:                  -5.194
REMARK INTRA:                  -0.120
REMARK UNBOUND:                -0.124
REMARK  Name = 1550473
REMARK  2 active torsions:
REMARK  status: ('A' for Active; 'I' for Inactive)
REMARK    1  A    between atoms: N_1  and  C_4
REMARK    2  A    between atoms: C_4  and  C_5
REMARK                            x       y       z     vdW  Elec       q    Type
REMARK                         _______ _______ _______ _____ _____    ______ ____
ROOT
ATOM      1  N   UNL     1      -4.535  -7.387  -6.176  0.00  0.00    -0.354 N 
ATOM      2  N   UNL     1      -5.032  -9.104  -7.649  0.00  0.00    -0.372 N 
ATOM      3  N   UNL     1      -6.193  -8.966  -5.675  0.00  0.00    -0.372 N 
ATOM      4  C   UNL     1      -5.252  -8.475  -6.488  0.00  0.00    +0.166 C 
ATOM      5  H   UNL     1      -3.816  -7.083  -6.822  0.00  0.00    +0.163 HD
ATOM      6  H   UNL     1      -5.559  -9.925  -7.913  0.00  0.00    +0.159 HD
ATOM      7  H   UNL     1      -4.344  -8.771  -8.313  0.00  0.00    +0.159 HD
ATOM      8  H   UNL     1      -6.403  -8.541  -4.782  0.00  0.00    +0.159 HD
ATOM      9  H   UNL     1      -6.723  -9.794  -5.916  0.00  0.00    +0.159 HD
ENDROOT
BRANCH   1  10
ATOM     10  C   UNL     1      -4.734  -6.598  -4.962  0.00  0.00    +0.151 C 
BRANCH  10  11
ATOM     11  C   UNL     1      -3.775  -5.439  -4.967  0.00  0.00    -0.028 A 
ATOM     12  C   UNL     1      -4.003  -4.323  -4.148  0.00  0.00    +0.005 A 
ATOM     13  C   UNL     1      -2.634  -5.453  -5.784  0.00  0.00    +0.005 A 
ATOM     14  C   UNL     1      -3.097  -3.260  -4.130  0.00  0.00    +0.000 A 
ATOM     15  C   UNL     1      -1.733  -4.389  -5.763  0.00  0.00    +0.000 A 
ATOM     16  C   UNL     1      -1.963  -3.294  -4.935  0.00  0.00    +0.000 A 
ENDBRANCH  10  11
ENDBRANCH   1  10
TORSDOF 2
ENDMDL
MODEL 9
REMARK VINA RESULT:    -4.614      5.272      6.316
REMARK INTER + INTRA:          -5.278
REMARK INTER:                  -5.153
REMARK INTRA:                  -0.124
REMARK UNBOUND:                -0.124
REMARK  Name = 1550473
REMARK  2 active torsions:
REMARK  status: ('A' for Active; 'I' for Inactive)
REMARK    1  A    between atoms: N_1  and  C_4
REMARK    2  A    between atoms: C_4  and  C_5
REMARK                            x       y       z     vdW  Elec       q    Type
REMARK                         _______ _______ _______ _____ _____    ______ ____
ROOT
ATOM      1  N   UNL     1      -0.286  -6.073  -0.748  0.00  0.00    -0.354 N 
ATOM      2  N   UNL     1       1.364  -6.055   0.877  0.00  0.00    -0.372 N 
ATOM      3  N   UNL     1      -0.769  -6.661   1.469  0.00  0.00    -0.372 N 
ATOM      4  C   UNL     1       0.090  -6.264   0.523  0.00  0.00    +0.166 C 
ATOM      5  H   UNL     1       0.406  -5.742  -1.410  0.00  0.00    +0.163 HD
ATOM      6  H   UNL     1       1.678  -6.195   1.828  0.00  0.00    +0.159 HD
ATOM      7  H   UNL     1       2.064  -5.769   0.203  0.00  0.00    +0.159 HD
ATOM      8  H   UNL     1      -1.745  -6.829   1.268  0.00  0.00    +0.159 HD
ATOM      9  H   UNL     1      -0.476  -6.794   2.428  0.00  0.00    +0.159 HD
ENDROOT
BRANCH   1  10
ATOM     10  C   UNL     1      -1.637  -6.323  -1.248  0.00  0.00    +0.151 C 
BRANCH  10  11
ATOM     11  C   UNL     1      -2.003  -5.249  -2.235  0.00  0.00    -0.028 A 
ATOM     12  C   UNL     1      -3.330  -4.810  -2.350  0.00  0.00    +0.005 A 
ATOM     13  C   UNL     1      -1.026  -4.662  -3.053  0.00  0.00    +0.005 A 
ATOM     14  C   UNL     1      -3.665  -3.791  -3.245  0.00  0.00    +0.000 A 
ATOM     15  C   UNL     1      -1.364  -3.646  -3.947  0.00  0.00    +0.000 A 
ATOM     16  C   UNL     1      -2.684  -3.209  -4.040  0.00  0.00    +0.000 A 
ENDBRANCH  10  11
ENDBRANCH   1  10
TORSDOF 2
ENDMDL
