MODEL 1
REMARK VINA RESULT:    -6.676      0.000      0.000
REMARK INTER + INTRA:          -7.573
REMARK INTER:                  -7.457
REMARK INTRA:                  -0.116
REMARK UNBOUND:                -0.116
REMARK  Name = 1550473
REMARK  2 active torsions:
REMARK  status: ('A' for Active; 'I' for Inactive)
REMARK    1  A    between atoms: N_1  and  C_4
REMARK    2  A    between atoms: C_4  and  C_5
REMARK                            x       y       z     vdW  Elec       q    Type
REMARK                         _______ _______ _______ _____ _____    ______ ____
ROOT
ATOM      1  N   UNL     1      -2.079 -12.887  10.997  0.00  0.00    -0.354 N 
ATOM      2  N   UNL     1      -0.663 -13.586  12.690  0.00  0.00    -0.372 N 
ATOM      3  N   UNL     1       0.218 -12.433  10.913  0.00  0.00    -0.372 N 
ATOM      4  C   UNL     1      -0.848 -12.963  11.521  0.00  0.00    +0.166 C 
ATOM      5  H   UNL     1      -2.842 -13.335  11.492  0.00  0.00    +0.163 HD
ATOM      6  H   UNL     1       0.254 -13.657  13.112  0.00  0.00    +0.159 HD
ATOM      7  H   UNL     1      -1.434 -13.993  13.206  0.00  0.00    +0.159 HD
ATOM      8  H   UNL     1       0.146 -11.955  10.025  0.00  0.00    +0.159 HD
ATOM      9  H   UNL     1       1.146 -12.503  11.313  0.00  0.00    +0.159 HD
ENDROOT
BRANCH   1  10
ATOM     10  C   UNL     1      -2.397 -12.184   9.755  0.00  0.00    +0.151 C 
BRANCH  10  11
ATOM     11  C   UNL     1      -3.768 -11.577   9.872  0.00  0.00    -0.028 A 
ATOM     12  C   UNL     1      -4.015 -10.548  10.792  0.00  0.00    +0.005 A 
ATOM     13  C   UNL     1      -4.823 -12.022   9.061  0.00  0.00    +0.005 A 
ATOM     14  C   UNL     1      -5.281  -9.963  10.880  0.00  0.00    +0.000 A 
ATOM     15  C   UNL     1      -6.086 -11.437   9.152  0.00  0.00    +0.000 A 
ATOM     16  C   UNL     1      -6.314 -10.405  10.060  0.00  0.00    +0.000 A 
ENDBRANCH  10  11
ENDBRANCH   1  10
TORSDOF 2
ENDMDL
MODEL 2
REMARK VINA RESULT:    -6.175      3.882      5.344
REMARK INTER + INTRA:          -7.013
REMARK INTER:                  -6.872
REMARK INTRA:                  -0.140
REMARK UNBOUND:                -0.116
REMARK  Name = 1550473
REMARK  2 active torsions:
REMARK  status: ('A' for Active; 'I' for Inactive)
REMARK    1  A    between atoms: N_1  and  C_4
REMARK    2  A    between atoms: C_4  and  C_5
REMARK                            x       y       z     vdW  Elec       q    Type
REMARK                         _______ _______ _______ _____ _____    ______ ____
ROOT
ATOM      1  N   UNL     1      -7.146 -10.495   9.560  0.00  0.00    -0.354 N 
ATOM      2  N   UNL     1      -9.024  -9.984  10.815  0.00  0.00    -0.372 N 
ATOM      3  N   UNL     1      -8.705 -12.150  10.128  0.00  0.00    -0.372 N 
ATOM      4  C   UNL     1      -8.280 -10.882  10.159  0.00  0.00    +0.166 C 
ATOM      5  H   UNL     1      -6.894  -9.514   9.594  0.00  0.00    +0.163 HD
ATOM      6  H   UNL     1      -9.883 -10.248  11.280  0.00  0.00    +0.159 HD
ATOM      7  H   UNL     1      -8.747  -9.013  10.887  0.00  0.00    +0.159 HD
ATOM      8  H   UNL     1      -8.192 -12.875   9.644  0.00  0.00    +0.159 HD
ATOM      9  H   UNL     1      -9.568 -12.431  10.577  0.00  0.00    +0.159 HD
ENDROOT
BRANCH   1  10
ATOM     10  C   UNL     1      -6.236 -11.404   8.865  0.00  0.00    +0.151 C 
BRANCH  10  11
ATOM     11  C   UNL     1      -4.887 -11.350   9.527  0.00  0.00    -0.028 A 
ATOM     12  C   UNL     1      -4.643 -10.447  10.572  0.00  0.00    +0.005 A 
ATOM     13  C   UNL     1      -3.851 -12.203   9.118  0.00  0.00    +0.005 A 
ATOM     14  C   UNL     1      -3.399 -10.418  11.208  0.00  0.00    +0.000 A 
ATOM     15  C   UNL     1      -2.610 -12.169   9.754  0.00  0.00    +0.000 A 
ATOM     16  C   UNL     1      -2.385 -11.278  10.801  0.00  0.00    +0.000 A 
ENDBRANCH  10  11
ENDBRANCH   1  10
TORSDOF 2
ENDMDL
MODEL 3
REMARK VINA RESULT:    -5.400      5.212      7.090
REMARK INTER + INTRA:          -6.147
REMARK INTER:                  -6.022
REMARK INTRA:                  -0.125
REMARK UNBOUND:                -0.116
REMARK  Name = 1550473
REMARK  2 active torsions:
REMARK  status: ('A' for Active; 'I' for Inactive)
REMARK    1  A    between atoms: N_1  and  C_4
REMARK    2  A    between atoms: C_4  and  C_5
REMARK                            x       y       z     vdW  Elec       q    Type
REMARK                         _______ _______ _______ _____ _____    ______ ____
ROOT
ATOM      1  N   UNL     1      -9.209  -9.307  10.937  0.00  0.00    -0.354 N 
ATOM      2  N   UNL     1     -10.554  -7.582  11.701  0.00  0.00    -0.372 N 
ATOM      3  N   UNL     1     -11.423  -9.086  10.201  0.00  0.00    -0.372 N 
ATOM      4  C   UNL     1     -10.388  -8.671  10.939  0.00  0.00    +0.166 C 
ATOM      5  H   UNL     1      -8.455  -8.924  11.496  0.00  0.00    +0.163 HD
ATOM      6  H   UNL     1     -11.433  -7.084  11.725  0.00  0.00    +0.159 HD
ATOM      7  H   UNL     1      -9.813  -7.229  12.293  0.00  0.00    +0.159 HD
ATOM      8  H   UNL     1     -11.361  -9.897   9.600  0.00  0.00    +0.159 HD
ATOM      9  H   UNL     1     -12.307  -8.593  10.203  0.00  0.00    +0.159 HD
ENDROOT
BRANCH   1  10
ATOM     10  C   UNL     1      -8.942 -10.531  10.185  0.00  0.00    +0.151 C 
BRANCH  10  11
ATOM     11  C   UNL     1      -7.455 -10.734  10.088  0.00  0.00    -0.028 A 
ATOM     12  C   UNL     1      -6.931 -11.857   9.432  0.00  0.00    +0.005 A 
ATOM     13  C   UNL     1      -6.565  -9.803  10.646  0.00  0.00    +0.005 A 
ATOM     14  C   UNL     1      -5.549 -12.030   9.316  0.00  0.00    +0.000 A 
ATOM     15  C   UNL     1      -5.187  -9.980  10.528  0.00  0.00    +0.000 A 
ATOM     16  C   UNL     1      -4.679 -11.092   9.861  0.00  0.00    +0.000 A 
ENDBRANCH  10  11
ENDBRANCH   1  10
TORSDOF 2
ENDMDL
MODEL 4
REMARK VINA RESULT:    -4.828     15.085     16.578
REMARK INTER + INTRA:          -5.508
REMARK INTER:                  -5.347
REMARK INTRA:                  -0.161
REMARK UNBOUND:                -0.116
REMARK  Name = 1550473
REMARK  2 active torsions:
REMARK  status: ('A' for Active; 'I' for Inactive)
REMARK    1  A    between atoms: N_1  and  C_4
REMARK    2  A    between atoms: C_4  and  C_5
REMARK                            x       y       z     vdW  Elec       q    Type
REMARK                         _______ _______ _______ _____ _____    ______ ____
ROOT
ATOM      1  N   UNL     1       6.290 -15.122  -0.223  0.00  0.00    -0.354 N 
ATOM      2  N   UNL     1       4.712 -13.963   1.014  0.00  0.00    -0.372 N 
ATOM      3  N   UNL     1       4.118 -15.959   0.050  0.00  0.00    -0.372 N 
ATOM      4  C   UNL     1       5.049 -15.025   0.271  0.00  0.00    +0.166 C 
ATOM      5  H   UNL     1       6.940 -14.366  -0.044  0.00  0.00    +0.163 HD
ATOM      6  H   UNL     1       3.784 -13.864   1.403  0.00  0.00    +0.159 HD
ATOM      7  H   UNL     1       5.377 -13.231   1.229  0.00  0.00    +0.159 HD
ATOM      8  H   UNL     1       4.307 -16.782  -0.508  0.00  0.00    +0.159 HD
ATOM      9  H   UNL     1       3.180 -15.872   0.421  0.00  0.00    +0.159 HD
ENDROOT
BRANCH   1  10
ATOM     10  C   UNL     1       6.774 -16.263  -0.998  0.00  0.00    +0.151 C 
BRANCH  10  11
ATOM     11  C   UNL     1       6.808 -15.889  -2.454  0.00  0.00    -0.028 A 
ATOM     12  C   UNL     1       7.072 -14.567  -2.843  0.00  0.00    +0.005 A 
ATOM     13  C   UNL     1       6.583 -16.852  -3.449  0.00  0.00    +0.005 A 
ATOM     14  C   UNL     1       7.133 -14.225  -4.196  0.00  0.00    +0.000 A 
ATOM     15  C   UNL     1       6.644 -16.506  -4.799  0.00  0.00    +0.000 A 
ATOM     16  C   UNL     1       6.922 -15.193  -5.172  0.00  0.00    +0.000 A 
ENDBRANCH  10  11
ENDBRANCH   1  10
TORSDOF 2
ENDMDL
MODEL 5
REMARK VINA RESULT:    -4.633     10.456     11.357
REMARK INTER + INTRA:          -5.291
REMARK INTER:                  -5.127
REMARK INTRA:                  -0.164
REMARK UNBOUND:                -0.116
REMARK  Name = 1550473
REMARK  2 active torsions:
REMARK  status: ('A' for Active; 'I' for Inactive)
REMARK    1  A    between atoms: N_1  and  C_4
REMARK    2  A    between atoms: C_4  and  C_5
REMARK                            x       y       z     vdW  Elec       q    Type
REMARK                         _______ _______ _______ _____ _____    ______ ____
ROOT
ATOM      1  N   UNL     1       5.809 -12.039   3.747  0.00  0.00    -0.354 N 
ATOM      2  N   UNL     1       7.997 -12.503   4.346  0.00  0.00    -0.372 N 
ATOM      3  N   UNL     1       6.293 -13.338   5.636  0.00  0.00    -0.372 N 
ATOM      4  C   UNL     1       6.684 -12.625   4.574  0.00  0.00    +0.166 C 
ATOM      5  H   UNL     1       6.169 -11.487   2.977  0.00  0.00    +0.163 HD
ATOM      6  H   UNL     1       8.681 -12.937   4.951  0.00  0.00    +0.159 HD
ATOM      7  H   UNL     1       8.354 -11.989   3.550  0.00  0.00    +0.159 HD
ATOM      8  H   UNL     1       5.316 -13.463   5.867  0.00  0.00    +0.159 HD
ATOM      9  H   UNL     1       6.963 -13.770   6.260  0.00  0.00    +0.159 HD
ENDROOT
BRANCH   1  10
ATOM     10  C   UNL     1       4.357 -12.155   3.876  0.00  0.00    +0.151 C 
BRANCH  10  11
ATOM     11  C   UNL     1       3.816 -12.896   2.685  0.00  0.00    -0.028 A 
ATOM     12  C   UNL     1       3.217 -12.200   1.624  0.00  0.00    +0.005 A 
ATOM     13  C   UNL     1       3.903 -14.295   2.607  0.00  0.00    +0.005 A 
ATOM     14  C   UNL     1       2.741 -12.886   0.504  0.00  0.00    +0.000 A 
ATOM     15  C   UNL     1       3.426 -14.976   1.488  0.00  0.00    +0.000 A 
ATOM     16  C   UNL     1       2.847 -14.271   0.435  0.00  0.00    +0.000 A 
ENDBRANCH  10  11
ENDBRANCH   1  10
TORSDOF 2
ENDMDL
MODEL 6
REMARK VINA RESULT:    -4.630     33.705     34.360
REMARK INTER + INTRA:          -5.287
REMARK INTER:                  -5.177
REMARK INTRA:                  -0.111
REMARK UNBOUND:                -0.116
REMARK  Name = 1550473
REMARK  2 active torsions:
REMARK  status: ('A' for Active; 'I' for Inactive)
REMARK    1  A    between atoms: N_1  and  C_4
REMARK    2  A    between atoms: C_4  and  C_5
REMARK                            x       y       z     vdW  Elec       q    Type
REMARK                         _______ _______ _______ _____ _____    ______ ____
ROOT
ATOM      1  N   UNL     1      -0.155  19.536  -3.300  0.00  0.00    -0.354 N 
ATOM      2  N   UNL     1      -1.397  18.672  -5.053  0.00  0.00    -0.372 N 
ATOM      3  N   UNL     1      -2.480  19.821  -3.388  0.00  0.00    -0.372 N 
ATOM      4  C   UNL     1      -1.338  19.350  -3.900  0.00  0.00    +0.166 C 
ATOM      5  H   UNL     1       0.670  19.128  -3.724  0.00  0.00    +0.163 HD
ATOM      6  H   UNL     1      -2.275  18.519  -5.531  0.00  0.00    +0.159 HD
ATOM      7  H   UNL     1      -0.565  18.305  -5.499  0.00  0.00    +0.159 HD
ATOM      8  H   UNL     1      -2.504  20.335  -2.517  0.00  0.00    +0.159 HD
ATOM      9  H   UNL     1      -3.370  19.667  -3.845  0.00  0.00    +0.159 HD
ENDROOT
BRANCH   1  10
ATOM     10  C   UNL     1       0.025  20.305  -2.070  0.00  0.00    +0.151 C 
BRANCH  10  11
ATOM     11  C   UNL     1       1.312  19.888  -1.413  0.00  0.00    -0.028 A 
ATOM     12  C   UNL     1       1.379  19.716  -0.023  0.00  0.00    +0.005 A 
ATOM     13  C   UNL     1       2.466  19.656  -2.177  0.00  0.00    +0.005 A 
ATOM     14  C   UNL     1       2.566  19.299   0.584  0.00  0.00    +0.000 A 
ATOM     15  C   UNL     1       3.650  19.241  -1.567  0.00  0.00    +0.000 A 
ATOM     16  C   UNL     1       3.698  19.060  -0.186  0.00  0.00    +0.000 A 
ENDBRANCH  10  11
ENDBRANCH   1  10
TORSDOF 2
ENDMDL
MODEL 7
REMARK VINA RESULT:    -4.581     20.152     20.959
REMARK INTER + INTRA:          -5.232
REMARK INTER:                  -5.108
REMARK INTRA:                  -0.124
REMARK UNBOUND:                -0.116
REMARK  Name = 1550473
REMARK  2 active torsions:
REMARK  status: ('A' for Active; 'I' for Inactive)
REMARK    1  A    between atoms: N_1  and  C_4
REMARK    2  A    between atoms: C_4  and  C_5
REMARK                            x       y       z     vdW  Elec       q    Type
REMARK                         _______ _______ _______ _____ _____    ______ ____
ROOT
ATOM      1  N   UNL     1     -12.047  -7.515  -7.608  0.00  0.00    -0.354 N 
ATOM      2  N   UNL     1     -11.429  -5.285  -7.697  0.00  0.00    -0.372 N 
ATOM      3  N   UNL     1     -13.307  -5.962  -8.829  0.00  0.00    -0.372 N 
ATOM      4  C   UNL     1     -12.267  -6.269  -8.046  0.00  0.00    +0.166 C 
ATOM      5  H   UNL     1     -11.224  -7.688  -7.042  0.00  0.00    +0.163 HD
ATOM      6  H   UNL     1     -11.572  -4.334  -8.010  0.00  0.00    +0.159 HD
ATOM      7  H   UNL     1     -10.633  -5.451  -7.094  0.00  0.00    +0.159 HD
ATOM      8  H   UNL     1     -13.973  -6.660  -9.133  0.00  0.00    +0.159 HD
ATOM      9  H   UNL     1     -13.460  -5.018  -9.162  0.00  0.00    +0.159 HD
ENDROOT
BRANCH   1  10
ATOM     10  C   UNL     1     -12.928  -8.648  -7.885  0.00  0.00    +0.151 C 
BRANCH  10  11
ATOM     11  C   UNL     1     -12.131  -9.920  -7.814  0.00  0.00    -0.028 A 
ATOM     12  C   UNL     1     -10.806  -9.957  -8.274  0.00  0.00    +0.005 A 
ATOM     13  C   UNL     1     -12.691 -11.091  -7.282  0.00  0.00    +0.005 A 
ATOM     14  C   UNL     1     -10.055 -11.131  -8.180  0.00  0.00    +0.000 A 
ATOM     15  C   UNL     1     -11.938 -12.262  -7.190  0.00  0.00    +0.000 A 
ATOM     16  C   UNL     1     -10.619 -12.281  -7.637  0.00  0.00    +0.000 A 
ENDBRANCH  10  11
ENDBRANCH   1  10
TORSDOF 2
ENDMDL
MODEL 8
REMARK VINA RESULT:    -4.579      4.137      7.536
REMARK INTER + INTRA:          -5.231
REMARK INTER:                  -5.118
REMARK INTRA:                  -0.113
REMARK UNBOUND:                -0.116
REMARK  Name = 1550473
REMARK  2 active torsions:
REMARK  status: ('A' for Active; 'I' for Inactive)
REMARK    1  A    between atoms: N_1  and  C_4
REMARK    2  A    between atoms: C_4  and  C_5
REMARK                            x       y       z     vdW  Elec       q    Type
REMARK                         _______ _______ _______ _____ _____    ______ ____
ROOT
ATOM      1  N   UNL     1       0.547 -12.215  11.152  0.00  0.00    -0.354 N 
ATOM      2  N   UNL     1      -1.211 -13.513  10.383  0.00  0.00    -0.372 N 
ATOM      3  N   UNL     1      -0.644 -13.617  12.604  0.00  0.00    -0.372 N 
ATOM      4  C   UNL     1      -0.424 -13.108  11.387  0.00  0.00    +0.166 C 
ATOM      5  H   UNL     1       0.681 -11.889  10.202  0.00  0.00    +0.163 HD
ATOM      6  H   UNL     1      -1.954 -14.182  10.531  0.00  0.00    +0.159 HD
ATOM      7  H   UNL     1      -1.104 -13.151   9.443  0.00  0.00    +0.159 HD
ATOM      8  H   UNL     1      -0.082 -13.357  13.403  0.00  0.00    +0.159 HD
ATOM      9  H   UNL     1      -1.375 -14.298  12.769  0.00  0.00    +0.159 HD
ENDROOT
BRANCH   1  10
ATOM     10  C   UNL     1       1.423 -11.668  12.187  0.00  0.00    +0.151 C 
BRANCH  10  11
ATOM     11  C   UNL     1       2.837 -12.097  11.909  0.00  0.00    -0.028 A 
ATOM     12  C   UNL     1       3.108 -13.077  10.943  0.00  0.00    +0.005 A 
ATOM     13  C   UNL     1       3.912 -11.524  12.606  0.00  0.00    +0.005 A 
ATOM     14  C   UNL     1       4.424 -13.454  10.663  0.00  0.00    +0.000 A 
ATOM     15  C   UNL     1       5.224 -11.904  12.325  0.00  0.00    +0.000 A 
ATOM     16  C   UNL     1       5.480 -12.867  11.352  0.00  0.00    +0.000 A 
ENDBRANCH  10  11
ENDBRANCH   1  10
TORSDOF 2
ENDMDL
MODEL 9
REMARK VINA RESULT:    -4.576     11.313     13.235
REMARK INTER + INTRA:          -5.227
REMARK INTER:                  -5.050
REMARK INTRA:                  -0.177
REMARK UNBOUND:                -0.116
REMARK  Name = 1550473
REMARK  2 active torsions:
REMARK  status: ('A' for Active; 'I' for Inactive)
REMARK    1  A    between atoms: N_1  and  C_4
REMARK    2  A    between atoms: C_4  and  C_5
REMARK                            x       y       z     vdW  Elec       q    Type
REMARK                         _______ _______ _______ _____ _____    ______ ____
ROOT
ATOM      1  N   UNL     1     -14.182  -7.580   8.585  0.00  0.00    -0.354 N 
ATOM      2  N   UNL     1     -11.950  -8.116   8.895  0.00  0.00    -0.372 N 
ATOM      3  N   UNL     1     -12.484  -6.105   7.926  0.00  0.00    -0.372 N 
ATOM      4  C   UNL     1     -12.886  -7.261   8.465  0.00  0.00    +0.166 C 
ATOM      5  H   UNL     1     -14.420  -8.485   8.975  0.00  0.00    +0.163 HD
ATOM      6  H   UNL     1     -10.964  -7.901   8.821  0.00  0.00    +0.159 HD
ATOM      7  H   UNL     1     -12.192  -8.999   9.326  0.00  0.00    +0.159 HD
ATOM      8  H   UNL     1     -13.141  -5.420   7.578  0.00  0.00    +0.159 HD
ATOM      9  H   UNL     1     -11.502  -5.877   7.833  0.00  0.00    +0.159 HD
ENDROOT
BRANCH   1  10
ATOM     10  C   UNL     1     -15.281  -6.698   8.198  0.00  0.00    +0.151 C 
BRANCH  10  11
ATOM     11  C   UNL     1     -15.853  -7.170   6.890  0.00  0.00    -0.028 A 
ATOM     12  C   UNL     1     -16.441  -8.440   6.788  0.00  0.00    +0.005 A 
ATOM     13  C   UNL     1     -15.817  -6.351   5.751  0.00  0.00    +0.005 A 
ATOM     14  C   UNL     1     -17.000  -8.868   5.581  0.00  0.00    +0.000 A 
ATOM     15  C   UNL     1     -16.375  -6.782   4.548  0.00  0.00    +0.000 A 
ATOM     16  C   UNL     1     -16.969  -8.040   4.464  0.00  0.00    +0.000 A 
ENDBRANCH  10  11
ENDBRANCH   1  10
TORSDOF 2
ENDMDL
