MODEL 1
REMARK VINA RESULT:    -5.678      0.000      0.000
REMARK INTER + INTRA:          -6.449
REMARK INTER:                  -6.342
REMARK INTRA:                  -0.108
REMARK UNBOUND:                -0.108
REMARK  Name = 1550473
REMARK  2 active torsions:
REMARK  status: ('A' for Active; 'I' for Inactive)
REMARK    1  A    between atoms: N_1  and  C_4
REMARK    2  A    between atoms: C_4  and  C_5
REMARK                            x       y       z     vdW  Elec       q    Type
REMARK                         _______ _______ _______ _____ _____    ______ ____
ROOT
ATOM      1  N   UNL     1      -3.509  10.373   8.543  0.00  0.00    -0.354 N 
ATOM      2  N   UNL     1      -3.519  11.418   6.476  0.00  0.00    -0.372 N 
ATOM      3  N   UNL     1      -3.520   9.125   6.560  0.00  0.00    -0.372 N 
ATOM      4  C   UNL     1      -3.516  10.295   7.206  0.00  0.00    +0.166 C 
ATOM      5  H   UNL     1      -3.475  11.291   8.972  0.00  0.00    +0.163 HD
ATOM      6  H   UNL     1      -3.528  11.390   5.466  0.00  0.00    +0.159 HD
ATOM      7  H   UNL     1      -3.532  12.334   6.908  0.00  0.00    +0.159 HD
ATOM      8  H   UNL     1      -3.512   8.241   7.053  0.00  0.00    +0.159 HD
ATOM      9  H   UNL     1      -3.517   9.077   5.549  0.00  0.00    +0.159 HD
ENDROOT
BRANCH   1  10
ATOM     10  C   UNL     1      -3.559   9.212   9.430  0.00  0.00    +0.151 C 
BRANCH  10  11
ATOM     11  C   UNL     1      -4.157   9.624  10.746  0.00  0.00    -0.028 A 
ATOM     12  C   UNL     1      -3.705  10.778  11.404  0.00  0.00    +0.005 A 
ATOM     13  C   UNL     1      -5.182   8.869  11.338  0.00  0.00    +0.005 A 
ATOM     14  C   UNL     1      -4.282  11.178  12.612  0.00  0.00    +0.000 A 
ATOM     15  C   UNL     1      -5.754   9.272  12.545  0.00  0.00    +0.000 A 
ATOM     16  C   UNL     1      -5.306  10.427  13.180  0.00  0.00    +0.000 A 
ENDBRANCH  10  11
ENDBRANCH   1  10
TORSDOF 2
ENDMDL
MODEL 2
REMARK VINA RESULT:    -5.670      1.256      2.207
REMARK INTER + INTRA:          -6.441
REMARK INTER:                  -6.328
REMARK INTRA:                  -0.113
REMARK UNBOUND:                -0.108
REMARK  Name = 1550473
REMARK  2 active torsions:
REMARK  status: ('A' for Active; 'I' for Inactive)
REMARK    1  A    between atoms: N_1  and  C_4
REMARK    2  A    between atoms: C_4  and  C_5
REMARK                            x       y       z     vdW  Elec       q    Type
REMARK                         _______ _______ _______ _____ _____    ______ ____
ROOT
ATOM      1  N   UNL     1      -3.798   9.849   9.489  0.00  0.00    -0.354 N 
ATOM      2  N   UNL     1      -3.378   9.687   7.217  0.00  0.00    -0.372 N 
ATOM      3  N   UNL     1      -3.238   7.795   8.508  0.00  0.00    -0.372 N 
ATOM      4  C   UNL     1      -3.473   9.109   8.420  0.00  0.00    +0.166 C 
ATOM      5  H   UNL     1      -3.934  10.845   9.361  0.00  0.00    +0.163 HD
ATOM      6  H   UNL     1      -3.139   9.154   6.392  0.00  0.00    +0.159 HD
ATOM      7  H   UNL     1      -3.560  10.675   7.085  0.00  0.00    +0.159 HD
ATOM      8  H   UNL     1      -3.288   7.300   9.388  0.00  0.00    +0.159 HD
ATOM      9  H   UNL     1      -2.985   7.247   7.696  0.00  0.00    +0.159 HD
ENDROOT
BRANCH   1  10
ATOM     10  C   UNL     1      -3.980   9.306  10.834  0.00  0.00    +0.151 C 
BRANCH  10  11
ATOM     11  C   UNL     1      -4.391  10.418  11.760  0.00  0.00    -0.028 A 
ATOM     12  C   UNL     1      -5.284  10.173  12.814  0.00  0.00    +0.005 A 
ATOM     13  C   UNL     1      -3.886  11.716  11.593  0.00  0.00    +0.005 A 
ATOM     14  C   UNL     1      -5.642  11.198  13.693  0.00  0.00    +0.000 A 
ATOM     15  C   UNL     1      -4.247  12.737  12.472  0.00  0.00    +0.000 A 
ATOM     16  C   UNL     1      -5.123  12.477  13.523  0.00  0.00    +0.000 A 
ENDBRANCH  10  11
ENDBRANCH   1  10
TORSDOF 2
ENDMDL
MODEL 3
REMARK VINA RESULT:    -5.373     23.279     24.546
REMARK INTER + INTRA:          -6.109
REMARK INTER:                  -5.964
REMARK INTRA:                  -0.145
REMARK UNBOUND:                -0.108
REMARK  Name = 1550473
REMARK  2 active torsions:
REMARK  status: ('A' for Active; 'I' for Inactive)
REMARK    1  A    between atoms: N_1  and  C_4
REMARK    2  A    between atoms: C_4  and  C_5
REMARK                            x       y       z     vdW  Elec       q    Type
REMARK                         _______ _______ _______ _____ _____    ______ ____
ROOT
ATOM      1  N   UNL     1      -7.647 -10.678  -0.694  0.00  0.00    -0.354 N 
ATOM      2  N   UNL     1      -6.090  -9.965   0.865  0.00  0.00    -0.372 N 
ATOM      3  N   UNL     1      -6.542 -12.208   0.694  0.00  0.00    -0.372 N 
ATOM      4  C   UNL     1      -6.770 -10.958   0.279  0.00  0.00    +0.166 C 
ATOM      5  H   UNL     1      -7.797  -9.706  -0.942  0.00  0.00    +0.163 HD
ATOM      6  H   UNL     1      -5.418 -10.146   1.599  0.00  0.00    +0.159 HD
ATOM      7  H   UNL     1      -6.207  -9.000   0.583  0.00  0.00    +0.159 HD
ATOM      8  H   UNL     1      -7.027 -13.001   0.297  0.00  0.00    +0.159 HD
ATOM      9  H   UNL     1      -5.882 -12.409   1.436  0.00  0.00    +0.159 HD
ENDROOT
BRANCH   1  10
ATOM     10  C   UNL     1      -8.399 -11.690  -1.433  0.00  0.00    +0.151 C 
BRANCH  10  11
ATOM     11  C   UNL     1      -9.862 -11.341  -1.395  0.00  0.00    -0.028 A 
ATOM     12  C   UNL     1     -10.582 -11.163  -2.585  0.00  0.00    +0.005 A 
ATOM     13  C   UNL     1     -10.534 -11.192  -0.172  0.00  0.00    +0.005 A 
ATOM     14  C   UNL     1     -11.948 -10.868  -2.550  0.00  0.00    +0.000 A 
ATOM     15  C   UNL     1     -11.896 -10.897  -0.141  0.00  0.00    +0.000 A 
ATOM     16  C   UNL     1     -12.603 -10.737  -1.331  0.00  0.00    +0.000 A 
ENDBRANCH  10  11
ENDBRANCH   1  10
TORSDOF 2
ENDMDL
MODEL 4
REMARK VINA RESULT:    -5.149     15.801     16.498
REMARK INTER + INTRA:          -5.859
REMARK INTER:                  -5.732
REMARK INTRA:                  -0.126
REMARK UNBOUND:                -0.108
REMARK  Name = 1550473
REMARK  2 active torsions:
REMARK  status: ('A' for Active; 'I' for Inactive)
REMARK    1  A    between atoms: N_1  and  C_4
REMARK    2  A    between atoms: C_4  and  C_5
REMARK                            x       y       z     vdW  Elec       q    Type
REMARK                         _______ _______ _______ _____ _____    ______ ____
ROOT
ATOM      1  N   UNL     1      -8.796   8.124  -6.308  0.00  0.00    -0.354 N 
ATOM      2  N   UNL     1      -8.745   9.115  -8.401  0.00  0.00    -0.372 N 
ATOM      3  N   UNL     1      -7.200   7.494  -7.904  0.00  0.00    -0.372 N 
ATOM      4  C   UNL     1      -8.245   8.236  -7.524  0.00  0.00    +0.166 C 
ATOM      5  H   UNL     1      -9.568   8.737  -6.071  0.00  0.00    +0.163 HD
ATOM      6  H   UNL     1      -8.353   9.220  -9.326  0.00  0.00    +0.159 HD
ATOM      7  H   UNL     1      -9.546   9.694  -8.177  0.00  0.00    +0.159 HD
ATOM      8  H   UNL     1      -6.772   6.816  -7.287  0.00  0.00    +0.159 HD
ATOM      9  H   UNL     1      -6.785   7.592  -8.822  0.00  0.00    +0.159 HD
ENDROOT
BRANCH   1  10
ATOM     10  C   UNL     1      -8.361   7.160  -5.299  0.00  0.00    +0.151 C 
BRANCH  10  11
ATOM     11  C   UNL     1      -9.544   6.760  -4.460  0.00  0.00    -0.028 A 
ATOM     12  C   UNL     1     -10.689   7.567  -4.413  0.00  0.00    +0.005 A 
ATOM     13  C   UNL     1      -9.526   5.572  -3.714  0.00  0.00    +0.005 A 
ATOM     14  C   UNL     1     -11.799   7.181  -3.658  0.00  0.00    +0.000 A 
ATOM     15  C   UNL     1     -10.636   5.190  -2.960  0.00  0.00    +0.000 A 
ATOM     16  C   UNL     1     -11.773   5.994  -2.934  0.00  0.00    +0.000 A 
ENDBRANCH  10  11
ENDBRANCH   1  10
TORSDOF 2
ENDMDL
MODEL 5
REMARK VINA RESULT:    -5.143     22.894     24.335
REMARK INTER + INTRA:          -5.852
REMARK INTER:                  -5.721
REMARK INTRA:                  -0.131
REMARK UNBOUND:                -0.108
REMARK  Name = 1550473
REMARK  2 active torsions:
REMARK  status: ('A' for Active; 'I' for Inactive)
REMARK    1  A    between atoms: N_1  and  C_4
REMARK    2  A    between atoms: C_4  and  C_5
REMARK                            x       y       z     vdW  Elec       q    Type
REMARK                         _______ _______ _______ _____ _____    ______ ____
ROOT
ATOM      1  N   UNL     1       9.219  -7.896  -2.058  0.00  0.00    -0.354 N 
ATOM      2  N   UNL     1       9.159  -9.177  -3.986  0.00  0.00    -0.372 N 
ATOM      3  N   UNL     1       7.243  -8.953  -2.742  0.00  0.00    -0.372 N 
ATOM      4  C   UNL     1       8.538  -8.668  -2.915  0.00  0.00    +0.166 C 
ATOM      5  H   UNL     1      10.206  -7.741  -2.229  0.00  0.00    +0.163 HD
ATOM      6  H   UNL     1       8.670  -9.760  -4.652  0.00  0.00    +0.159 HD
ATOM      7  H   UNL     1      10.134  -8.984  -4.179  0.00  0.00    +0.159 HD
ATOM      8  H   UNL     1       6.719  -8.604  -1.951  0.00  0.00    +0.159 HD
ATOM      9  H   UNL     1       6.740  -9.545  -3.392  0.00  0.00    +0.159 HD
ENDROOT
BRANCH   1  10
ATOM     10  C   UNL     1       8.624  -7.248  -0.891  0.00  0.00    +0.151 C 
BRANCH  10  11
ATOM     11  C   UNL     1       9.355  -5.962  -0.616  0.00  0.00    -0.028 A 
ATOM     12  C   UNL     1      10.431  -5.568  -1.425  0.00  0.00    +0.005 A 
ATOM     13  C   UNL     1       8.972  -5.130   0.447  0.00  0.00    +0.005 A 
ATOM     14  C   UNL     1      11.090  -4.360  -1.189  0.00  0.00    +0.000 A 
ATOM     15  C   UNL     1       9.633  -3.925   0.680  0.00  0.00    +0.000 A 
ATOM     16  C   UNL     1      10.691  -3.539  -0.140  0.00  0.00    +0.000 A 
ENDBRANCH  10  11
ENDBRANCH   1  10
TORSDOF 2
ENDMDL
MODEL 6
REMARK VINA RESULT:    -5.093      1.720      2.346
REMARK INTER + INTRA:          -5.796
REMARK INTER:                  -5.668
REMARK INTRA:                  -0.128
REMARK UNBOUND:                -0.108
REMARK  Name = 1550473
REMARK  2 active torsions:
REMARK  status: ('A' for Active; 'I' for Inactive)
REMARK    1  A    between atoms: N_1  and  C_4
REMARK    2  A    between atoms: C_4  and  C_5
REMARK                            x       y       z     vdW  Elec       q    Type
REMARK                         _______ _______ _______ _____ _____    ______ ____
ROOT
ATOM      1  N   UNL     1      -4.540   9.499   9.385  0.00  0.00    -0.354 N 
ATOM      2  N   UNL     1      -3.196   7.787   8.595  0.00  0.00    -0.372 N 
ATOM      3  N   UNL     1      -3.304   9.749   7.410  0.00  0.00    -0.372 N 
ATOM      4  C   UNL     1      -3.689   9.025   8.466  0.00  0.00    +0.166 C 
ATOM      5  H   UNL     1      -4.816   8.889  10.147  0.00  0.00    +0.163 HD
ATOM      6  H   UNL     1      -2.549   7.404   7.919  0.00  0.00    +0.159 HD
ATOM      7  H   UNL     1      -3.437   7.197   9.381  0.00  0.00    +0.159 HD
ATOM      8  H   UNL     1      -3.645  10.689   7.252  0.00  0.00    +0.159 HD
ATOM      9  H   UNL     1      -2.667   9.379   6.717  0.00  0.00    +0.159 HD
ENDROOT
BRANCH   1  10
ATOM     10  C   UNL     1      -5.093  10.853   9.367  0.00  0.00    +0.151 C 
BRANCH  10  11
ATOM     11  C   UNL     1      -4.828  11.509  10.694  0.00  0.00    -0.028 A 
ATOM     12  C   UNL     1      -4.308  12.810  10.754  0.00  0.00    +0.005 A 
ATOM     13  C   UNL     1      -5.102  10.837  11.895  0.00  0.00    +0.005 A 
ATOM     14  C   UNL     1      -4.091  13.431  11.986  0.00  0.00    +0.000 A 
ATOM     15  C   UNL     1      -4.882  11.461  13.124  0.00  0.00    +0.000 A 
ATOM     16  C   UNL     1      -4.379  12.758  13.169  0.00  0.00    +0.000 A 
ENDBRANCH  10  11
ENDBRANCH   1  10
TORSDOF 2
ENDMDL
MODEL 7
REMARK VINA RESULT:    -4.995     16.999     18.229
REMARK INTER + INTRA:          -5.687
REMARK INTER:                  -5.507
REMARK INTRA:                  -0.180
REMARK UNBOUND:                -0.108
REMARK  Name = 1550473
REMARK  2 active torsions:
REMARK  status: ('A' for Active; 'I' for Inactive)
REMARK    1  A    between atoms: N_1  and  C_4
REMARK    2  A    between atoms: C_4  and  C_5
REMARK                            x       y       z     vdW  Elec       q    Type
REMARK                         _______ _______ _______ _____ _____    ______ ____
ROOT
ATOM      1  N   UNL     1      -2.849  -0.659  -4.615  0.00  0.00    -0.354 N 
ATOM      2  N   UNL     1      -1.435   0.753  -3.444  0.00  0.00    -0.372 N 
ATOM      3  N   UNL     1      -3.640   1.341  -3.684  0.00  0.00    -0.372 N 
ATOM      4  C   UNL     1      -2.653   0.471  -3.922  0.00  0.00    +0.166 C 
ATOM      5  H   UNL     1      -2.052  -1.262  -4.787  0.00  0.00    +0.163 HD
ATOM      6  H   UNL     1      -1.257   1.596  -2.915  0.00  0.00    +0.159 HD
ATOM      7  H   UNL     1      -0.651   0.126  -3.578  0.00  0.00    +0.159 HD
ATOM      8  H   UNL     1      -4.580   1.189  -4.022  0.00  0.00    +0.159 HD
ATOM      9  H   UNL     1      -3.479   2.196  -3.166  0.00  0.00    +0.159 HD
ENDROOT
BRANCH   1  10
ATOM     10  C   UNL     1      -4.147  -1.086  -5.132  0.00  0.00    +0.151 C 
BRANCH  10  11
ATOM     11  C   UNL     1      -4.755  -2.076  -4.177  0.00  0.00    -0.028 A 
ATOM     12  C   UNL     1      -6.021  -1.845  -3.622  0.00  0.00    +0.005 A 
ATOM     13  C   UNL     1      -4.071  -3.251  -3.829  0.00  0.00    +0.005 A 
ATOM     14  C   UNL     1      -6.599  -2.780  -2.758  0.00  0.00    +0.000 A 
ATOM     15  C   UNL     1      -4.650  -4.181  -2.966  0.00  0.00    +0.000 A 
ATOM     16  C   UNL     1      -5.915  -3.946  -2.433  0.00  0.00    +0.000 A 
ENDBRANCH  10  11
ENDBRANCH   1  10
TORSDOF 2
ENDMDL
MODEL 8
REMARK VINA RESULT:    -4.824     23.078     24.173
REMARK INTER + INTRA:          -5.496
REMARK INTER:                  -5.369
REMARK INTRA:                  -0.127
REMARK UNBOUND:                -0.108
REMARK  Name = 1550473
REMARK  2 active torsions:
REMARK  status: ('A' for Active; 'I' for Inactive)
REMARK    1  A    between atoms: N_1  and  C_4
REMARK    2  A    between atoms: C_4  and  C_5
REMARK                            x       y       z     vdW  Elec       q    Type
REMARK                         _______ _______ _______ _____ _____    ______ ____
ROOT
ATOM      1  N   UNL     1     -11.260 -12.344  -0.841  0.00  0.00    -0.354 N 
ATOM      2  N   UNL     1     -12.407 -12.936  -2.764  0.00  0.00    -0.372 N 
ATOM      3  N   UNL     1     -10.510 -11.658  -2.953  0.00  0.00    -0.372 N 
ATOM      4  C   UNL     1     -11.383 -12.307  -2.175  0.00  0.00    +0.166 C 
ATOM      5  H   UNL     1     -11.971 -12.828  -0.305  0.00  0.00    +0.163 HD
ATOM      6  H   UNL     1     -12.523 -12.928  -3.769  0.00  0.00    +0.159 HD
ATOM      7  H   UNL     1     -13.091 -13.457  -2.230  0.00  0.00    +0.159 HD
ATOM      8  H   UNL     1      -9.719 -11.159  -2.569  0.00  0.00    +0.159 HD
ATOM      9  H   UNL     1     -10.617 -11.629  -3.959  0.00  0.00    +0.159 HD
ENDROOT
BRANCH   1  10
ATOM     10  C   UNL     1     -10.152 -11.738  -0.105  0.00  0.00    +0.151 C 
BRANCH  10  11
ATOM     11  C   UNL     1     -10.672 -10.579   0.699  0.00  0.00    -0.028 A 
ATOM     12  C   UNL     1      -9.793  -9.770   1.433  0.00  0.00    +0.005 A 
ATOM     13  C   UNL     1     -12.043 -10.280   0.725  0.00  0.00    +0.005 A 
ATOM     14  C   UNL     1     -10.273  -8.674   2.156  0.00  0.00    +0.000 A 
ATOM     15  C   UNL     1     -12.518  -9.186   1.449  0.00  0.00    +0.000 A 
ATOM     16  C   UNL     1     -11.632  -8.382   2.162  0.00  0.00    +0.000 A 
ENDBRANCH  10  11
ENDBRANCH   1  10
TORSDOF 2
ENDMDL
MODEL 9
REMARK VINA RESULT:    -4.780     22.578     23.870
REMARK INTER + INTRA:          -5.447
REMARK INTER:                  -5.318
REMARK INTRA:                  -0.129
REMARK UNBOUND:                -0.108
REMARK  Name = 1550473
REMARK  2 active torsions:
REMARK  status: ('A' for Active; 'I' for Inactive)
REMARK    1  A    between atoms: N_1  and  C_4
REMARK    2  A    between atoms: C_4  and  C_5
REMARK                            x       y       z     vdW  Elec       q    Type
REMARK                         _______ _______ _______ _____ _____    ______ ____
ROOT
ATOM      1  N   UNL     1      -8.844 -10.522   1.818  0.00  0.00    -0.354 N 
ATOM      2  N   UNL     1      -8.328  -9.112   3.581  0.00  0.00    -0.372 N 
ATOM      3  N   UNL     1      -6.712  -9.571   2.018  0.00  0.00    -0.372 N 
ATOM      4  C   UNL     1      -7.962  -9.745   2.459  0.00  0.00    +0.166 C 
ATOM      5  H   UNL     1      -9.768 -10.636   2.220  0.00  0.00    +0.163 HD
ATOM      6  H   UNL     1      -7.685  -8.516   4.085  0.00  0.00    +0.159 HD
ATOM      7  H   UNL     1      -9.265  -9.191   3.956  0.00  0.00    +0.159 HD
ATOM      8  H   UNL     1      -6.372 -10.026   1.181  0.00  0.00    +0.159 HD
ATOM      9  H   UNL     1      -6.050  -8.988   2.515  0.00  0.00    +0.159 HD
ENDROOT
BRANCH   1  10
ATOM     10  C   UNL     1      -8.563 -11.212   0.560  0.00  0.00    +0.151 C 
BRANCH  10  11
ATOM     11  C   UNL     1      -9.777 -11.135  -0.325  0.00  0.00    -0.028 A 
ATOM     12  C   UNL     1      -9.656 -11.285  -1.714  0.00  0.00    +0.005 A 
ATOM     13  C   UNL     1     -11.051 -10.917   0.221  0.00  0.00    +0.005 A 
ATOM     14  C   UNL     1     -10.787 -11.243  -2.533  0.00  0.00    +0.000 A 
ATOM     15  C   UNL     1     -12.178 -10.875  -0.601  0.00  0.00    +0.000 A 
ATOM     16  C   UNL     1     -12.046 -11.040  -1.977  0.00  0.00    +0.000 A 
ENDBRANCH  10  11
ENDBRANCH   1  10
TORSDOF 2
ENDMDL
