MODEL 1
REMARK VINA RESULT:    -5.211      0.000      0.000
REMARK INTER + INTRA:          -5.935
REMARK INTER:                  -5.820
REMARK INTRA:                  -0.115
REMARK UNBOUND:                -0.115
REMARK  Name = 1550473
REMARK  2 active torsions:
REMARK  status: ('A' for Active; 'I' for Inactive)
REMARK    1  A    between atoms: N_1  and  C_4
REMARK    2  A    between atoms: C_4  and  C_5
REMARK                            x       y       z     vdW  Elec       q    Type
REMARK                         _______ _______ _______ _____ _____    ______ ____
ROOT
ATOM      1  N   UNL     1      16.257   5.112  11.973  0.00  0.00    -0.354 N 
ATOM      2  N   UNL     1      17.499   6.340  13.494  0.00  0.00    -0.372 N 
ATOM      3  N   UNL     1      16.733   4.265  14.106  0.00  0.00    -0.372 N 
ATOM      4  C   UNL     1      16.821   5.229  13.183  0.00  0.00    +0.166 C 
ATOM      5  H   UNL     1      16.334   5.891  11.329  0.00  0.00    +0.163 HD
ATOM      6  H   UNL     1      17.938   6.455  14.398  0.00  0.00    +0.159 HD
ATOM      7  H   UNL     1      17.614   7.097  12.832  0.00  0.00    +0.159 HD
ATOM      8  H   UNL     1      16.230   3.405  13.935  0.00  0.00    +0.159 HD
ATOM      9  H   UNL     1      17.156   4.367  15.020  0.00  0.00    +0.159 HD
ENDROOT
BRANCH   1  10
ATOM     10  C   UNL     1      15.543   3.921  11.515  0.00  0.00    +0.151 C 
BRANCH  10  11
ATOM     11  C   UNL     1      16.523   2.975  10.878  0.00  0.00    -0.028 A 
ATOM     12  C   UNL     1      17.601   3.466  10.126  0.00  0.00    +0.005 A 
ATOM     13  C   UNL     1      16.383   1.587  11.027  0.00  0.00    +0.005 A 
ATOM     14  C   UNL     1      18.528   2.589   9.560  0.00  0.00    +0.000 A 
ATOM     15  C   UNL     1      17.310   0.714  10.459  0.00  0.00    +0.000 A 
ATOM     16  C   UNL     1      18.384   1.216   9.727  0.00  0.00    +0.000 A 
ENDBRANCH  10  11
ENDBRANCH   1  10
TORSDOF 2
ENDMDL
MODEL 2
REMARK VINA RESULT:    -4.962      2.418      4.233
REMARK INTER + INTRA:          -5.658
REMARK INTER:                  -5.491
REMARK INTRA:                  -0.166
REMARK UNBOUND:                -0.115
REMARK  Name = 1550473
REMARK  2 active torsions:
REMARK  status: ('A' for Active; 'I' for Inactive)
REMARK    1  A    between atoms: N_1  and  C_4
REMARK    2  A    between atoms: C_4  and  C_5
REMARK                            x       y       z     vdW  Elec       q    Type
REMARK                         _______ _______ _______ _____ _____    ______ ____
ROOT
ATOM      1  N   UNL     1      18.771   3.218  10.624  0.00  0.00    -0.354 N 
ATOM      2  N   UNL     1      19.744   4.725   9.158  0.00  0.00    -0.372 N 
ATOM      3  N   UNL     1      17.704   3.820   8.626  0.00  0.00    -0.372 N 
ATOM      4  C   UNL     1      18.731   3.910   9.477  0.00  0.00    +0.166 C 
ATOM      5  H   UNL     1      19.591   3.308  11.212  0.00  0.00    +0.163 HD
ATOM      6  H   UNL     1      19.740   5.263   8.302  0.00  0.00    +0.159 HD
ATOM      7  H   UNL     1      20.542   4.848   9.770  0.00  0.00    +0.159 HD
ATOM      8  H   UNL     1      16.911   3.218   8.805  0.00  0.00    +0.159 HD
ATOM      9  H   UNL     1      17.687   4.341   7.758  0.00  0.00    +0.159 HD
ENDROOT
BRANCH   1  10
ATOM     10  C   UNL     1      17.695   2.345  11.090  0.00  0.00    +0.151 C 
BRANCH  10  11
ATOM     11  C   UNL     1      16.747   3.145  11.940  0.00  0.00    -0.028 A 
ATOM     12  C   UNL     1      17.215   3.842  13.064  0.00  0.00    +0.005 A 
ATOM     13  C   UNL     1      15.381   3.214  11.625  0.00  0.00    +0.005 A 
ATOM     14  C   UNL     1      16.340   4.609  13.838  0.00  0.00    +0.000 A 
ATOM     15  C   UNL     1      14.511   3.980  12.400  0.00  0.00    +0.000 A 
ATOM     16  C   UNL     1      14.991   4.680  13.505  0.00  0.00    +0.000 A 
ENDBRANCH  10  11
ENDBRANCH   1  10
TORSDOF 2
ENDMDL
MODEL 3
REMARK VINA RESULT:    -4.889      2.476      3.741
REMARK INTER + INTRA:          -5.575
REMARK INTER:                  -5.405
REMARK INTRA:                  -0.170
REMARK UNBOUND:                -0.115
REMARK  Name = 1550473
REMARK  2 active torsions:
REMARK  status: ('A' for Active; 'I' for Inactive)
REMARK    1  A    between atoms: N_1  and  C_4
REMARK    2  A    between atoms: C_4  and  C_5
REMARK                            x       y       z     vdW  Elec       q    Type
REMARK                         _______ _______ _______ _____ _____    ______ ____
ROOT
ATOM      1  N   UNL     1      19.380   4.195  11.116  0.00  0.00    -0.354 N 
ATOM      2  N   UNL     1      20.991   4.520  12.747  0.00  0.00    -0.372 N 
ATOM      3  N   UNL     1      19.725   6.309  12.067  0.00  0.00    -0.372 N 
ATOM      4  C   UNL     1      20.021   5.008  11.966  0.00  0.00    +0.166 C 
ATOM      5  H   UNL     1      19.672   3.226  11.065  0.00  0.00    +0.163 HD
ATOM      6  H   UNL     1      21.490   5.108  13.401  0.00  0.00    +0.159 HD
ATOM      7  H   UNL     1      21.249   3.540  12.727  0.00  0.00    +0.159 HD
ATOM      8  H   UNL     1      19.007   6.740  11.501  0.00  0.00    +0.159 HD
ATOM      9  H   UNL     1      20.221   6.916  12.707  0.00  0.00    +0.159 HD
ENDROOT
BRANCH   1  10
ATOM     10  C   UNL     1      18.272   4.616  10.259  0.00  0.00    +0.151 C 
BRANCH  10  11
ATOM     11  C   UNL     1      16.973   4.305  10.949  0.00  0.00    -0.028 A 
ATOM     12  C   UNL     1      16.774   3.061  11.566  0.00  0.00    +0.005 A 
ATOM     13  C   UNL     1      15.939   5.253  10.995  0.00  0.00    +0.005 A 
ATOM     14  C   UNL     1      15.578   2.783  12.233  0.00  0.00    +0.000 A 
ATOM     15  C   UNL     1      14.746   4.971  11.661  0.00  0.00    +0.000 A 
ATOM     16  C   UNL     1      14.567   3.737  12.282  0.00  0.00    +0.000 A 
ENDBRANCH  10  11
ENDBRANCH   1  10
TORSDOF 2
ENDMDL
MODEL 4
REMARK VINA RESULT:    -4.649      2.765      4.176
REMARK INTER + INTRA:          -5.308
REMARK INTER:                  -5.228
REMARK INTRA:                  -0.080
REMARK UNBOUND:                -0.115
REMARK  Name = 1550473
REMARK  2 active torsions:
REMARK  status: ('A' for Active; 'I' for Inactive)
REMARK    1  A    between atoms: N_1  and  C_4
REMARK    2  A    between atoms: C_4  and  C_5
REMARK                            x       y       z     vdW  Elec       q    Type
REMARK                         _______ _______ _______ _____ _____    ______ ____
ROOT
ATOM      1  N   UNL     1      18.444   4.988   9.167  0.00  0.00    -0.354 N 
ATOM      2  N   UNL     1      18.867   6.913   7.950  0.00  0.00    -0.372 N 
ATOM      3  N   UNL     1      19.581   6.798  10.128  0.00  0.00    -0.372 N 
ATOM      4  C   UNL     1      18.962   6.221   9.092  0.00  0.00    +0.166 C 
ATOM      5  H   UNL     1      17.961   4.619   8.356  0.00  0.00    +0.163 HD
ATOM      6  H   UNL     1      19.252   7.844   7.863  0.00  0.00    +0.159 HD
ATOM      7  H   UNL     1      18.424   6.524   7.127  0.00  0.00    +0.159 HD
ATOM      8  H   UNL     1      19.681   6.332  11.020  0.00  0.00    +0.159 HD
ATOM      9  H   UNL     1      19.962   7.734  10.064  0.00  0.00    +0.159 HD
ENDROOT
BRANCH   1  10
ATOM     10  C   UNL     1      18.541   4.131  10.347  0.00  0.00    +0.151 C 
BRANCH  10  11
ATOM     11  C   UNL     1      17.178   3.993  10.968  0.00  0.00    -0.028 A 
ATOM     12  C   UNL     1      16.798   2.796  11.592  0.00  0.00    +0.005 A 
ATOM     13  C   UNL     1      16.265   5.058  10.940  0.00  0.00    +0.005 A 
ATOM     14  C   UNL     1      15.544   2.678  12.195  0.00  0.00    +0.000 A 
ATOM     15  C   UNL     1      15.013   4.935  11.542  0.00  0.00    +0.000 A 
ATOM     16  C   UNL     1      14.653   3.746  12.172  0.00  0.00    +0.000 A 
ENDBRANCH  10  11
ENDBRANCH   1  10
TORSDOF 2
ENDMDL
MODEL 5
REMARK VINA RESULT:    -4.510      2.803      4.737
REMARK INTER + INTRA:          -5.152
REMARK INTER:                  -5.003
REMARK INTRA:                  -0.149
REMARK UNBOUND:                -0.115
REMARK  Name = 1550473
REMARK  2 active torsions:
REMARK  status: ('A' for Active; 'I' for Inactive)
REMARK    1  A    between atoms: N_1  and  C_4
REMARK    2  A    between atoms: C_4  and  C_5
REMARK                            x       y       z     vdW  Elec       q    Type
REMARK                         _______ _______ _______ _____ _____    ______ ____
ROOT
ATOM      1  N   UNL     1      18.892   3.051  10.217  0.00  0.00    -0.354 N 
ATOM      2  N   UNL     1      19.645   1.219   9.017  0.00  0.00    -0.372 N 
ATOM      3  N   UNL     1      18.585   2.919   7.898  0.00  0.00    -0.372 N 
ATOM      4  C   UNL     1      19.035   2.410   9.050  0.00  0.00    +0.166 C 
ATOM      5  H   UNL     1      19.227   2.598  11.060  0.00  0.00    +0.163 HD
ATOM      6  H   UNL     1      19.771   0.713   8.150  0.00  0.00    +0.159 HD
ATOM      7  H   UNL     1      20.021   0.790   9.854  0.00  0.00    +0.159 HD
ATOM      8  H   UNL     1      18.110   3.811   7.856  0.00  0.00    +0.159 HD
ATOM      9  H   UNL     1      18.691   2.422   7.022  0.00  0.00    +0.159 HD
ENDROOT
BRANCH   1  10
ATOM     10  C   UNL     1      18.290   4.376  10.354  0.00  0.00    +0.151 C 
BRANCH  10  11
ATOM     11  C   UNL     1      17.166   4.304  11.350  0.00  0.00    -0.028 A 
ATOM     12  C   UNL     1      15.981   3.622  11.039  0.00  0.00    +0.005 A 
ATOM     13  C   UNL     1      17.281   4.911  12.610  0.00  0.00    +0.005 A 
ATOM     14  C   UNL     1      14.948   3.529  11.975  0.00  0.00    +0.000 A 
ATOM     15  C   UNL     1      16.247   4.817  13.542  0.00  0.00    +0.000 A 
ATOM     16  C   UNL     1      15.082   4.124  13.225  0.00  0.00    +0.000 A 
ENDBRANCH  10  11
ENDBRANCH   1  10
TORSDOF 2
ENDMDL
MODEL 6
REMARK VINA RESULT:    -4.432     29.057     30.059
REMARK INTER + INTRA:          -5.066
REMARK INTER:                  -4.915
REMARK INTRA:                  -0.151
REMARK UNBOUND:                -0.115
REMARK  Name = 1550473
REMARK  2 active torsions:
REMARK  status: ('A' for Active; 'I' for Inactive)
REMARK    1  A    between atoms: N_1  and  C_4
REMARK    2  A    between atoms: C_4  and  C_5
REMARK                            x       y       z     vdW  Elec       q    Type
REMARK                         _______ _______ _______ _____ _____    ______ ____
ROOT
ATOM      1  N   UNL     1     -10.117  -8.044   3.150  0.00  0.00    -0.354 N 
ATOM      2  N   UNL     1     -11.554  -6.826   4.498  0.00  0.00    -0.372 N 
ATOM      3  N   UNL     1      -9.328  -6.271   4.465  0.00  0.00    -0.372 N 
ATOM      4  C   UNL     1     -10.321  -7.054   4.030  0.00  0.00    +0.166 C 
ATOM      5  H   UNL     1     -10.907  -8.620   2.883  0.00  0.00    +0.163 HD
ATOM      6  H   UNL     1     -11.739  -6.084   5.160  0.00  0.00    +0.159 HD
ATOM      7  H   UNL     1     -12.349  -7.374   4.195  0.00  0.00    +0.159 HD
ATOM      8  H   UNL     1      -8.373  -6.395   4.154  0.00  0.00    +0.159 HD
ATOM      9  H   UNL     1      -9.491  -5.531   5.136  0.00  0.00    +0.159 HD
ENDROOT
BRANCH   1  10
ATOM     10  C   UNL     1      -8.823  -8.340   2.538  0.00  0.00    +0.151 C 
BRANCH  10  11
ATOM     11  C   UNL     1      -8.398  -9.727   2.937  0.00  0.00    -0.028 A 
ATOM     12  C   UNL     1      -7.057 -10.122   2.818  0.00  0.00    +0.005 A 
ATOM     13  C   UNL     1      -9.329 -10.648   3.440  0.00  0.00    +0.005 A 
ATOM     14  C   UNL     1      -6.656 -11.399   3.216  0.00  0.00    +0.000 A 
ATOM     15  C   UNL     1      -8.925 -11.923   3.835  0.00  0.00    +0.000 A 
ATOM     16  C   UNL     1      -7.588 -12.297   3.725  0.00  0.00    +0.000 A 
ENDBRANCH  10  11
ENDBRANCH   1  10
TORSDOF 2
ENDMDL
MODEL 7
REMARK VINA RESULT:    -4.423      3.445      5.242
REMARK INTER + INTRA:          -5.055
REMARK INTER:                  -4.940
REMARK INTRA:                  -0.116
REMARK UNBOUND:                -0.115
REMARK  Name = 1550473
REMARK  2 active torsions:
REMARK  status: ('A' for Active; 'I' for Inactive)
REMARK    1  A    between atoms: N_1  and  C_4
REMARK    2  A    between atoms: C_4  and  C_5
REMARK                            x       y       z     vdW  Elec       q    Type
REMARK                         _______ _______ _______ _____ _____    ______ ____
ROOT
ATOM      1  N   UNL     1      15.458   5.346  13.277  0.00  0.00    -0.354 N 
ATOM      2  N   UNL     1      17.500   6.400  13.561  0.00  0.00    -0.372 N 
ATOM      3  N   UNL     1      17.434   4.107  13.510  0.00  0.00    -0.372 N 
ATOM      4  C   UNL     1      16.785   5.275  13.448  0.00  0.00    +0.166 C 
ATOM      5  H   UNL     1      15.022   6.261  13.268  0.00  0.00    +0.163 HD
ATOM      6  H   UNL     1      18.503   6.378  13.687  0.00  0.00    +0.159 HD
ATOM      7  H   UNL     1      17.068   7.315  13.506  0.00  0.00    +0.159 HD
ATOM      8  H   UNL     1      16.951   3.222  13.437  0.00  0.00    +0.159 HD
ATOM      9  H   UNL     1      18.436   4.064  13.647  0.00  0.00    +0.159 HD
ENDROOT
BRANCH   1  10
ATOM     10  C   UNL     1      14.594   4.182  13.089  0.00  0.00    +0.151 C 
BRANCH  10  11
ATOM     11  C   UNL     1      13.181   4.648  12.871  0.00  0.00    -0.028 A 
ATOM     12  C   UNL     1      12.925   5.864  12.220  0.00  0.00    +0.005 A 
ATOM     13  C   UNL     1      12.094   3.877  13.308  0.00  0.00    +0.005 A 
ATOM     14  C   UNL     1      11.613   6.284  11.990  0.00  0.00    +0.000 A 
ATOM     15  C   UNL     1      10.785   4.299  13.078  0.00  0.00    +0.000 A 
ATOM     16  C   UNL     1      10.545   5.501  12.417  0.00  0.00    +0.000 A 
ENDBRANCH  10  11
ENDBRANCH   1  10
TORSDOF 2
ENDMDL
MODEL 8
REMARK VINA RESULT:    -4.341     41.397     42.416
REMARK INTER + INTRA:          -4.963
REMARK INTER:                  -4.832
REMARK INTRA:                  -0.131
REMARK UNBOUND:                -0.115
REMARK  Name = 1550473
REMARK  2 active torsions:
REMARK  status: ('A' for Active; 'I' for Inactive)
REMARK    1  A    between atoms: N_1  and  C_4
REMARK    2  A    between atoms: C_4  and  C_5
REMARK                            x       y       z     vdW  Elec       q    Type
REMARK                         _______ _______ _______ _____ _____    ______ ____
ROOT
ATOM      1  N   UNL     1      -3.872 -14.080 -20.850  0.00  0.00    -0.354 N 
ATOM      2  N   UNL     1      -5.904 -15.093 -20.397  0.00  0.00    -0.372 N 
ATOM      3  N   UNL     1      -5.365 -13.150 -19.302  0.00  0.00    -0.372 N 
ATOM      4  C   UNL     1      -5.034 -14.099 -20.184  0.00  0.00    +0.166 C 
ATOM      5  H   UNL     1      -3.667 -14.845 -21.483  0.00  0.00    +0.163 HD
ATOM      6  H   UNL     1      -6.791 -15.132 -19.911  0.00  0.00    +0.159 HD
ATOM      7  H   UNL     1      -5.717 -15.831 -21.064  0.00  0.00    +0.159 HD
ATOM      8  H   UNL     1      -4.749 -12.376 -19.091  0.00  0.00    +0.159 HD
ATOM      9  H   UNL     1      -6.242 -13.178 -18.797  0.00  0.00    +0.159 HD
ENDROOT
BRANCH   1  10
ATOM     10  C   UNL     1      -2.878 -13.014 -20.731  0.00  0.00    +0.151 C 
BRANCH  10  11
ATOM     11  C   UNL     1      -2.174 -12.850 -22.050  0.00  0.00    -0.028 A 
ATOM     12  C   UNL     1      -0.913 -12.238 -22.112  0.00  0.00    +0.005 A 
ATOM     13  C   UNL     1      -2.759 -13.309 -23.240  0.00  0.00    +0.005 A 
ATOM     14  C   UNL     1      -0.245 -12.112 -23.333  0.00  0.00    +0.000 A 
ATOM     15  C   UNL     1      -2.090 -13.180 -24.456  0.00  0.00    +0.000 A 
ATOM     16  C   UNL     1      -0.832 -12.584 -24.502  0.00  0.00    +0.000 A 
ENDBRANCH  10  11
ENDBRANCH   1  10
TORSDOF 2
ENDMDL
MODEL 9
REMARK VINA RESULT:    -4.239     19.500     20.641
REMARK INTER + INTRA:          -4.850
REMARK INTER:                  -4.709
REMARK INTRA:                  -0.142
REMARK UNBOUND:                -0.115
REMARK  Name = 1550473
REMARK  2 active torsions:
REMARK  status: ('A' for Active; 'I' for Inactive)
REMARK    1  A    between atoms: N_1  and  C_4
REMARK    2  A    between atoms: C_4  and  C_5
REMARK                            x       y       z     vdW  Elec       q    Type
REMARK                         _______ _______ _______ _____ _____    ______ ____
ROOT
ATOM      1  N   UNL     1       4.342 -12.607  15.671  0.00  0.00    -0.354 N 
ATOM      2  N   UNL     1       2.602 -13.475  16.931  0.00  0.00    -0.372 N 
ATOM      3  N   UNL     1       4.758 -13.796  17.647  0.00  0.00    -0.372 N 
ATOM      4  C   UNL     1       3.914 -13.288  16.743  0.00  0.00    +0.166 C 
ATOM      5  H   UNL     1       3.653 -12.274  15.007  0.00  0.00    +0.163 HD
ATOM      6  H   UNL     1       2.250 -13.981  17.732  0.00  0.00    +0.159 HD
ATOM      7  H   UNL     1       1.914 -13.101  16.289  0.00  0.00    +0.159 HD
ATOM      8  H   UNL     1       5.761 -13.695  17.560  0.00  0.00    +0.159 HD
ATOM      9  H   UNL     1       4.426 -14.316  18.449  0.00  0.00    +0.159 HD
ENDROOT
BRANCH   1  10
ATOM     10  C   UNL     1       5.746 -12.303  15.402  0.00  0.00    +0.151 C 
BRANCH  10  11
ATOM     11  C   UNL     1       6.114 -12.838  14.046  0.00  0.00    -0.028 A 
ATOM     12  C   UNL     1       5.169 -13.527  13.272  0.00  0.00    +0.005 A 
ATOM     13  C   UNL     1       7.405 -12.654  13.527  0.00  0.00    +0.005 A 
ATOM     14  C   UNL     1       5.501 -13.999  12.000  0.00  0.00    +0.000 A 
ATOM     15  C   UNL     1       7.733 -13.127  12.256  0.00  0.00    +0.000 A 
ATOM     16  C   UNL     1       6.781 -13.797  11.492  0.00  0.00    +0.000 A 
ENDBRANCH  10  11
ENDBRANCH   1  10
TORSDOF 2
ENDMDL
