MODEL 1
REMARK VINA RESULT:    -5.653      0.000      0.000
REMARK INTER + INTRA:          -6.459
REMARK INTER:                  -6.314
REMARK INTRA:                  -0.145
REMARK UNBOUND:                -0.145
REMARK  Name = 1550473
REMARK  2 active torsions:
REMARK  status: ('A' for Active; 'I' for Inactive)
REMARK    1  A    between atoms: N_1  and  C_4
REMARK    2  A    between atoms: C_4  and  C_5
REMARK                            x       y       z     vdW  Elec       q    Type
REMARK                         _______ _______ _______ _____ _____    ______ ____
ROOT
ATOM      1  N   UNL     1      -3.932  13.476  -1.368  0.00  0.00    -0.354 N 
ATOM      2  N   UNL     1      -1.839  14.092  -2.148  0.00  0.00    -0.372 N 
ATOM      3  N   UNL     1      -2.918  15.467  -0.660  0.00  0.00    -0.372 N 
ATOM      4  C   UNL     1      -2.911  14.343  -1.385  0.00  0.00    +0.166 C 
ATOM      5  H   UNL     1      -3.878  12.658  -1.964  0.00  0.00    +0.163 HD
ATOM      6  H   UNL     1      -1.052  14.727  -2.179  0.00  0.00    +0.159 HD
ATOM      7  H   UNL     1      -1.769  13.251  -2.707  0.00  0.00    +0.159 HD
ATOM      8  H   UNL     1      -3.699  15.717  -0.069  0.00  0.00    +0.159 HD
ATOM      9  H   UNL     1      -2.145  16.120  -0.687  0.00  0.00    +0.159 HD
ENDROOT
BRANCH   1  10
ATOM     10  C   UNL     1      -5.120  13.629  -0.532  0.00  0.00    +0.151 C 
BRANCH  10  11
ATOM     11  C   UNL     1      -6.342  13.619  -1.408  0.00  0.00    -0.028 A 
ATOM     12  C   UNL     1      -6.413  14.441  -2.541  0.00  0.00    +0.005 A 
ATOM     13  C   UNL     1      -7.431  12.783  -1.113  0.00  0.00    +0.005 A 
ATOM     14  C   UNL     1      -7.535  14.410  -3.372  0.00  0.00    +0.000 A 
ATOM     15  C   UNL     1      -8.550  12.755  -1.945  0.00  0.00    +0.000 A 
ATOM     16  C   UNL     1      -8.601  13.567  -3.076  0.00  0.00    +0.000 A 
ENDBRANCH  10  11
ENDBRANCH   1  10
TORSDOF 2
ENDMDL
MODEL 2
REMARK VINA RESULT:    -5.512     27.268     28.315
REMARK INTER + INTRA:          -6.301
REMARK INTER:                  -6.176
REMARK INTRA:                  -0.125
REMARK UNBOUND:                -0.145
REMARK  Name = 1550473
REMARK  2 active torsions:
REMARK  status: ('A' for Active; 'I' for Inactive)
REMARK    1  A    between atoms: N_1  and  C_4
REMARK    2  A    between atoms: C_4  and  C_5
REMARK                            x       y       z     vdW  Elec       q    Type
REMARK                         _______ _______ _______ _____ _____    ______ ____
ROOT
ATOM      1  N   UNL     1     -14.158  -6.039  16.587  0.00  0.00    -0.354 N 
ATOM      2  N   UNL     1     -11.999  -5.282  16.941  0.00  0.00    -0.372 N 
ATOM      3  N   UNL     1     -12.726  -5.590  14.787  0.00  0.00    -0.372 N 
ATOM      4  C   UNL     1     -12.975  -5.642  16.100  0.00  0.00    +0.166 C 
ATOM      5  H   UNL     1     -14.274  -6.086  17.593  0.00  0.00    +0.163 HD
ATOM      6  H   UNL     1     -11.096  -4.974  16.603  0.00  0.00    +0.159 HD
ATOM      7  H   UNL     1     -12.132  -5.285  17.945  0.00  0.00    +0.159 HD
ATOM      8  H   UNL     1     -13.420  -5.854  14.100  0.00  0.00    +0.159 HD
ATOM      9  H   UNL     1     -11.826  -5.296  14.430  0.00  0.00    +0.159 HD
ENDROOT
BRANCH   1  10
ATOM     10  C   UNL     1     -15.305  -6.401  15.756  0.00  0.00    +0.151 C 
BRANCH  10  11
ATOM     11  C   UNL     1     -16.499  -5.596  16.189  0.00  0.00    -0.028 A 
ATOM     12  C   UNL     1     -17.155  -5.887  17.394  0.00  0.00    +0.005 A 
ATOM     13  C   UNL     1     -16.977  -4.538  15.401  0.00  0.00    +0.005 A 
ATOM     14  C   UNL     1     -18.246  -5.121  17.812  0.00  0.00    +0.000 A 
ATOM     15  C   UNL     1     -18.067  -3.775  15.821  0.00  0.00    +0.000 A 
ATOM     16  C   UNL     1     -18.699  -4.066  17.028  0.00  0.00    +0.000 A 
ENDBRANCH  10  11
ENDBRANCH   1  10
TORSDOF 2
ENDMDL
MODEL 3
REMARK VINA RESULT:    -5.447     24.602     25.678
REMARK INTER + INTRA:          -6.228
REMARK INTER:                  -6.126
REMARK INTRA:                  -0.102
REMARK UNBOUND:                -0.145
REMARK  Name = 1550473
REMARK  2 active torsions:
REMARK  status: ('A' for Active; 'I' for Inactive)
REMARK    1  A    between atoms: N_1  and  C_4
REMARK    2  A    between atoms: C_4  and  C_5
REMARK                            x       y       z     vdW  Elec       q    Type
REMARK                         _______ _______ _______ _____ _____    ______ ____
ROOT
ATOM      1  N   UNL     1      -9.178  -9.175  -7.619  0.00  0.00    -0.354 N 
ATOM      2  N   UNL     1      -7.586  -8.314  -6.175  0.00  0.00    -0.372 N 
ATOM      3  N   UNL     1      -9.731  -8.604  -5.415  0.00  0.00    -0.372 N 
ATOM      4  C   UNL     1      -8.844  -8.703  -6.411  0.00  0.00    +0.166 C 
ATOM      5  H   UNL     1      -8.467  -9.197  -8.341  0.00  0.00    +0.163 HD
ATOM      6  H   UNL     1      -7.303  -7.957  -5.272  0.00  0.00    +0.159 HD
ATOM      7  H   UNL     1      -6.866  -8.380  -6.884  0.00  0.00    +0.159 HD
ATOM      8  H   UNL     1     -10.699  -8.875  -5.530  0.00  0.00    +0.159 HD
ATOM      9  H   UNL     1      -9.471  -8.238  -4.508  0.00  0.00    +0.159 HD
ENDROOT
BRANCH   1  10
ATOM     10  C   UNL     1     -10.508  -9.674  -7.963  0.00  0.00    +0.151 C 
BRANCH  10  11
ATOM     11  C   UNL     1     -10.379 -10.711  -9.045  0.00  0.00    -0.028 A 
ATOM     12  C   UNL     1     -10.546 -10.358 -10.393  0.00  0.00    +0.005 A 
ATOM     13  C   UNL     1     -10.083 -12.046  -8.731  0.00  0.00    +0.005 A 
ATOM     14  C   UNL     1     -10.397 -11.314 -11.400  0.00  0.00    +0.000 A 
ATOM     15  C   UNL     1      -9.936 -12.998  -9.740  0.00  0.00    +0.000 A 
ATOM     16  C   UNL     1     -10.090 -12.631 -11.074  0.00  0.00    +0.000 A 
ENDBRANCH  10  11
ENDBRANCH   1  10
TORSDOF 2
ENDMDL
MODEL 4
REMARK VINA RESULT:    -5.378      1.692      2.791
REMARK INTER + INTRA:          -6.151
REMARK INTER:                  -6.032
REMARK INTRA:                  -0.119
REMARK UNBOUND:                -0.145
REMARK  Name = 1550473
REMARK  2 active torsions:
REMARK  status: ('A' for Active; 'I' for Inactive)
REMARK    1  A    between atoms: N_1  and  C_4
REMARK    2  A    between atoms: C_4  and  C_5
REMARK                            x       y       z     vdW  Elec       q    Type
REMARK                         _______ _______ _______ _____ _____    ______ ____
ROOT
ATOM      1  N   UNL     1      -3.614  14.301  -0.688  0.00  0.00    -0.354 N 
ATOM      2  N   UNL     1      -1.491  13.842  -1.492  0.00  0.00    -0.372 N 
ATOM      3  N   UNL     1      -3.103  14.554  -2.961  0.00  0.00    -0.372 N 
ATOM      4  C   UNL     1      -2.751  14.236  -1.711  0.00  0.00    +0.166 C 
ATOM      5  H   UNL     1      -3.294  14.017   0.231  0.00  0.00    +0.163 HD
ATOM      6  H   UNL     1      -0.817  13.786  -2.243  0.00  0.00    +0.159 HD
ATOM      7  H   UNL     1      -1.161  13.603  -0.564  0.00  0.00    +0.159 HD
ATOM      8  H   UNL     1      -4.041  14.853  -3.194  0.00  0.00    +0.159 HD
ATOM      9  H   UNL     1      -2.445  14.494  -3.728  0.00  0.00    +0.159 HD
ENDROOT
BRANCH   1  10
ATOM     10  C   UNL     1      -4.994  14.769  -0.811  0.00  0.00    +0.151 C 
BRANCH  10  11
ATOM     11  C   UNL     1      -5.905  13.802  -0.107  0.00  0.00    -0.028 A 
ATOM     12  C   UNL     1      -5.675  13.453   1.232  0.00  0.00    +0.005 A 
ATOM     13  C   UNL     1      -7.004  13.236  -0.771  0.00  0.00    +0.005 A 
ATOM     14  C   UNL     1      -6.538  12.578   1.896  0.00  0.00    +0.000 A 
ATOM     15  C   UNL     1      -7.863  12.362  -0.105  0.00  0.00    +0.000 A 
ATOM     16  C   UNL     1      -7.631  12.035   1.229  0.00  0.00    +0.000 A 
ENDBRANCH  10  11
ENDBRANCH   1  10
TORSDOF 2
ENDMDL
MODEL 5
REMARK VINA RESULT:    -5.353      3.993      4.900
REMARK INTER + INTRA:          -6.124
REMARK INTER:                  -6.001
REMARK INTRA:                  -0.122
REMARK UNBOUND:                -0.145
REMARK  Name = 1550473
REMARK  2 active torsions:
REMARK  status: ('A' for Active; 'I' for Inactive)
REMARK    1  A    between atoms: N_1  and  C_4
REMARK    2  A    between atoms: C_4  and  C_5
REMARK                            x       y       z     vdW  Elec       q    Type
REMARK                         _______ _______ _______ _____ _____    ______ ____
ROOT
ATOM      1  N   UNL     1      -5.176  13.632   3.571  0.00  0.00    -0.354 N 
ATOM      2  N   UNL     1      -3.745  14.688   5.055  0.00  0.00    -0.372 N 
ATOM      3  N   UNL     1      -5.615  13.638   5.873  0.00  0.00    -0.372 N 
ATOM      4  C   UNL     1      -4.857  13.978   4.825  0.00  0.00    +0.166 C 
ATOM      5  H   UNL     1      -4.575  13.947   2.817  0.00  0.00    +0.163 HD
ATOM      6  H   UNL     1      -3.477  14.961   5.991  0.00  0.00    +0.159 HD
ATOM      7  H   UNL     1      -3.123  14.962   4.304  0.00  0.00    +0.159 HD
ATOM      8  H   UNL     1      -6.469  13.108   5.766  0.00  0.00    +0.159 HD
ATOM      9  H   UNL     1      -5.369  13.912   6.816  0.00  0.00    +0.159 HD
ENDROOT
BRANCH   1  10
ATOM     10  C   UNL     1      -6.335  12.815   3.218  0.00  0.00    +0.151 C 
BRANCH  10  11
ATOM     11  C   UNL     1      -6.513  12.832   1.725  0.00  0.00    -0.028 A 
ATOM     12  C   UNL     1      -7.686  12.333   1.141  0.00  0.00    +0.005 A 
ATOM     13  C   UNL     1      -5.514  13.353   0.888  0.00  0.00    +0.005 A 
ATOM     14  C   UNL     1      -7.864  12.376  -0.244  0.00  0.00    +0.000 A 
ATOM     15  C   UNL     1      -5.695  13.394  -0.494  0.00  0.00    +0.000 A 
ATOM     16  C   UNL     1      -6.871  12.908  -1.060  0.00  0.00    +0.000 A 
ENDBRANCH  10  11
ENDBRANCH   1  10
TORSDOF 2
ENDMDL
MODEL 6
REMARK VINA RESULT:    -5.244      1.253      2.355
REMARK INTER + INTRA:          -6.002
REMARK INTER:                  -5.831
REMARK INTRA:                  -0.171
REMARK UNBOUND:                -0.145
REMARK  Name = 1550473
REMARK  2 active torsions:
REMARK  status: ('A' for Active; 'I' for Inactive)
REMARK    1  A    between atoms: N_1  and  C_4
REMARK    2  A    between atoms: C_4  and  C_5
REMARK                            x       y       z     vdW  Elec       q    Type
REMARK                         _______ _______ _______ _____ _____    ______ ____
ROOT
ATOM      1  N   UNL     1      -3.559  15.308  -1.468  0.00  0.00    -0.354 N 
ATOM      2  N   UNL     1      -1.575  14.175  -1.844  0.00  0.00    -0.372 N 
ATOM      3  N   UNL     1      -3.253  13.119  -0.689  0.00  0.00    -0.372 N 
ATOM      4  C   UNL     1      -2.810  14.206  -1.330  0.00  0.00    +0.166 C 
ATOM      5  H   UNL     1      -3.154  16.110  -1.938  0.00  0.00    +0.163 HD
ATOM      6  H   UNL     1      -0.987  13.357  -1.758  0.00  0.00    +0.159 HD
ATOM      7  H   UNL     1      -1.189  14.961  -2.353  0.00  0.00    +0.159 HD
ATOM      8  H   UNL     1      -4.174  13.081  -0.273  0.00  0.00    +0.159 HD
ATOM      9  H   UNL     1      -2.675  12.295  -0.583  0.00  0.00    +0.159 HD
ENDROOT
BRANCH   1  10
ATOM     10  C   UNL     1      -4.936  15.426  -0.992  0.00  0.00    +0.151 C 
BRANCH  10  11
ATOM     11  C   UNL     1      -5.873  15.306  -2.162  0.00  0.00    -0.028 A 
ATOM     12  C   UNL     1      -6.913  14.365  -2.148  0.00  0.00    +0.005 A 
ATOM     13  C   UNL     1      -5.728  16.134  -3.286  0.00  0.00    +0.005 A 
ATOM     14  C   UNL     1      -7.802  14.274  -3.223  0.00  0.00    +0.000 A 
ATOM     15  C   UNL     1      -6.617  16.039  -4.357  0.00  0.00    +0.000 A 
ATOM     16  C   UNL     1      -7.655  15.110  -4.324  0.00  0.00    +0.000 A 
ENDBRANCH  10  11
ENDBRANCH   1  10
TORSDOF 2
ENDMDL
MODEL 7
REMARK VINA RESULT:    -5.230      1.724      2.934
REMARK INTER + INTRA:          -5.986
REMARK INTER:                  -5.871
REMARK INTRA:                  -0.116
REMARK UNBOUND:                -0.145
REMARK  Name = 1550473
REMARK  2 active torsions:
REMARK  status: ('A' for Active; 'I' for Inactive)
REMARK    1  A    between atoms: N_1  and  C_4
REMARK    2  A    between atoms: C_4  and  C_5
REMARK                            x       y       z     vdW  Elec       q    Type
REMARK                         _______ _______ _______ _____ _____    ______ ____
ROOT
ATOM      1  N   UNL     1      -3.798  13.730  -1.065  0.00  0.00    -0.354 N 
ATOM      2  N   UNL     1      -1.533  13.969  -1.482  0.00  0.00    -0.372 N 
ATOM      3  N   UNL     1      -3.032  14.618  -3.094  0.00  0.00    -0.372 N 
ATOM      4  C   UNL     1      -2.804  14.105  -1.880  0.00  0.00    +0.166 C 
ATOM      5  H   UNL     1      -3.558  13.320  -0.170  0.00  0.00    +0.163 HD
ATOM      6  H   UNL     1      -0.761  14.247  -2.074  0.00  0.00    +0.159 HD
ATOM      7  H   UNL     1      -1.297  13.602  -0.568  0.00  0.00    +0.159 HD
ATOM      8  H   UNL     1      -3.968  14.740  -3.456  0.00  0.00    +0.159 HD
ATOM      9  H   UNL     1      -2.273  14.891  -3.706  0.00  0.00    +0.159 HD
ENDROOT
BRANCH   1  10
ATOM     10  C   UNL     1      -5.217  13.885  -1.381  0.00  0.00    +0.151 C 
BRANCH  10  11
ATOM     11  C   UNL     1      -6.036  13.295  -0.267  0.00  0.00    -0.028 A 
ATOM     12  C   UNL     1      -7.290  12.724  -0.530  0.00  0.00    +0.005 A 
ATOM     13  C   UNL     1      -5.562  13.299   1.054  0.00  0.00    +0.005 A 
ATOM     14  C   UNL     1      -8.038  12.149   0.501  0.00  0.00    +0.000 A 
ATOM     15  C   UNL     1      -6.312  12.724   2.080  0.00  0.00    +0.000 A 
ATOM     16  C   UNL     1      -7.549  12.147   1.803  0.00  0.00    +0.000 A 
ENDBRANCH  10  11
ENDBRANCH   1  10
TORSDOF 2
ENDMDL
MODEL 8
REMARK VINA RESULT:    -5.149     23.729     24.833
REMARK INTER + INTRA:          -5.895
REMARK INTER:                  -5.720
REMARK INTRA:                  -0.175
REMARK UNBOUND:                -0.145
REMARK  Name = 1550473
REMARK  2 active torsions:
REMARK  status: ('A' for Active; 'I' for Inactive)
REMARK    1  A    between atoms: N_1  and  C_4
REMARK    2  A    between atoms: C_4  and  C_5
REMARK                            x       y       z     vdW  Elec       q    Type
REMARK                         _______ _______ _______ _____ _____    ______ ____
ROOT
ATOM      1  N   UNL     1      -8.924  -9.884  -7.124  0.00  0.00    -0.354 N 
ATOM      2  N   UNL     1      -7.540  -8.283  -6.182  0.00  0.00    -0.372 N 
ATOM      3  N   UNL     1      -9.709  -8.440  -5.453  0.00  0.00    -0.372 N 
ATOM      4  C   UNL     1      -8.736  -8.879  -6.258  0.00  0.00    +0.166 C 
ATOM      5  H   UNL     1      -8.155 -10.149  -7.728  0.00  0.00    +0.163 HD
ATOM      6  H   UNL     1      -7.367  -7.525  -5.536  0.00  0.00    +0.159 HD
ATOM      7  H   UNL     1      -6.759  -8.581  -6.755  0.00  0.00    +0.159 HD
ATOM      8  H   UNL     1     -10.637  -8.843  -5.465  0.00  0.00    +0.159 HD
ATOM      9  H   UNL     1      -9.559  -7.675  -4.807  0.00  0.00    +0.159 HD
ENDROOT
BRANCH   1  10
ATOM     10  C   UNL     1     -10.173 -10.634  -7.246  0.00  0.00    +0.151 C 
BRANCH  10  11
ATOM     11  C   UNL     1     -10.880 -10.209  -8.503  0.00  0.00    -0.028 A 
ATOM     12  C   UNL     1     -10.364 -10.551  -9.761  0.00  0.00    +0.005 A 
ATOM     13  C   UNL     1     -12.071  -9.468  -8.442  0.00  0.00    +0.005 A 
ATOM     14  C   UNL     1     -11.037 -10.182 -10.929  0.00  0.00    +0.000 A 
ATOM     15  C   UNL     1     -12.739  -9.101  -9.610  0.00  0.00    +0.000 A 
ATOM     16  C   UNL     1     -12.223  -9.460 -10.853  0.00  0.00    +0.000 A 
ENDBRANCH  10  11
ENDBRANCH   1  10
TORSDOF 2
ENDMDL
MODEL 9
REMARK VINA RESULT:    -5.127     32.241     33.090
REMARK INTER + INTRA:          -5.871
REMARK INTER:                  -5.742
REMARK INTRA:                  -0.129
REMARK UNBOUND:                -0.145
REMARK  Name = 1550473
REMARK  2 active torsions:
REMARK  status: ('A' for Active; 'I' for Inactive)
REMARK    1  A    between atoms: N_1  and  C_4
REMARK    2  A    between atoms: C_4  and  C_5
REMARK                            x       y       z     vdW  Elec       q    Type
REMARK                         _______ _______ _______ _____ _____    ______ ____
ROOT
ATOM      1  N   UNL     1       6.358 -14.155 -14.827  0.00  0.00    -0.354 N 
ATOM      2  N   UNL     1       6.266 -14.257 -17.139  0.00  0.00    -0.372 N 
ATOM      3  N   UNL     1       6.312 -16.215 -15.943  0.00  0.00    -0.372 N 
ATOM      4  C   UNL     1       6.313 -14.878 -15.954  0.00  0.00    +0.166 C 
ATOM      5  H   UNL     1       6.387 -13.144 -14.904  0.00  0.00    +0.163 HD
ATOM      6  H   UNL     1       6.227 -14.776 -18.006  0.00  0.00    +0.159 HD
ATOM      7  H   UNL     1       6.248 -13.247 -17.212  0.00  0.00    +0.159 HD
ATOM      8  H   UNL     1       6.352 -16.743 -15.082  0.00  0.00    +0.159 HD
ATOM      9  H   UNL     1       6.285 -16.752 -16.801  0.00  0.00    +0.159 HD
ENDROOT
BRANCH   1  10
ATOM     10  C   UNL     1       6.358 -14.732 -13.484  0.00  0.00    +0.151 C 
BRANCH  10  11
ATOM     11  C   UNL     1       7.236 -13.901 -12.591  0.00  0.00    -0.028 A 
ATOM     12  C   UNL     1       6.851 -13.623 -11.272  0.00  0.00    +0.005 A 
ATOM     13  C   UNL     1       8.458 -13.392 -13.057  0.00  0.00    +0.005 A 
ATOM     14  C   UNL     1       7.680 -12.876 -10.432  0.00  0.00    +0.000 A 
ATOM     15  C   UNL     1       9.283 -12.645 -12.216  0.00  0.00    +0.000 A 
ATOM     16  C   UNL     1       8.895 -12.390 -10.903  0.00  0.00    +0.000 A 
ENDBRANCH  10  11
ENDBRANCH   1  10
TORSDOF 2
ENDMDL
