MODEL 1
REMARK VINA RESULT:    -5.075      0.000      0.000
REMARK INTER + INTRA:          -5.814
REMARK INTER:                  -5.668
REMARK INTRA:                  -0.146
REMARK UNBOUND:                -0.146
REMARK  Name = 1550473
REMARK  2 active torsions:
REMARK  status: ('A' for Active; 'I' for Inactive)
REMARK    1  A    between atoms: N_1  and  C_4
REMARK    2  A    between atoms: C_4  and  C_5
REMARK                            x       y       z     vdW  Elec       q    Type
REMARK                         _______ _______ _______ _____ _____    ______ ____
ROOT
ATOM      1  N   UNL     1      -6.063   0.345  -6.161  0.00  0.00    -0.354 N 
ATOM      2  N   UNL     1      -5.074  -1.408  -7.308  0.00  0.00    -0.372 N 
ATOM      3  N   UNL     1      -4.054   0.647  -7.330  0.00  0.00    -0.372 N 
ATOM      4  C   UNL     1      -5.068  -0.125  -6.926  0.00  0.00    +0.166 C 
ATOM      5  H   UNL     1      -6.818  -0.284  -5.914  0.00  0.00    +0.163 HD
ATOM      6  H   UNL     1      -4.335  -1.792  -7.882  0.00  0.00    +0.159 HD
ATOM      7  H   UNL     1      -5.807  -2.046  -7.021  0.00  0.00    +0.159 HD
ATOM      8  H   UNL     1      -3.994   1.626  -7.081  0.00  0.00    +0.159 HD
ATOM      9  H   UNL     1      -3.312   0.284  -7.914  0.00  0.00    +0.159 HD
ENDROOT
BRANCH   1  10
ATOM     10  C   UNL     1      -6.123   1.712  -5.647  0.00  0.00    +0.151 C 
BRANCH  10  11
ATOM     11  C   UNL     1      -7.412   2.347  -6.092  0.00  0.00    -0.028 A 
ATOM     12  C   UNL     1      -7.662   3.704  -5.837  0.00  0.00    +0.005 A 
ATOM     13  C   UNL     1      -8.385   1.599  -6.772  0.00  0.00    +0.005 A 
ATOM     14  C   UNL     1      -8.845   4.302  -6.276  0.00  0.00    +0.000 A 
ATOM     15  C   UNL     1      -9.566   2.200  -7.208  0.00  0.00    +0.000 A 
ATOM     16  C   UNL     1      -9.795   3.551  -6.962  0.00  0.00    +0.000 A 
ENDBRANCH  10  11
ENDBRANCH   1  10
TORSDOF 2
ENDMDL
MODEL 2
REMARK VINA RESULT:    -5.049     25.886     26.661
REMARK INTER + INTRA:          -5.786
REMARK INTER:                  -5.607
REMARK INTRA:                  -0.179
REMARK UNBOUND:                -0.146
REMARK  Name = 1550473
REMARK  2 active torsions:
REMARK  status: ('A' for Active; 'I' for Inactive)
REMARK    1  A    between atoms: N_1  and  C_4
REMARK    2  A    between atoms: C_4  and  C_5
REMARK                            x       y       z     vdW  Elec       q    Type
REMARK                         _______ _______ _______ _____ _____    ______ ____
ROOT
ATOM      1  N   UNL     1      -6.971   4.418  20.848  0.00  0.00    -0.354 N 
ATOM      2  N   UNL     1      -4.774   3.838  20.399  0.00  0.00    -0.372 N 
ATOM      3  N   UNL     1      -6.445   2.940  19.108  0.00  0.00    -0.372 N 
ATOM      4  C   UNL     1      -6.079   3.734  20.120  0.00  0.00    +0.166 C 
ATOM      5  H   UNL     1      -6.631   4.980  21.621  0.00  0.00    +0.163 HD
ATOM      6  H   UNL     1      -4.077   3.336  19.864  0.00  0.00    +0.159 HD
ATOM      7  H   UNL     1      -4.434   4.436  21.143  0.00  0.00    +0.159 HD
ATOM      8  H   UNL     1      -7.414   2.814  18.850  0.00  0.00    +0.159 HD
ATOM      9  H   UNL     1      -5.763   2.421  18.568  0.00  0.00    +0.159 HD
ENDROOT
BRANCH   1  10
ATOM     10  C   UNL     1      -8.410   4.417  20.592  0.00  0.00    +0.151 C 
BRANCH  10  11
ATOM     11  C   UNL     1      -8.795   5.719  19.946  0.00  0.00    -0.028 A 
ATOM     12  C   UNL     1      -8.974   6.873  20.722  0.00  0.00    +0.005 A 
ATOM     13  C   UNL     1      -8.977   5.807  18.557  0.00  0.00    +0.005 A 
ATOM     14  C   UNL     1      -9.303   8.090  20.119  0.00  0.00    +0.000 A 
ATOM     15  C   UNL     1      -9.306   7.023  17.959  0.00  0.00    +0.000 A 
ATOM     16  C   UNL     1      -9.466   8.165  18.740  0.00  0.00    +0.000 A 
ENDBRANCH  10  11
ENDBRANCH   1  10
TORSDOF 2
ENDMDL
MODEL 3
REMARK VINA RESULT:    -4.922     30.123     31.022
REMARK INTER + INTRA:          -5.644
REMARK INTER:                  -5.500
REMARK INTRA:                  -0.144
REMARK UNBOUND:                -0.146
REMARK  Name = 1550473
REMARK  2 active torsions:
REMARK  status: ('A' for Active; 'I' for Inactive)
REMARK    1  A    between atoms: N_1  and  C_4
REMARK    2  A    between atoms: C_4  and  C_5
REMARK                            x       y       z     vdW  Elec       q    Type
REMARK                         _______ _______ _______ _____ _____    ______ ____
ROOT
ATOM      1  N   UNL     1       1.992   8.080  21.669  0.00  0.00    -0.354 N 
ATOM      2  N   UNL     1       1.850   6.480  20.000  0.00  0.00    -0.372 N 
ATOM      3  N   UNL     1       1.195   5.924  22.128  0.00  0.00    -0.372 N 
ATOM      4  C   UNL     1       1.679   6.837  21.279  0.00  0.00    +0.166 C 
ATOM      5  H   UNL     1       2.384   8.715  20.984  0.00  0.00    +0.163 HD
ATOM      6  H   UNL     1       1.619   5.551  19.676  0.00  0.00    +0.159 HD
ATOM      7  H   UNL     1       2.198   7.132  19.307  0.00  0.00    +0.159 HD
ATOM      8  H   UNL     1       1.049   6.128  23.108  0.00  0.00    +0.159 HD
ATOM      9  H   UNL     1       0.970   4.985  21.825  0.00  0.00    +0.159 HD
ENDROOT
BRANCH   1  10
ATOM     10  C   UNL     1       1.794   8.585  23.027  0.00  0.00    +0.151 C 
BRANCH  10  11
ATOM     11  C   UNL     1       1.038   9.883  22.962  0.00  0.00    -0.028 A 
ATOM     12  C   UNL     1       0.702  10.570  24.138  0.00  0.00    +0.005 A 
ATOM     13  C   UNL     1       0.659  10.433  21.728  0.00  0.00    +0.005 A 
ATOM     14  C   UNL     1       0.026  11.791  24.077  0.00  0.00    +0.000 A 
ATOM     15  C   UNL     1      -0.017  11.652  21.672  0.00  0.00    +0.000 A 
ATOM     16  C   UNL     1      -0.331  12.332  22.846  0.00  0.00    +0.000 A 
ENDBRANCH  10  11
ENDBRANCH   1  10
TORSDOF 2
ENDMDL
MODEL 4
REMARK VINA RESULT:    -4.914     25.734     27.260
REMARK INTER + INTRA:          -5.635
REMARK INTER:                  -5.482
REMARK INTRA:                  -0.154
REMARK UNBOUND:                -0.146
REMARK  Name = 1550473
REMARK  2 active torsions:
REMARK  status: ('A' for Active; 'I' for Inactive)
REMARK    1  A    between atoms: N_1  and  C_4
REMARK    2  A    between atoms: C_4  and  C_5
REMARK                            x       y       z     vdW  Elec       q    Type
REMARK                         _______ _______ _______ _____ _____    ______ ____
ROOT
ATOM      1  N   UNL     1       9.045   5.773  13.840  0.00  0.00    -0.354 N 
ATOM      2  N   UNL     1       7.051   5.742  12.661  0.00  0.00    -0.372 N 
ATOM      3  N   UNL     1       8.545   7.439  12.270  0.00  0.00    -0.372 N 
ATOM      4  C   UNL     1       8.228   6.321  12.930  0.00  0.00    +0.166 C 
ATOM      5  H   UNL     1       8.733   4.941  14.328  0.00  0.00    +0.163 HD
ATOM      6  H   UNL     1       6.415   6.131  11.978  0.00  0.00    +0.159 HD
ATOM      7  H   UNL     1       6.762   4.886  13.117  0.00  0.00    +0.159 HD
ATOM      8  H   UNL     1       9.416   7.928  12.431  0.00  0.00    +0.159 HD
ATOM      9  H   UNL     1       7.917   7.850  11.591  0.00  0.00    +0.159 HD
ENDROOT
BRANCH   1  10
ATOM     10  C   UNL     1      10.371   6.293  14.167  0.00  0.00    +0.151 C 
BRANCH  10  11
ATOM     11  C   UNL     1      11.413   5.324  13.681  0.00  0.00    -0.028 A 
ATOM     12  C   UNL     1      11.328   3.963  14.009  0.00  0.00    +0.005 A 
ATOM     13  C   UNL     1      12.486   5.760  12.888  0.00  0.00    +0.005 A 
ATOM     14  C   UNL     1      12.279   3.058  13.533  0.00  0.00    +0.000 A 
ATOM     15  C   UNL     1      13.434   4.853  12.415  0.00  0.00    +0.000 A 
ATOM     16  C   UNL     1      13.329   3.502  12.736  0.00  0.00    +0.000 A 
ENDBRANCH  10  11
ENDBRANCH   1  10
TORSDOF 2
ENDMDL
MODEL 5
REMARK VINA RESULT:    -4.900      2.511      3.385
REMARK INTER + INTRA:          -5.620
REMARK INTER:                  -5.469
REMARK INTRA:                  -0.150
REMARK UNBOUND:                -0.146
REMARK  Name = 1550473
REMARK  2 active torsions:
REMARK  status: ('A' for Active; 'I' for Inactive)
REMARK    1  A    between atoms: N_1  and  C_4
REMARK    2  A    between atoms: C_4  and  C_5
REMARK                            x       y       z     vdW  Elec       q    Type
REMARK                         _______ _______ _______ _____ _____    ______ ____
ROOT
ATOM      1  N   UNL     1      -7.646   0.230  -7.896  0.00  0.00    -0.354 N 
ATOM      2  N   UNL     1      -9.727  -0.785  -7.899  0.00  0.00    -0.372 N 
ATOM      3  N   UNL     1      -9.396   1.069  -9.209  0.00  0.00    -0.372 N 
ATOM      4  C   UNL     1      -8.910   0.180  -8.336  0.00  0.00    +0.166 C 
ATOM      5  H   UNL     1      -7.347  -0.455  -7.212  0.00  0.00    +0.163 HD
ATOM      6  H   UNL     1     -10.685  -0.850  -8.215  0.00  0.00    +0.159 HD
ATOM      7  H   UNL     1      -9.413  -1.496  -7.250  0.00  0.00    +0.159 HD
ATOM      8  H   UNL     1      -8.833   1.826  -9.573  0.00  0.00    +0.159 HD
ATOM      9  H   UNL     1     -10.356   1.027  -9.529  0.00  0.00    +0.159 HD
ENDROOT
BRANCH   1  10
ATOM     10  C   UNL     1      -6.660   1.209  -8.352  0.00  0.00    +0.151 C 
BRANCH  10  11
ATOM     11  C   UNL     1      -6.701   2.407  -7.444  0.00  0.00    -0.028 A 
ATOM     12  C   UNL     1      -6.706   3.704  -7.977  0.00  0.00    +0.005 A 
ATOM     13  C   UNL     1      -6.741   2.251  -6.050  0.00  0.00    +0.005 A 
ATOM     14  C   UNL     1      -6.775   4.817  -7.135  0.00  0.00    +0.000 A 
ATOM     15  C   UNL     1      -6.809   3.365  -5.213  0.00  0.00    +0.000 A 
ATOM     16  C   UNL     1      -6.829   4.647  -5.756  0.00  0.00    +0.000 A 
ENDBRANCH  10  11
ENDBRANCH   1  10
TORSDOF 2
ENDMDL
MODEL 6
REMARK VINA RESULT:    -4.851      3.008      4.008
REMARK INTER + INTRA:          -5.564
REMARK INTER:                  -5.466
REMARK INTRA:                  -0.098
REMARK UNBOUND:                -0.146
REMARK  Name = 1550473
REMARK  2 active torsions:
REMARK  status: ('A' for Active; 'I' for Inactive)
REMARK    1  A    between atoms: N_1  and  C_4
REMARK    2  A    between atoms: C_4  and  C_5
REMARK                            x       y       z     vdW  Elec       q    Type
REMARK                         _______ _______ _______ _____ _____    ______ ____
ROOT
ATOM      1  N   UNL     1      -6.547   4.078  -7.799  0.00  0.00    -0.354 N 
ATOM      2  N   UNL     1      -4.394   4.930  -7.866  0.00  0.00    -0.372 N 
ATOM      3  N   UNL     1      -5.776   5.544  -6.141  0.00  0.00    -0.372 N 
ATOM      4  C   UNL     1      -5.588   4.846  -7.266  0.00  0.00    +0.166 C 
ATOM      5  H   UNL     1      -6.351   3.599  -8.670  0.00  0.00    +0.163 HD
ATOM      6  H   UNL     1      -3.650   5.499  -7.486  0.00  0.00    +0.159 HD
ATOM      7  H   UNL     1      -4.186   4.413  -8.712  0.00  0.00    +0.159 HD
ATOM      8  H   UNL     1      -6.656   5.528  -5.643  0.00  0.00    +0.159 HD
ATOM      9  H   UNL     1      -5.048   6.128  -5.751  0.00  0.00    +0.159 HD
ENDROOT
BRANCH   1  10
ATOM     10  C   UNL     1      -7.863   3.877  -7.195  0.00  0.00    +0.151 C 
BRANCH  10  11
ATOM     11  C   UNL     1      -8.401   2.540  -7.626  0.00  0.00    -0.028 A 
ATOM     12  C   UNL     1      -8.853   2.344  -8.939  0.00  0.00    +0.005 A 
ATOM     13  C   UNL     1      -8.457   1.464  -6.727  0.00  0.00    +0.005 A 
ATOM     14  C   UNL     1      -9.326   1.094  -9.348  0.00  0.00    +0.000 A 
ATOM     15  C   UNL     1      -8.930   0.218  -7.138  0.00  0.00    +0.000 A 
ATOM     16  C   UNL     1      -9.362   0.033  -8.449  0.00  0.00    +0.000 A 
ENDBRANCH  10  11
ENDBRANCH   1  10
TORSDOF 2
ENDMDL
MODEL 7
REMARK VINA RESULT:    -4.725     26.946     28.227
REMARK INTER + INTRA:          -5.423
REMARK INTER:                  -5.247
REMARK INTRA:                  -0.176
REMARK UNBOUND:                -0.146
REMARK  Name = 1550473
REMARK  2 active torsions:
REMARK  status: ('A' for Active; 'I' for Inactive)
REMARK    1  A    between atoms: N_1  and  C_4
REMARK    2  A    between atoms: C_4  and  C_5
REMARK                            x       y       z     vdW  Elec       q    Type
REMARK                         _______ _______ _______ _____ _____    ______ ____
ROOT
ATOM      1  N   UNL     1      10.648   6.466  14.527  0.00  0.00    -0.354 N 
ATOM      2  N   UNL     1      11.001   8.748  14.349  0.00  0.00    -0.372 N 
ATOM      3  N   UNL     1      10.326   7.581  12.491  0.00  0.00    -0.372 N 
ATOM      4  C   UNL     1      10.655   7.583  13.787  0.00  0.00    +0.166 C 
ATOM      5  H   UNL     1      10.937   6.529  15.496  0.00  0.00    +0.163 HD
ATOM      6  H   UNL     1      11.012   9.608  13.816  0.00  0.00    +0.159 HD
ATOM      7  H   UNL     1      11.245   8.816  15.329  0.00  0.00    +0.159 HD
ATOM      8  H   UNL     1      10.062   6.734  12.007  0.00  0.00    +0.159 HD
ATOM      9  H   UNL     1      10.343   8.430  11.939  0.00  0.00    +0.159 HD
ENDROOT
BRANCH   1  10
ATOM     10  C   UNL     1      10.236   5.156  14.026  0.00  0.00    +0.151 C 
BRANCH  10  11
ATOM     11  C   UNL     1      11.461   4.336  13.729  0.00  0.00    -0.028 A 
ATOM     12  C   UNL     1      11.655   3.781  12.456  0.00  0.00    +0.005 A 
ATOM     13  C   UNL     1      12.435   4.116  14.715  0.00  0.00    +0.005 A 
ATOM     14  C   UNL     1      12.808   3.044  12.171  0.00  0.00    +0.000 A 
ATOM     15  C   UNL     1      13.584   3.379  14.427  0.00  0.00    +0.000 A 
ATOM     16  C   UNL     1      13.771   2.846  13.154  0.00  0.00    +0.000 A 
ENDBRANCH  10  11
ENDBRANCH   1  10
TORSDOF 2
ENDMDL
MODEL 8
REMARK VINA RESULT:    -4.616      2.977      3.659
REMARK INTER + INTRA:          -5.302
REMARK INTER:                  -5.179
REMARK INTRA:                  -0.123
REMARK UNBOUND:                -0.146
REMARK  Name = 1550473
REMARK  2 active torsions:
REMARK  status: ('A' for Active; 'I' for Inactive)
REMARK    1  A    between atoms: N_1  and  C_4
REMARK    2  A    between atoms: C_4  and  C_5
REMARK                            x       y       z     vdW  Elec       q    Type
REMARK                         _______ _______ _______ _____ _____    ______ ____
ROOT
ATOM      1  N   UNL     1      -8.919   0.722  -9.156  0.00  0.00    -0.354 N 
ATOM      2  N   UNL     1     -10.043  -1.039 -10.156  0.00  0.00    -0.372 N 
ATOM      3  N   UNL     1      -7.823  -0.721 -10.642  0.00  0.00    -0.372 N 
ATOM      4  C   UNL     1      -8.919  -0.335  -9.979  0.00  0.00    +0.166 C 
ATOM      5  H   UNL     1      -9.790   0.981  -8.707  0.00  0.00    +0.163 HD
ATOM      6  H   UNL     1     -10.072  -1.843 -10.768  0.00  0.00    +0.159 HD
ATOM      7  H   UNL     1     -10.900  -0.805  -9.670  0.00  0.00    +0.159 HD
ATOM      8  H   UNL     1      -6.944  -0.228 -10.556  0.00  0.00    +0.159 HD
ATOM      9  H   UNL     1      -7.835  -1.516 -11.268  0.00  0.00    +0.159 HD
ENDROOT
BRANCH   1  10
ATOM     10  C   UNL     1      -7.735   1.523  -8.853  0.00  0.00    +0.151 C 
BRANCH  10  11
ATOM     11  C   UNL     1      -8.148   2.726  -8.050  0.00  0.00    -0.028 A 
ATOM     12  C   UNL     1      -9.493   3.121  -8.000  0.00  0.00    +0.005 A 
ATOM     13  C   UNL     1      -7.200   3.471  -7.331  0.00  0.00    +0.005 A 
ATOM     14  C   UNL     1      -9.881   4.221  -7.231  0.00  0.00    +0.000 A 
ATOM     15  C   UNL     1      -7.592   4.568  -6.565  0.00  0.00    +0.000 A 
ATOM     16  C   UNL     1      -8.933   4.941  -6.513  0.00  0.00    +0.000 A 
ENDBRANCH  10  11
ENDBRANCH   1  10
TORSDOF 2
ENDMDL
MODEL 9
REMARK VINA RESULT:    -4.492     30.395     31.230
REMARK INTER + INTRA:          -5.163
REMARK INTER:                  -5.027
REMARK INTRA:                  -0.137
REMARK UNBOUND:                -0.146
REMARK  Name = 1550473
REMARK  2 active torsions:
REMARK  status: ('A' for Active; 'I' for Inactive)
REMARK    1  A    between atoms: N_1  and  C_4
REMARK    2  A    between atoms: C_4  and  C_5
REMARK                            x       y       z     vdW  Elec       q    Type
REMARK                         _______ _______ _______ _____ _____    ______ ____
ROOT
ATOM      1  N   UNL     1       4.155  10.624  20.410  0.00  0.00    -0.354 N 
ATOM      2  N   UNL     1       4.971   8.571  19.715  0.00  0.00    -0.372 N 
ATOM      3  N   UNL     1       6.067   9.690  21.391  0.00  0.00    -0.372 N 
ATOM      4  C   UNL     1       5.061   9.642  20.512  0.00  0.00    +0.166 C 
ATOM      5  H   UNL     1       3.433  10.541  19.703  0.00  0.00    +0.163 HD
ATOM      6  H   UNL     1       5.638   7.813  19.771  0.00  0.00    +0.159 HD
ATOM      7  H   UNL     1       4.222   8.470  19.040  0.00  0.00    +0.159 HD
ATOM      8  H   UNL     1       6.195  10.474  22.017  0.00  0.00    +0.159 HD
ATOM      9  H   UNL     1       6.752   8.947  21.454  0.00  0.00    +0.159 HD
ENDROOT
BRANCH   1  10
ATOM     10  C   UNL     1       4.132  11.808  21.267  0.00  0.00    +0.151 C 
BRANCH  10  11
ATOM     11  C   UNL     1       2.705  12.144  21.602  0.00  0.00    -0.028 A 
ATOM     12  C   UNL     1       2.389  13.352  22.241  0.00  0.00    +0.005 A 
ATOM     13  C   UNL     1       1.663  11.262  21.277  0.00  0.00    +0.005 A 
ATOM     14  C   UNL     1       1.061  13.679  22.525  0.00  0.00    +0.000 A 
ATOM     15  C   UNL     1       0.338  11.592  21.563  0.00  0.00    +0.000 A 
ATOM     16  C   UNL     1       0.037  12.801  22.185  0.00  0.00    +0.000 A 
ENDBRANCH  10  11
ENDBRANCH   1  10
TORSDOF 2
ENDMDL
