MODEL 1
REMARK VINA RESULT:    -6.676      0.000      0.000
REMARK INTER + INTRA:          -7.596
REMARK INTER:                  -7.456
REMARK INTRA:                  -0.140
REMARK UNBOUND:                -0.140
REMARK  Name = 1550473
REMARK  2 active torsions:
REMARK  status: ('A' for Active; 'I' for Inactive)
REMARK    1  A    between atoms: N_1  and  C_4
REMARK    2  A    between atoms: C_4  and  C_5
REMARK                            x       y       z     vdW  Elec       q    Type
REMARK                         _______ _______ _______ _____ _____    ______ ____
ROOT
ATOM      1  N   UNL     1       1.732   8.732   9.845  0.00  0.00    -0.354 N 
ATOM      2  N   UNL     1       0.417   7.357   8.524  0.00  0.00    -0.372 N 
ATOM      3  N   UNL     1      -0.547   8.437  10.304  0.00  0.00    -0.372 N 
ATOM      4  C   UNL     1       0.541   8.185   9.569  0.00  0.00    +0.166 C 
ATOM      5  H   UNL     1       2.525   8.477   9.267  0.00  0.00    +0.163 HD
ATOM      6  H   UNL     1      -0.470   6.933   8.289  0.00  0.00    +0.159 HD
ATOM      7  H   UNL     1       1.201   7.140   7.921  0.00  0.00    +0.159 HD
ATOM      8  H   UNL     1      -0.519   9.049  11.109  0.00  0.00    +0.159 HD
ATOM      9  H   UNL     1      -1.441   8.013  10.092  0.00  0.00    +0.159 HD
ENDROOT
BRANCH   1  10
ATOM     10  C   UNL     1       1.962   9.687  10.927  0.00  0.00    +0.151 C 
BRANCH  10  11
ATOM     11  C   UNL     1       2.771  10.841  10.401  0.00  0.00    -0.028 A 
ATOM     12  C   UNL     1       3.338  10.786   9.119  0.00  0.00    +0.005 A 
ATOM     13  C   UNL     1       2.968  11.993  11.176  0.00  0.00    +0.005 A 
ATOM     14  C   UNL     1       4.064  11.869   8.618  0.00  0.00    +0.000 A 
ATOM     15  C   UNL     1       3.695  13.072  10.672  0.00  0.00    +0.000 A 
ATOM     16  C   UNL     1       4.241  13.011   9.392  0.00  0.00    +0.000 A 
ENDBRANCH  10  11
ENDBRANCH   1  10
TORSDOF 2
ENDMDL
MODEL 2
REMARK VINA RESULT:    -6.577      1.447      2.479
REMARK INTER + INTRA:          -7.486
REMARK INTER:                  -7.356
REMARK INTRA:                  -0.130
REMARK UNBOUND:                -0.140
REMARK  Name = 1550473
REMARK  2 active torsions:
REMARK  status: ('A' for Active; 'I' for Inactive)
REMARK    1  A    between atoms: N_1  and  C_4
REMARK    2  A    between atoms: C_4  and  C_5
REMARK                            x       y       z     vdW  Elec       q    Type
REMARK                         _______ _______ _______ _____ _____    ______ ____
ROOT
ATOM      1  N   UNL     1       1.619   8.299   8.306  0.00  0.00    -0.354 N 
ATOM      2  N   UNL     1      -0.091   6.823   7.793  0.00  0.00    -0.372 N 
ATOM      3  N   UNL     1       0.936   7.967   6.089  0.00  0.00    -0.372 N 
ATOM      4  C   UNL     1       0.833   7.707   7.397  0.00  0.00    +0.166 C 
ATOM      5  H   UNL     1       1.471   8.081   9.285  0.00  0.00    +0.163 HD
ATOM      6  H   UNL     1      -0.696   6.358   7.129  0.00  0.00    +0.159 HD
ATOM      7  H   UNL     1      -0.206   6.573   8.768  0.00  0.00    +0.159 HD
ATOM      8  H   UNL     1       1.609   8.628   5.726  0.00  0.00    +0.159 HD
ATOM      9  H   UNL     1       0.332   7.520   5.411  0.00  0.00    +0.159 HD
ENDROOT
BRANCH   1  10
ATOM     10  C   UNL     1       2.691   9.235   7.974  0.00  0.00    +0.151 C 
BRANCH  10  11
ATOM     11  C   UNL     1       2.851  10.219   9.101  0.00  0.00    -0.028 A 
ATOM     12  C   UNL     1       2.196  10.013  10.324  0.00  0.00    +0.005 A 
ATOM     13  C   UNL     1       3.660  11.356   8.953  0.00  0.00    +0.005 A 
ATOM     14  C   UNL     1       2.367  10.910  11.380  0.00  0.00    +0.000 A 
ATOM     15  C   UNL     1       3.828  12.250  10.010  0.00  0.00    +0.000 A 
ATOM     16  C   UNL     1       3.183  12.025  11.225  0.00  0.00    +0.000 A 
ENDBRANCH  10  11
ENDBRANCH   1  10
TORSDOF 2
ENDMDL
MODEL 3
REMARK VINA RESULT:    -6.278      3.244      4.934
REMARK INTER + INTRA:          -7.152
REMARK INTER:                  -7.021
REMARK INTRA:                  -0.131
REMARK UNBOUND:                -0.140
REMARK  Name = 1550473
REMARK  2 active torsions:
REMARK  status: ('A' for Active; 'I' for Inactive)
REMARK    1  A    between atoms: N_1  and  C_4
REMARK    2  A    between atoms: C_4  and  C_5
REMARK                            x       y       z     vdW  Elec       q    Type
REMARK                         _______ _______ _______ _____ _____    ______ ____
ROOT
ATOM      1  N   UNL     1       4.712  11.750   7.706  0.00  0.00    -0.354 N 
ATOM      2  N   UNL     1       6.362  10.744   6.430  0.00  0.00    -0.372 N 
ATOM      3  N   UNL     1       6.870  11.428   8.561  0.00  0.00    -0.372 N 
ATOM      4  C   UNL     1       5.972  11.314   7.576  0.00  0.00    +0.166 C 
ATOM      5  H   UNL     1       4.088  11.662   6.912  0.00  0.00    +0.163 HD
ATOM      6  H   UNL     1       7.305  10.402   6.304  0.00  0.00    +0.159 HD
ATOM      7  H   UNL     1       5.724  10.616   5.654  0.00  0.00    +0.159 HD
ATOM      8  H   UNL     1       6.640  11.854   9.448  0.00  0.00    +0.159 HD
ATOM      9  H   UNL     1       7.822  11.103   8.449  0.00  0.00    +0.159 HD
ENDROOT
BRANCH   1  10
ATOM     10  C   UNL     1       4.172  12.337   8.931  0.00  0.00    +0.151 C 
BRANCH  10  11
ATOM     11  C   UNL     1       3.351  11.303   9.651  0.00  0.00    -0.028 A 
ATOM     12  C   UNL     1       3.061  11.448  11.016  0.00  0.00    +0.005 A 
ATOM     13  C   UNL     1       2.856  10.179   8.973  0.00  0.00    +0.005 A 
ATOM     14  C   UNL     1       2.274  10.503  11.678  0.00  0.00    +0.000 A 
ATOM     15  C   UNL     1       2.070   9.237   9.638  0.00  0.00    +0.000 A 
ATOM     16  C   UNL     1       1.778   9.401  10.990  0.00  0.00    +0.000 A 
ENDBRANCH  10  11
ENDBRANCH   1  10
TORSDOF 2
ENDMDL
MODEL 4
REMARK VINA RESULT:    -6.222      3.585      5.307
REMARK INTER + INTRA:          -7.089
REMARK INTER:                  -6.994
REMARK INTRA:                  -0.095
REMARK UNBOUND:                -0.140
REMARK  Name = 1550473
REMARK  2 active torsions:
REMARK  status: ('A' for Active; 'I' for Inactive)
REMARK    1  A    between atoms: N_1  and  C_4
REMARK    2  A    between atoms: C_4  and  C_5
REMARK                            x       y       z     vdW  Elec       q    Type
REMARK                         _______ _______ _______ _____ _____    ______ ____
ROOT
ATOM      1  N   UNL     1       5.787  11.980   9.769  0.00  0.00    -0.354 N 
ATOM      2  N   UNL     1       8.088  12.022   9.512  0.00  0.00    -0.372 N 
ATOM      3  N   UNL     1       6.789  13.258   8.080  0.00  0.00    -0.372 N 
ATOM      4  C   UNL     1       6.872  12.421   9.119  0.00  0.00    +0.166 C 
ATOM      5  H   UNL     1       5.915  11.323  10.530  0.00  0.00    +0.163 HD
ATOM      6  H   UNL     1       8.926  12.342   9.044  0.00  0.00    +0.159 HD
ATOM      7  H   UNL     1       8.216  11.402  10.302  0.00  0.00    +0.159 HD
ATOM      8  H   UNL     1       5.901  13.592   7.730  0.00  0.00    +0.159 HD
ATOM      9  H   UNL     1       7.616  13.579   7.591  0.00  0.00    +0.159 HD
ENDROOT
BRANCH   1  10
ATOM     10  C   UNL     1       4.421  12.395   9.455  0.00  0.00    +0.151 C 
BRANCH  10  11
ATOM     11  C   UNL     1       3.461  11.357   9.968  0.00  0.00    -0.028 A 
ATOM     12  C   UNL     1       2.977  10.353   9.117  0.00  0.00    +0.005 A 
ATOM     13  C   UNL     1       3.037  11.369  11.305  0.00  0.00    +0.005 A 
ATOM     14  C   UNL     1       2.110   9.371   9.601  0.00  0.00    +0.000 A 
ATOM     15  C   UNL     1       2.170  10.387  11.784  0.00  0.00    +0.000 A 
ATOM     16  C   UNL     1       1.708   9.387  10.932  0.00  0.00    +0.000 A 
ENDBRANCH  10  11
ENDBRANCH   1  10
TORSDOF 2
ENDMDL
MODEL 5
REMARK VINA RESULT:    -6.134      2.897      4.096
REMARK INTER + INTRA:          -6.991
REMARK INTER:                  -6.863
REMARK INTRA:                  -0.128
REMARK UNBOUND:                -0.140
REMARK  Name = 1550473
REMARK  2 active torsions:
REMARK  status: ('A' for Active; 'I' for Inactive)
REMARK    1  A    between atoms: N_1  and  C_4
REMARK    2  A    between atoms: C_4  and  C_5
REMARK                            x       y       z     vdW  Elec       q    Type
REMARK                         _______ _______ _______ _____ _____    ______ ____
ROOT
ATOM      1  N   UNL     1       3.928   9.540   7.156  0.00  0.00    -0.354 N 
ATOM      2  N   UNL     1       4.614   7.848   5.732  0.00  0.00    -0.372 N 
ATOM      3  N   UNL     1       5.906   9.736   5.914  0.00  0.00    -0.372 N 
ATOM      4  C   UNL     1       4.814   9.054   6.276  0.00  0.00    +0.166 C 
ATOM      5  H   UNL     1       3.105   8.988   7.366  0.00  0.00    +0.163 HD
ATOM      6  H   UNL     1       5.267   7.454   5.067  0.00  0.00    +0.159 HD
ATOM      7  H   UNL     1       3.814   7.278   5.978  0.00  0.00    +0.159 HD
ATOM      8  H   UNL     1       6.111  10.654   6.284  0.00  0.00    +0.159 HD
ATOM      9  H   UNL     1       6.564   9.363   5.242  0.00  0.00    +0.159 HD
ENDROOT
BRANCH   1  10
ATOM     10  C   UNL     1       4.080  10.820   7.847  0.00  0.00    +0.151 C 
BRANCH  10  11
ATOM     11  C   UNL     1       3.377  10.748   9.174  0.00  0.00    -0.028 A 
ATOM     12  C   UNL     1       2.515   9.681   9.467  0.00  0.00    +0.005 A 
ATOM     13  C   UNL     1       3.572  11.742  10.146  0.00  0.00    +0.005 A 
ATOM     14  C   UNL     1       1.886   9.598  10.711  0.00  0.00    +0.000 A 
ATOM     15  C   UNL     1       2.941  11.656  11.386  0.00  0.00    +0.000 A 
ATOM     16  C   UNL     1       2.100  10.582  11.669  0.00  0.00    +0.000 A 
ENDBRANCH  10  11
ENDBRANCH   1  10
TORSDOF 2
ENDMDL
MODEL 6
REMARK VINA RESULT:    -6.025      3.760      5.326
REMARK INTER + INTRA:          -6.869
REMARK INTER:                  -6.691
REMARK INTRA:                  -0.178
REMARK UNBOUND:                -0.140
REMARK  Name = 1550473
REMARK  2 active torsions:
REMARK  status: ('A' for Active; 'I' for Inactive)
REMARK    1  A    between atoms: N_1  and  C_4
REMARK    2  A    between atoms: C_4  and  C_5
REMARK                            x       y       z     vdW  Elec       q    Type
REMARK                         _______ _______ _______ _____ _____    ______ ____
ROOT
ATOM      1  N   UNL     1       2.743   7.363   5.051  0.00  0.00    -0.354 N 
ATOM      2  N   UNL     1       4.264   5.672   4.612  0.00  0.00    -0.372 N 
ATOM      3  N   UNL     1       5.048   7.724   5.273  0.00  0.00    -0.372 N 
ATOM      4  C   UNL     1       4.010   6.933   4.982  0.00  0.00    +0.166 C 
ATOM      5  H   UNL     1       2.003   6.722   4.788  0.00  0.00    +0.163 HD
ATOM      6  H   UNL     1       5.209   5.318   4.555  0.00  0.00    +0.159 HD
ATOM      7  H   UNL     1       3.520   5.020   4.394  0.00  0.00    +0.159 HD
ATOM      8  H   UNL     1       4.924   8.688   5.553  0.00  0.00    +0.159 HD
ATOM      9  H   UNL     1       6.002   7.392   5.210  0.00  0.00    +0.159 HD
ENDROOT
BRANCH   1  10
ATOM     10  C   UNL     1       2.356   8.701   5.494  0.00  0.00    +0.151 C 
BRANCH  10  11
ATOM     11  C   UNL     1       2.052   8.662   6.966  0.00  0.00    -0.028 A 
ATOM     12  C   UNL     1       2.819   9.408   7.872  0.00  0.00    +0.005 A 
ATOM     13  C   UNL     1       0.993   7.884   7.460  0.00  0.00    +0.005 A 
ATOM     14  C   UNL     1       2.517   9.396   9.236  0.00  0.00    +0.000 A 
ATOM     15  C   UNL     1       0.696   7.874   8.823  0.00  0.00    +0.000 A 
ATOM     16  C   UNL     1       1.456   8.632   9.710  0.00  0.00    +0.000 A 
ENDBRANCH  10  11
ENDBRANCH   1  10
TORSDOF 2
ENDMDL
MODEL 7
REMARK VINA RESULT:    -5.948      2.525      4.650
REMARK INTER + INTRA:          -6.783
REMARK INTER:                  -6.654
REMARK INTRA:                  -0.128
REMARK UNBOUND:                -0.140
REMARK  Name = 1550473
REMARK  2 active torsions:
REMARK  status: ('A' for Active; 'I' for Inactive)
REMARK    1  A    between atoms: N_1  and  C_4
REMARK    2  A    between atoms: C_4  and  C_5
REMARK                            x       y       z     vdW  Elec       q    Type
REMARK                         _______ _______ _______ _____ _____    ______ ____
ROOT
ATOM      1  N   UNL     1       2.860  10.399  10.500  0.00  0.00    -0.354 N 
ATOM      2  N   UNL     1       3.466  12.492  11.285  0.00  0.00    -0.372 N 
ATOM      3  N   UNL     1       1.766  11.363  12.334  0.00  0.00    -0.372 N 
ATOM      4  C   UNL     1       2.691  11.404  11.370  0.00  0.00    +0.166 C 
ATOM      5  H   UNL     1       3.559  10.504   9.773  0.00  0.00    +0.163 HD
ATOM      6  H   UNL     1       3.364  13.264  11.930  0.00  0.00    +0.159 HD
ATOM      7  H   UNL     1       4.194  12.575  10.587  0.00  0.00    +0.159 HD
ATOM      8  H   UNL     1       1.145  10.573  12.448  0.00  0.00    +0.159 HD
ATOM      9  H   UNL     1       1.641  12.131  12.982  0.00  0.00    +0.159 HD
ENDROOT
BRANCH   1  10
ATOM     10  C   UNL     1       2.105   9.148  10.539  0.00  0.00    +0.151 C 
BRANCH  10  11
ATOM     11  C   UNL     1       1.808   8.710   9.131  0.00  0.00    -0.028 A 
ATOM     12  C   UNL     1       0.714   7.874   8.862  0.00  0.00    +0.005 A 
ATOM     13  C   UNL     1       2.612   9.132   8.062  0.00  0.00    +0.005 A 
ATOM     14  C   UNL     1       0.420   7.491   7.551  0.00  0.00    +0.000 A 
ATOM     15  C   UNL     1       2.316   8.747   6.754  0.00  0.00    +0.000 A 
ATOM     16  C   UNL     1       1.218   7.928   6.499  0.00  0.00    +0.000 A 
ENDBRANCH  10  11
ENDBRANCH   1  10
TORSDOF 2
ENDMDL
MODEL 8
REMARK VINA RESULT:    -5.621      4.256      5.918
REMARK INTER + INTRA:          -6.418
REMARK INTER:                  -6.235
REMARK INTRA:                  -0.183
REMARK UNBOUND:                -0.140
REMARK  Name = 1550473
REMARK  2 active torsions:
REMARK  status: ('A' for Active; 'I' for Inactive)
REMARK    1  A    between atoms: N_1  and  C_4
REMARK    2  A    between atoms: C_4  and  C_5
REMARK                            x       y       z     vdW  Elec       q    Type
REMARK                         _______ _______ _______ _____ _____    ______ ____
ROOT
ATOM      1  N   UNL     1       6.734  12.720   8.620  0.00  0.00    -0.354 N 
ATOM      2  N   UNL     1       8.814  12.433   9.597  0.00  0.00    -0.372 N 
ATOM      3  N   UNL     1       7.330  13.895  10.558  0.00  0.00    -0.372 N 
ATOM      4  C   UNL     1       7.611  13.020   9.587  0.00  0.00    +0.166 C 
ATOM      5  H   UNL     1       7.019  12.071   7.896  0.00  0.00    +0.163 HD
ATOM      6  H   UNL     1       9.496  12.638  10.315  0.00  0.00    +0.159 HD
ATOM      7  H   UNL     1       9.080  11.751   8.897  0.00  0.00    +0.159 HD
ATOM      8  H   UNL     1       6.442  14.377  10.604  0.00  0.00    +0.159 HD
ATOM      9  H   UNL     1       8.003  14.122  11.279  0.00  0.00    +0.159 HD
ENDROOT
BRANCH   1  10
ATOM     10  C   UNL     1       5.378  13.262   8.549  0.00  0.00    +0.151 C 
BRANCH  10  11
ATOM     11  C   UNL     1       4.408  12.228   9.050  0.00  0.00    -0.028 A 
ATOM     12  C   UNL     1       3.869  12.324  10.341  0.00  0.00    +0.005 A 
ATOM     13  C   UNL     1       4.020  11.152   8.237  0.00  0.00    +0.005 A 
ATOM     14  C   UNL     1       2.945  11.380  10.796  0.00  0.00    +0.000 A 
ATOM     15  C   UNL     1       3.098  10.211   8.695  0.00  0.00    +0.000 A 
ATOM     16  C   UNL     1       2.559  10.327   9.974  0.00  0.00    +0.000 A 
ENDBRANCH  10  11
ENDBRANCH   1  10
TORSDOF 2
ENDMDL
MODEL 9
REMARK VINA RESULT:    -5.488      1.650      2.882
REMARK INTER + INTRA:          -6.269
REMARK INTER:                  -6.158
REMARK INTRA:                  -0.112
REMARK UNBOUND:                -0.140
REMARK  Name = 1550473
REMARK  2 active torsions:
REMARK  status: ('A' for Active; 'I' for Inactive)
REMARK    1  A    between atoms: N_1  and  C_4
REMARK    2  A    between atoms: C_4  and  C_5
REMARK                            x       y       z     vdW  Elec       q    Type
REMARK                         _______ _______ _______ _____ _____    ______ ____
ROOT
ATOM      1  N   UNL     1       2.514  10.580  10.395  0.00  0.00    -0.354 N 
ATOM      2  N   UNL     1       0.852   9.053  10.918  0.00  0.00    -0.372 N 
ATOM      3  N   UNL     1       1.806  10.276  12.609  0.00  0.00    -0.372 N 
ATOM      4  C   UNL     1       1.736   9.981  11.307  0.00  0.00    +0.166 C 
ATOM      5  H   UNL     1       2.433  10.290   9.428  0.00  0.00    +0.163 HD
ATOM      6  H   UNL     1       0.250   8.587  11.582  0.00  0.00    +0.159 HD
ATOM      7  H   UNL     1       0.741   8.798   9.944  0.00  0.00    +0.159 HD
ATOM      8  H   UNL     1       2.456  10.963  12.968  0.00  0.00    +0.159 HD
ATOM      9  H   UNL     1       1.220   9.812  13.291  0.00  0.00    +0.159 HD
ENDROOT
BRANCH   1  10
ATOM     10  C   UNL     1       3.470  11.641  10.707  0.00  0.00    +0.151 C 
BRANCH  10  11
ATOM     11  C   UNL     1       3.939  12.272   9.425  0.00  0.00    -0.028 A 
ATOM     12  C   UNL     1       4.200  13.649   9.364  0.00  0.00    +0.005 A 
ATOM     13  C   UNL     1       4.129  11.498   8.270  0.00  0.00    +0.005 A 
ATOM     14  C   UNL     1       4.665  14.230   8.181  0.00  0.00    +0.000 A 
ATOM     15  C   UNL     1       4.592  12.082   7.092  0.00  0.00    +0.000 A 
ATOM     16  C   UNL     1       4.862  13.448   7.048  0.00  0.00    +0.000 A 
ENDBRANCH  10  11
ENDBRANCH   1  10
TORSDOF 2
ENDMDL
