MODEL 1
REMARK VINA RESULT:    -6.776      0.000      0.000
REMARK INTER + INTRA:          -7.702
REMARK INTER:                  -7.568
REMARK INTRA:                  -0.134
REMARK UNBOUND:                -0.134
REMARK  Name = 1550473
REMARK  2 active torsions:
REMARK  status: ('A' for Active; 'I' for Inactive)
REMARK    1  A    between atoms: N_1  and  C_4
REMARK    2  A    between atoms: C_4  and  C_5
REMARK                            x       y       z     vdW  Elec       q    Type
REMARK                         _______ _______ _______ _____ _____    ______ ____
ROOT
ATOM      1  N   UNL     1       6.850   0.493   9.399  0.00  0.00    -0.354 N 
ATOM      2  N   UNL     1       6.693  -1.207  10.964  0.00  0.00    -0.372 N 
ATOM      3  N   UNL     1       5.112   0.456  10.970  0.00  0.00    -0.372 N 
ATOM      4  C   UNL     1       6.217  -0.073  10.435  0.00  0.00    +0.166 C 
ATOM      5  H   UNL     1       7.701   0.059   9.059  0.00  0.00    +0.163 HD
ATOM      6  H   UNL     1       6.235  -1.659  11.744  0.00  0.00    +0.159 HD
ATOM      7  H   UNL     1       7.518  -1.663  10.593  0.00  0.00    +0.159 HD
ATOM      8  H   UNL     1       4.705   1.313  10.620  0.00  0.00    +0.159 HD
ATOM      9  H   UNL     1       4.645   0.024  11.758  0.00  0.00    +0.159 HD
ENDROOT
BRANCH   1  10
ATOM     10  C   UNL     1       6.384   1.698   8.715  0.00  0.00    +0.151 C 
BRANCH  10  11
ATOM     11  C   UNL     1       7.567   2.569   8.394  0.00  0.00    -0.028 A 
ATOM     12  C   UNL     1       8.871   2.060   8.481  0.00  0.00    +0.005 A 
ATOM     13  C   UNL     1       7.390   3.903   7.995  0.00  0.00    +0.005 A 
ATOM     14  C   UNL     1       9.968   2.860   8.153  0.00  0.00    +0.000 A 
ATOM     15  C   UNL     1       8.488   4.699   7.670  0.00  0.00    +0.000 A 
ATOM     16  C   UNL     1       9.777   4.176   7.746  0.00  0.00    +0.000 A 
ENDBRANCH  10  11
ENDBRANCH   1  10
TORSDOF 2
ENDMDL
MODEL 2
REMARK VINA RESULT:    -6.547      2.906      3.897
REMARK INTER + INTRA:          -7.447
REMARK INTER:                  -7.310
REMARK INTRA:                  -0.137
REMARK UNBOUND:                -0.134
REMARK  Name = 1550473
REMARK  2 active torsions:
REMARK  status: ('A' for Active; 'I' for Inactive)
REMARK    1  A    between atoms: N_1  and  C_4
REMARK    2  A    between atoms: C_4  and  C_5
REMARK                            x       y       z     vdW  Elec       q    Type
REMARK                         _______ _______ _______ _____ _____    ______ ____
ROOT
ATOM      1  N   UNL     1       4.998   3.555   7.699  0.00  0.00    -0.354 N 
ATOM      2  N   UNL     1       3.830   5.517   7.311  0.00  0.00    -0.372 N 
ATOM      3  N   UNL     1       3.616   4.483   9.348  0.00  0.00    -0.372 N 
ATOM      4  C   UNL     1       4.155   4.505   8.124  0.00  0.00    +0.166 C 
ATOM      5  H   UNL     1       5.349   3.613   6.749  0.00  0.00    +0.163 HD
ATOM      6  H   UNL     1       3.199   6.250   7.605  0.00  0.00    +0.159 HD
ATOM      7  H   UNL     1       4.218   5.597   6.379  0.00  0.00    +0.159 HD
ATOM      8  H   UNL     1       3.816   3.743  10.008  0.00  0.00    +0.159 HD
ATOM      9  H   UNL     1       2.973   5.201   9.657  0.00  0.00    +0.159 HD
ENDROOT
BRANCH   1  10
ATOM     10  C   UNL     1       5.458   2.440   8.524  0.00  0.00    +0.151 C 
BRANCH  10  11
ATOM     11  C   UNL     1       6.958   2.363   8.455  0.00  0.00    -0.028 A 
ATOM     12  C   UNL     1       7.708   3.463   8.013  0.00  0.00    +0.005 A 
ATOM     13  C   UNL     1       7.636   1.195   8.834  0.00  0.00    +0.005 A 
ATOM     14  C   UNL     1       9.103   3.402   7.977  0.00  0.00    +0.000 A 
ATOM     15  C   UNL     1       9.030   1.138   8.796  0.00  0.00    +0.000 A 
ATOM     16  C   UNL     1       9.763   2.242   8.369  0.00  0.00    +0.000 A 
ENDBRANCH  10  11
ENDBRANCH   1  10
TORSDOF 2
ENDMDL
MODEL 3
REMARK VINA RESULT:    -6.490      2.566      3.310
REMARK INTER + INTRA:          -7.383
REMARK INTER:                  -7.216
REMARK INTRA:                  -0.167
REMARK UNBOUND:                -0.134
REMARK  Name = 1550473
REMARK  2 active torsions:
REMARK  status: ('A' for Active; 'I' for Inactive)
REMARK    1  A    between atoms: N_1  and  C_4
REMARK    2  A    between atoms: C_4  and  C_5
REMARK                            x       y       z     vdW  Elec       q    Type
REMARK                         _______ _______ _______ _____ _____    ______ ____
ROOT
ATOM      1  N   UNL     1       5.143   2.972   9.185  0.00  0.00    -0.354 N 
ATOM      2  N   UNL     1       3.933   4.793   9.948  0.00  0.00    -0.372 N 
ATOM      3  N   UNL     1       4.310   4.578   7.695  0.00  0.00    -0.372 N 
ATOM      4  C   UNL     1       4.470   4.103   8.935  0.00  0.00    +0.166 C 
ATOM      5  H   UNL     1       5.255   2.681  10.149  0.00  0.00    +0.163 HD
ATOM      6  H   UNL     1       3.416   5.648   9.790  0.00  0.00    +0.159 HD
ATOM      7  H   UNL     1       4.006   4.475  10.907  0.00  0.00    +0.159 HD
ATOM      8  H   UNL     1       4.696   4.108   6.888  0.00  0.00    +0.159 HD
ATOM      9  H   UNL     1       3.807   5.438   7.518  0.00  0.00    +0.159 HD
ENDROOT
BRANCH   1  10
ATOM     10  C   UNL     1       5.721   2.118   8.148  0.00  0.00    +0.151 C 
BRANCH  10  11
ATOM     11  C   UNL     1       7.219   2.147   8.267  0.00  0.00    -0.028 A 
ATOM     12  C   UNL     1       7.910   1.061   8.825  0.00  0.00    +0.005 A 
ATOM     13  C   UNL     1       7.955   3.254   7.818  0.00  0.00    +0.005 A 
ATOM     14  C   UNL     1       9.305   1.075   8.909  0.00  0.00    +0.000 A 
ATOM     15  C   UNL     1       9.347   3.264   7.903  0.00  0.00    +0.000 A 
ATOM     16  C   UNL     1      10.022   2.173   8.446  0.00  0.00    +0.000 A 
ENDBRANCH  10  11
ENDBRANCH   1  10
TORSDOF 2
ENDMDL
MODEL 4
REMARK VINA RESULT:    -5.892      4.644      6.490
REMARK INTER + INTRA:          -6.716
REMARK INTER:                  -6.582
REMARK INTRA:                  -0.134
REMARK UNBOUND:                -0.134
REMARK  Name = 1550473
REMARK  2 active torsions:
REMARK  status: ('A' for Active; 'I' for Inactive)
REMARK    1  A    between atoms: N_1  and  C_4
REMARK    2  A    between atoms: C_4  and  C_5
REMARK                            x       y       z     vdW  Elec       q    Type
REMARK                         _______ _______ _______ _____ _____    ______ ____
ROOT
ATOM      1  N   UNL     1       8.988   6.910   6.881  0.00  0.00    -0.354 N 
ATOM      2  N   UNL     1       8.061   8.615   5.618  0.00  0.00    -0.372 N 
ATOM      3  N   UNL     1      10.189   7.908   5.134  0.00  0.00    -0.372 N 
ATOM      4  C   UNL     1       9.088   7.800   5.885  0.00  0.00    +0.166 C 
ATOM      5  H   UNL     1       8.137   6.898   7.433  0.00  0.00    +0.163 HD
ATOM      6  H   UNL     1       8.106   9.294   4.870  0.00  0.00    +0.159 HD
ATOM      7  H   UNL     1       7.195   8.570   6.141  0.00  0.00    +0.159 HD
ATOM      8  H   UNL     1      11.002   7.326   5.288  0.00  0.00    +0.159 HD
ATOM      9  H   UNL     1      10.258   8.589   4.389  0.00  0.00    +0.159 HD
ENDROOT
BRANCH   1  10
ATOM     10  C   UNL     1      10.028   5.940   7.219  0.00  0.00    +0.151 C 
BRANCH  10  11
ATOM     11  C   UNL     1       9.379   4.651   7.643  0.00  0.00    -0.028 A 
ATOM     12  C   UNL     1       7.986   4.568   7.785  0.00  0.00    +0.005 A 
ATOM     13  C   UNL     1      10.152   3.507   7.898  0.00  0.00    +0.005 A 
ATOM     14  C   UNL     1       7.381   3.363   8.149  0.00  0.00    +0.000 A 
ATOM     15  C   UNL     1       9.543   2.306   8.262  0.00  0.00    +0.000 A 
ATOM     16  C   UNL     1       8.158   2.234   8.385  0.00  0.00    +0.000 A 
ENDBRANCH  10  11
ENDBRANCH   1  10
TORSDOF 2
ENDMDL
MODEL 5
REMARK VINA RESULT:    -5.732     20.742     21.438
REMARK INTER + INTRA:          -6.536
REMARK INTER:                  -6.413
REMARK INTRA:                  -0.123
REMARK UNBOUND:                -0.134
REMARK  Name = 1550473
REMARK  2 active torsions:
REMARK  status: ('A' for Active; 'I' for Inactive)
REMARK    1  A    between atoms: N_1  and  C_4
REMARK    2  A    between atoms: C_4  and  C_5
REMARK                            x       y       z     vdW  Elec       q    Type
REMARK                         _______ _______ _______ _____ _____    ______ ____
ROOT
ATOM      1  N   UNL     1       5.164  -3.815  -9.852  0.00  0.00    -0.354 N 
ATOM      2  N   UNL     1       5.432  -1.675 -10.696  0.00  0.00    -0.372 N 
ATOM      3  N   UNL     1       3.395  -2.278  -9.830  0.00  0.00    -0.372 N 
ATOM      4  C   UNL     1       4.659  -2.603 -10.120  0.00  0.00    +0.166 C 
ATOM      5  H   UNL     1       6.121  -4.008 -10.124  0.00  0.00    +0.163 HD
ATOM      6  H   UNL     1       5.080  -0.750 -10.906  0.00  0.00    +0.159 HD
ATOM      7  H   UNL     1       6.402  -1.856 -10.925  0.00  0.00    +0.159 HD
ATOM      8  H   UNL     1       2.758  -2.936  -9.400  0.00  0.00    +0.159 HD
ATOM      9  H   UNL     1       3.020  -1.362 -10.043  0.00  0.00    +0.159 HD
ENDROOT
BRANCH   1  10
ATOM     10  C   UNL     1       4.423  -4.879  -9.178  0.00  0.00    +0.151 C 
BRANCH  10  11
ATOM     11  C   UNL     1       4.520  -6.138  -9.995  0.00  0.00    -0.028 A 
ATOM     12  C   UNL     1       3.378  -6.684 -10.601  0.00  0.00    +0.005 A 
ATOM     13  C   UNL     1       5.751  -6.788 -10.171  0.00  0.00    +0.005 A 
ATOM     14  C   UNL     1       3.473  -7.837 -11.384  0.00  0.00    +0.000 A 
ATOM     15  C   UNL     1       5.842  -7.939 -10.953  0.00  0.00    +0.000 A 
ATOM     16  C   UNL     1       4.703  -8.462 -11.561  0.00  0.00    +0.000 A 
ENDBRANCH  10  11
ENDBRANCH   1  10
TORSDOF 2
ENDMDL
MODEL 6
REMARK VINA RESULT:    -5.552      4.000      5.552
REMARK INTER + INTRA:          -6.336
REMARK INTER:                  -6.213
REMARK INTRA:                  -0.123
REMARK UNBOUND:                -0.134
REMARK  Name = 1550473
REMARK  2 active torsions:
REMARK  status: ('A' for Active; 'I' for Inactive)
REMARK    1  A    between atoms: N_1  and  C_4
REMARK    2  A    between atoms: C_4  and  C_5
REMARK                            x       y       z     vdW  Elec       q    Type
REMARK                         _______ _______ _______ _____ _____    ______ ____
ROOT
ATOM      1  N   UNL     1       7.764   6.028   7.309  0.00  0.00    -0.354 N 
ATOM      2  N   UNL     1       6.321   7.799   6.928  0.00  0.00    -0.372 N 
ATOM      3  N   UNL     1       8.580   8.200   6.983  0.00  0.00    -0.372 N 
ATOM      4  C   UNL     1       7.567   7.332   7.076  0.00  0.00    +0.166 C 
ATOM      5  H   UNL     1       6.953   5.427   7.399  0.00  0.00    +0.163 HD
ATOM      6  H   UNL     1       6.142   8.778   6.747  0.00  0.00    +0.159 HD
ATOM      7  H   UNL     1       5.515   7.188   6.972  0.00  0.00    +0.159 HD
ATOM      8  H   UNL     1       9.543   7.912   7.091  0.00  0.00    +0.159 HD
ATOM      9  H   UNL     1       8.420   9.186   6.814  0.00  0.00    +0.159 HD
ENDROOT
BRANCH   1  10
ATOM     10  C   UNL     1       9.083   5.409   7.432  0.00  0.00    +0.151 C 
BRANCH  10  11
ATOM     11  C   UNL     1       8.915   3.972   7.844  0.00  0.00    -0.028 A 
ATOM     12  C   UNL     1      10.036   3.153   8.042  0.00  0.00    +0.005 A 
ATOM     13  C   UNL     1       7.638   3.426   8.043  0.00  0.00    +0.005 A 
ATOM     14  C   UNL     1       9.881   1.827   8.453  0.00  0.00    +0.000 A 
ATOM     15  C   UNL     1       7.488   2.102   8.453  0.00  0.00    +0.000 A 
ATOM     16  C   UNL     1       8.610   1.303   8.660  0.00  0.00    +0.000 A 
ENDBRANCH  10  11
ENDBRANCH   1  10
TORSDOF 2
ENDMDL
MODEL 7
REMARK VINA RESULT:    -5.442     21.059     21.771
REMARK INTER + INTRA:          -6.212
REMARK INTER:                  -6.073
REMARK INTRA:                  -0.139
REMARK UNBOUND:                -0.134
REMARK  Name = 1550473
REMARK  2 active torsions:
REMARK  status: ('A' for Active; 'I' for Inactive)
REMARK    1  A    between atoms: N_1  and  C_4
REMARK    2  A    between atoms: C_4  and  C_5
REMARK                            x       y       z     vdW  Elec       q    Type
REMARK                         _______ _______ _______ _____ _____    ______ ____
ROOT
ATOM      1  N   UNL     1       5.673  -6.686  -9.942  0.00  0.00    -0.354 N 
ATOM      2  N   UNL     1       7.067  -6.885  -8.102  0.00  0.00    -0.372 N 
ATOM      3  N   UNL     1       6.281  -8.791  -9.110  0.00  0.00    -0.372 N 
ATOM      4  C   UNL     1       6.330  -7.455  -9.064  0.00  0.00    +0.166 C 
ATOM      5  H   UNL     1       5.727  -5.679  -9.834  0.00  0.00    +0.163 HD
ATOM      6  H   UNL     1       7.576  -7.440  -7.428  0.00  0.00    +0.159 HD
ATOM      7  H   UNL     1       7.156  -5.879  -8.026  0.00  0.00    +0.159 HD
ATOM      8  H   UNL     1       5.738  -9.282  -9.807  0.00  0.00    +0.159 HD
ATOM      9  H   UNL     1       6.774  -9.363  -8.436  0.00  0.00    +0.159 HD
ENDROOT
BRANCH   1  10
ATOM     10  C   UNL     1       4.887  -7.207 -11.058  0.00  0.00    +0.151 C 
BRANCH  10  11
ATOM     11  C   UNL     1       3.461  -6.757 -10.908  0.00  0.00    -0.028 A 
ATOM     12  C   UNL     1       3.160  -5.404 -10.689  0.00  0.00    +0.005 A 
ATOM     13  C   UNL     1       2.404  -7.677 -10.989  0.00  0.00    +0.005 A 
ATOM     14  C   UNL     1       1.833  -4.981 -10.579  0.00  0.00    +0.000 A 
ATOM     15  C   UNL     1       1.081  -7.250 -10.878  0.00  0.00    +0.000 A 
ATOM     16  C   UNL     1       0.796  -5.902 -10.675  0.00  0.00    +0.000 A 
ENDBRANCH  10  11
ENDBRANCH   1  10
TORSDOF 2
ENDMDL
MODEL 8
REMARK VINA RESULT:    -5.438     17.000     18.531
REMARK INTER + INTRA:          -6.208
REMARK INTER:                  -6.073
REMARK INTRA:                  -0.135
REMARK UNBOUND:                -0.134
REMARK  Name = 1550473
REMARK  2 active torsions:
REMARK  status: ('A' for Active; 'I' for Inactive)
REMARK    1  A    between atoms: N_1  and  C_4
REMARK    2  A    between atoms: C_4  and  C_5
REMARK                            x       y       z     vdW  Elec       q    Type
REMARK                         _______ _______ _______ _____ _____    ______ ____
ROOT
ATOM      1  N   UNL     1      -2.309 -10.610   1.529  0.00  0.00    -0.354 N 
ATOM      2  N   UNL     1      -0.033 -10.249   1.758  0.00  0.00    -0.372 N 
ATOM      3  N   UNL     1      -1.057 -11.776   3.130  0.00  0.00    -0.372 N 
ATOM      4  C   UNL     1      -1.148 -10.882   2.140  0.00  0.00    +0.166 C 
ATOM      5  H   UNL     1      -2.317  -9.900   0.805  0.00  0.00    +0.163 HD
ATOM      6  H   UNL     1       0.858 -10.436   2.199  0.00  0.00    +0.159 HD
ATOM      7  H   UNL     1      -0.035  -9.573   1.004  0.00  0.00    +0.159 HD
ATOM      8  H   UNL     1      -1.864 -12.284   3.469  0.00  0.00    +0.159 HD
ATOM      9  H   UNL     1      -0.177 -11.969   3.592  0.00  0.00    +0.159 HD
ENDROOT
BRANCH   1  10
ATOM     10  C   UNL     1      -3.571 -11.283   1.832  0.00  0.00    +0.151 C 
BRANCH  10  11
ATOM     11  C   UNL     1      -4.694 -10.289   1.733  0.00  0.00    -0.028 A 
ATOM     12  C   UNL     1      -6.029 -10.720   1.730  0.00  0.00    +0.005 A 
ATOM     13  C   UNL     1      -4.431  -8.913   1.648  0.00  0.00    +0.005 A 
ATOM     14  C   UNL     1      -7.073  -9.795   1.668  0.00  0.00    +0.000 A 
ATOM     15  C   UNL     1      -5.477  -7.992   1.586  0.00  0.00    +0.000 A 
ATOM     16  C   UNL     1      -6.798  -8.433   1.598  0.00  0.00    +0.000 A 
ENDBRANCH  10  11
ENDBRANCH   1  10
TORSDOF 2
ENDMDL
MODEL 9
REMARK VINA RESULT:    -5.383     21.265     22.175
REMARK INTER + INTRA:          -6.147
REMARK INTER:                  -6.003
REMARK INTRA:                  -0.144
REMARK UNBOUND:                -0.134
REMARK  Name = 1550473
REMARK  2 active torsions:
REMARK  status: ('A' for Active; 'I' for Inactive)
REMARK    1  A    between atoms: N_1  and  C_4
REMARK    2  A    between atoms: C_4  and  C_5
REMARK                            x       y       z     vdW  Elec       q    Type
REMARK                         _______ _______ _______ _____ _____    ______ ____
ROOT
ATOM      1  N   UNL     1       3.065  -4.486 -10.707  0.00  0.00    -0.354 N 
ATOM      2  N   UNL     1       3.743  -2.493  -9.741  0.00  0.00    -0.372 N 
ATOM      3  N   UNL     1       4.903  -4.412  -9.256  0.00  0.00    -0.372 N 
ATOM      4  C   UNL     1       3.901  -3.812  -9.907  0.00  0.00    +0.166 C 
ATOM      5  H   UNL     1       2.306  -3.978 -11.148  0.00  0.00    +0.163 HD
ATOM      6  H   UNL     1       4.360  -1.958  -9.146  0.00  0.00    +0.159 HD
ATOM      7  H   UNL     1       3.012  -1.980 -10.219  0.00  0.00    +0.159 HD
ATOM      8  H   UNL     1       5.073  -5.406  -9.334  0.00  0.00    +0.159 HD
ATOM      9  H   UNL     1       5.525  -3.895  -8.647  0.00  0.00    +0.159 HD
ENDROOT
BRANCH   1  10
ATOM     10  C   UNL     1       3.183  -5.914 -10.997  0.00  0.00    +0.151 C 
BRANCH  10  11
ATOM     11  C   UNL     1       1.845  -6.569 -10.794  0.00  0.00    -0.028 A 
ATOM     12  C   UNL     1       0.727  -5.806 -10.427  0.00  0.00    +0.005 A 
ATOM     13  C   UNL     1       1.687  -7.952 -10.972  0.00  0.00    +0.005 A 
ATOM     14  C   UNL     1      -0.523  -6.410 -10.267  0.00  0.00    +0.000 A 
ATOM     15  C   UNL     1       0.438  -8.551 -10.811  0.00  0.00    +0.000 A 
ATOM     16  C   UNL     1      -0.667  -7.779 -10.461  0.00  0.00    +0.000 A 
ENDBRANCH  10  11
ENDBRANCH   1  10
TORSDOF 2
ENDMDL
