MODEL 1
REMARK VINA RESULT:    -5.482      0.000      0.000
REMARK INTER + INTRA:          -6.248
REMARK INTER:                  -6.123
REMARK INTRA:                  -0.125
REMARK UNBOUND:                -0.125
REMARK  Name = 1550473
REMARK  2 active torsions:
REMARK  status: ('A' for Active; 'I' for Inactive)
REMARK    1  A    between atoms: N_1  and  C_4
REMARK    2  A    between atoms: C_4  and  C_5
REMARK                            x       y       z     vdW  Elec       q    Type
REMARK                         _______ _______ _______ _____ _____    ______ ____
ROOT
ATOM      1  N   UNL     1      17.111   1.226  -8.358  0.00  0.00    -0.354 N 
ATOM      2  N   UNL     1      17.577  -0.965  -7.772  0.00  0.00    -0.372 N 
ATOM      3  N   UNL     1      18.848   0.719  -6.870  0.00  0.00    -0.372 N 
ATOM      4  C   UNL     1      17.845   0.342  -7.669  0.00  0.00    +0.166 C 
ATOM      5  H   UNL     1      16.384   0.875  -8.970  0.00  0.00    +0.163 HD
ATOM      6  H   UNL     1      18.112  -1.655  -7.261  0.00  0.00    +0.159 HD
ATOM      7  H   UNL     1      16.820  -1.311  -8.349  0.00  0.00    +0.159 HD
ATOM      8  H   UNL     1      19.105   1.690  -6.753  0.00  0.00    +0.159 HD
ATOM      9  H   UNL     1      19.402   0.042  -6.360  0.00  0.00    +0.159 HD
ENDROOT
BRANCH   1  10
ATOM     10  C   UNL     1      17.285   2.675  -8.275  0.00  0.00    +0.151 C 
BRANCH  10  11
ATOM     11  C   UNL     1      15.992   3.301  -7.832  0.00  0.00    -0.028 A 
ATOM     12  C   UNL     1      15.694   4.631  -8.164  0.00  0.00    +0.005 A 
ATOM     13  C   UNL     1      15.057   2.568  -7.085  0.00  0.00    +0.005 A 
ATOM     14  C   UNL     1      14.479   5.203  -7.779  0.00  0.00    +0.000 A 
ATOM     15  C   UNL     1      13.845   3.143  -6.702  0.00  0.00    +0.000 A 
ATOM     16  C   UNL     1      13.556   4.460  -7.051  0.00  0.00    +0.000 A 
ENDBRANCH  10  11
ENDBRANCH   1  10
TORSDOF 2
ENDMDL
MODEL 2
REMARK VINA RESULT:    -5.202      3.229      5.259
REMARK INTER + INTRA:          -5.936
REMARK INTER:                  -5.805
REMARK INTRA:                  -0.131
REMARK UNBOUND:                -0.125
REMARK  Name = 1550473
REMARK  2 active torsions:
REMARK  status: ('A' for Active; 'I' for Inactive)
REMARK    1  A    between atoms: N_1  and  C_4
REMARK    2  A    between atoms: C_4  and  C_5
REMARK                            x       y       z     vdW  Elec       q    Type
REMARK                         _______ _______ _______ _____ _____    ______ ____
ROOT
ATOM      1  N   UNL     1      15.305   5.447  -8.104  0.00  0.00    -0.354 N 
ATOM      2  N   UNL     1      15.459   7.466  -9.230  0.00  0.00    -0.372 N 
ATOM      3  N   UNL     1      13.424   6.412  -9.115  0.00  0.00    -0.372 N 
ATOM      4  C   UNL     1      14.726   6.428  -8.809  0.00  0.00    +0.166 C 
ATOM      5  H   UNL     1      16.303   5.503  -7.931  0.00  0.00    +0.163 HD
ATOM      6  H   UNL     1      15.049   8.222  -9.761  0.00  0.00    +0.159 HD
ATOM      7  H   UNL     1      16.446   7.542  -9.017  0.00  0.00    +0.159 HD
ATOM      8  H   UNL     1      12.817   5.654  -8.832  0.00  0.00    +0.159 HD
ATOM      9  H   UNL     1      12.997   7.154  -9.656  0.00  0.00    +0.159 HD
ENDROOT
BRANCH   1  10
ATOM     10  C   UNL     1      14.585   4.300  -7.554  0.00  0.00    +0.151 C 
BRANCH  10  11
ATOM     11  C   UNL     1      15.513   3.118  -7.500  0.00  0.00    -0.028 A 
ATOM     12  C   UNL     1      15.128   1.940  -6.843  0.00  0.00    +0.005 A 
ATOM     13  C   UNL     1      16.776   3.167  -8.110  0.00  0.00    +0.005 A 
ATOM     14  C   UNL     1      15.977   0.831  -6.818  0.00  0.00    +0.000 A 
ATOM     15  C   UNL     1      17.621   2.057  -8.083  0.00  0.00    +0.000 A 
ATOM     16  C   UNL     1      17.220   0.889  -7.439  0.00  0.00    +0.000 A 
ENDBRANCH  10  11
ENDBRANCH   1  10
TORSDOF 2
ENDMDL
MODEL 3
REMARK VINA RESULT:    -5.199     24.966     26.408
REMARK INTER + INTRA:          -5.932
REMARK INTER:                  -5.795
REMARK INTRA:                  -0.137
REMARK UNBOUND:                -0.125
REMARK  Name = 1550473
REMARK  2 active torsions:
REMARK  status: ('A' for Active; 'I' for Inactive)
REMARK    1  A    between atoms: N_1  and  C_4
REMARK    2  A    between atoms: C_4  and  C_5
REMARK                            x       y       z     vdW  Elec       q    Type
REMARK                         _______ _______ _______ _____ _____    ______ ____
ROOT
ATOM      1  N   UNL     1       4.061  15.013  10.114  0.00  0.00    -0.354 N 
ATOM      2  N   UNL     1       4.852  14.193   8.097  0.00  0.00    -0.372 N 
ATOM      3  N   UNL     1       2.590  14.463   8.374  0.00  0.00    -0.372 N 
ATOM      4  C   UNL     1       3.826  14.561   8.874  0.00  0.00    +0.166 C 
ATOM      5  H   UNL     1       5.018  15.035  10.445  0.00  0.00    +0.163 HD
ATOM      6  H   UNL     1       4.706  13.852   7.157  0.00  0.00    +0.159 HD
ATOM      7  H   UNL     1       5.811  14.260   8.414  0.00  0.00    +0.159 HD
ATOM      8  H   UNL     1       1.773  14.719   8.911  0.00  0.00    +0.159 HD
ATOM      9  H   UNL     1       2.423  14.112   7.439  0.00  0.00    +0.159 HD
ENDROOT
BRANCH   1  10
ATOM     10  C   UNL     1       3.018  15.490  11.021  0.00  0.00    +0.151 C 
BRANCH  10  11
ATOM     11  C   UNL     1       3.392  16.857  11.523  0.00  0.00    -0.028 A 
ATOM     12  C   UNL     1       3.957  17.804  10.656  0.00  0.00    +0.005 A 
ATOM     13  C   UNL     1       3.178  17.214  12.863  0.00  0.00    +0.005 A 
ATOM     14  C   UNL     1       4.276  19.085  11.115  0.00  0.00    +0.000 A 
ATOM     15  C   UNL     1       3.499  18.493  13.317  0.00  0.00    +0.000 A 
ATOM     16  C   UNL     1       4.046  19.429  12.442  0.00  0.00    +0.000 A 
ENDBRANCH  10  11
ENDBRANCH   1  10
TORSDOF 2
ENDMDL
MODEL 4
REMARK VINA RESULT:    -5.014      4.054      5.298
REMARK INTER + INTRA:          -5.725
REMARK INTER:                  -5.558
REMARK INTRA:                  -0.167
REMARK UNBOUND:                -0.125
REMARK  Name = 1550473
REMARK  2 active torsions:
REMARK  status: ('A' for Active; 'I' for Inactive)
REMARK    1  A    between atoms: N_1  and  C_4
REMARK    2  A    between atoms: C_4  and  C_5
REMARK                            x       y       z     vdW  Elec       q    Type
REMARK                         _______ _______ _______ _____ _____    ______ ____
ROOT
ATOM      1  N   UNL     1      13.568   6.294  -8.530  0.00  0.00    -0.354 N 
ATOM      2  N   UNL     1      11.761   6.544  -9.956  0.00  0.00    -0.372 N 
ATOM      3  N   UNL     1      13.813   6.034 -10.846  0.00  0.00    -0.372 N 
ATOM      4  C   UNL     1      13.061   6.289  -9.770  0.00  0.00    +0.166 C 
ATOM      5  H   UNL     1      12.952   6.525  -7.759  0.00  0.00    +0.163 HD
ATOM      6  H   UNL     1      11.349   6.543 -10.880  0.00  0.00    +0.159 HD
ATOM      7  H   UNL     1      11.137   6.728  -9.180  0.00  0.00    +0.159 HD
ATOM      8  H   UNL     1      14.803   5.839 -10.773  0.00  0.00    +0.159 HD
ATOM      9  H   UNL     1      13.422   6.040 -11.779  0.00  0.00    +0.159 HD
ENDROOT
BRANCH   1  10
ATOM     10  C   UNL     1      14.959   5.976  -8.214  0.00  0.00    +0.151 C 
BRANCH  10  11
ATOM     11  C   UNL     1      15.047   4.541  -7.773  0.00  0.00    -0.028 A 
ATOM     12  C   UNL     1      16.138   3.745  -8.154  0.00  0.00    +0.005 A 
ATOM     13  C   UNL     1      14.047   3.973  -6.970  0.00  0.00    +0.005 A 
ATOM     14  C   UNL     1      16.235   2.421  -7.720  0.00  0.00    +0.000 A 
ATOM     15  C   UNL     1      14.147   2.650  -6.540  0.00  0.00    +0.000 A 
ATOM     16  C   UNL     1      15.243   1.875  -6.913  0.00  0.00    +0.000 A 
ENDBRANCH  10  11
ENDBRANCH   1  10
TORSDOF 2
ENDMDL
MODEL 5
REMARK VINA RESULT:    -4.861     12.595     13.600
REMARK INTER + INTRA:          -5.554
REMARK INTER:                  -5.380
REMARK INTRA:                  -0.174
REMARK UNBOUND:                -0.125
REMARK  Name = 1550473
REMARK  2 active torsions:
REMARK  status: ('A' for Active; 'I' for Inactive)
REMARK    1  A    between atoms: N_1  and  C_4
REMARK    2  A    between atoms: C_4  and  C_5
REMARK                            x       y       z     vdW  Elec       q    Type
REMARK                         _______ _______ _______ _____ _____    ______ ____
ROOT
ATOM      1  N   UNL     1      13.780  11.594   0.269  0.00  0.00    -0.354 N 
ATOM      2  N   UNL     1      14.004   9.949  -1.345  0.00  0.00    -0.372 N 
ATOM      3  N   UNL     1      15.223  11.882  -1.555  0.00  0.00    -0.372 N 
ATOM      4  C   UNL     1      14.336  11.155  -0.868  0.00  0.00    +0.166 C 
ATOM      5  H   UNL     1      13.092  11.008   0.727  0.00  0.00    +0.163 HD
ATOM      6  H   UNL     1      14.409   9.589  -2.199  0.00  0.00    +0.159 HD
ATOM      7  H   UNL     1      13.350   9.346  -0.861  0.00  0.00    +0.159 HD
ATOM      8  H   UNL     1      15.511  12.802  -1.251  0.00  0.00    +0.159 HD
ATOM      9  H   UNL     1      15.630  11.544  -2.418  0.00  0.00    +0.159 HD
ENDROOT
BRANCH   1  10
ATOM     10  C   UNL     1      14.114  12.869   0.903  0.00  0.00    +0.151 C 
BRANCH  10  11
ATOM     11  C   UNL     1      15.091  12.622   2.019  0.00  0.00    -0.028 A 
ATOM     12  C   UNL     1      16.471  12.713   1.789  0.00  0.00    +0.005 A 
ATOM     13  C   UNL     1      14.642  12.304   3.310  0.00  0.00    +0.005 A 
ATOM     14  C   UNL     1      17.378  12.513   2.833  0.00  0.00    +0.000 A 
ATOM     15  C   UNL     1      15.551  12.104   4.349  0.00  0.00    +0.000 A 
ATOM     16  C   UNL     1      16.919  12.212   4.111  0.00  0.00    +0.000 A 
ENDBRANCH  10  11
ENDBRANCH   1  10
TORSDOF 2
ENDMDL
MODEL 6
REMARK VINA RESULT:    -4.854     35.545     36.669
REMARK INTER + INTRA:          -5.547
REMARK INTER:                  -5.437
REMARK INTRA:                  -0.110
REMARK UNBOUND:                -0.125
REMARK  Name = 1550473
REMARK  2 active torsions:
REMARK  status: ('A' for Active; 'I' for Inactive)
REMARK    1  A    between atoms: N_1  and  C_4
REMARK    2  A    between atoms: C_4  and  C_5
REMARK                            x       y       z     vdW  Elec       q    Type
REMARK                         _______ _______ _______ _____ _____    ______ ____
ROOT
ATOM      1  N   UNL     1       5.825   9.989  25.605  0.00  0.00    -0.354 N 
ATOM      2  N   UNL     1       7.724  11.315  25.634  0.00  0.00    -0.372 N 
ATOM      3  N   UNL     1       5.866  12.064  24.516  0.00  0.00    -0.372 N 
ATOM      4  C   UNL     1       6.457  11.115  25.250  0.00  0.00    +0.166 C 
ATOM      5  H   UNL     1       6.338   9.296  26.136  0.00  0.00    +0.163 HD
ATOM      6  H   UNL     1       8.226  12.156  25.384  0.00  0.00    +0.159 HD
ATOM      7  H   UNL     1       8.220  10.641  26.204  0.00  0.00    +0.159 HD
ATOM      8  H   UNL     1       4.913  11.971  24.188  0.00  0.00    +0.159 HD
ATOM      9  H   UNL     1       6.355  12.908  24.245  0.00  0.00    +0.159 HD
ENDROOT
BRANCH   1  10
ATOM     10  C   UNL     1       4.428   9.699  25.283  0.00  0.00    +0.151 C 
BRANCH  10  11
ATOM     11  C   UNL     1       3.882   8.730  26.295  0.00  0.00    -0.028 A 
ATOM     12  C   UNL     1       4.629   7.607  26.681  0.00  0.00    +0.005 A 
ATOM     13  C   UNL     1       2.621   8.932  26.876  0.00  0.00    +0.005 A 
ATOM     14  C   UNL     1       4.135   6.723  27.643  0.00  0.00    +0.000 A 
ATOM     15  C   UNL     1       2.131   8.046  27.835  0.00  0.00    +0.000 A 
ATOM     16  C   UNL     1       2.889   6.943  28.220  0.00  0.00    +0.000 A 
ENDBRANCH  10  11
ENDBRANCH   1  10
TORSDOF 2
ENDMDL
MODEL 7
REMARK VINA RESULT:    -4.853     34.395     35.545
REMARK INTER + INTRA:          -5.546
REMARK INTER:                  -5.453
REMARK INTRA:                  -0.092
REMARK UNBOUND:                -0.125
REMARK  Name = 1550473
REMARK  2 active torsions:
REMARK  status: ('A' for Active; 'I' for Inactive)
REMARK    1  A    between atoms: N_1  and  C_4
REMARK    2  A    between atoms: C_4  and  C_5
REMARK                            x       y       z     vdW  Elec       q    Type
REMARK                         _______ _______ _______ _____ _____    ______ ____
ROOT
ATOM      1  N   UNL     1      -3.923  11.520  20.516  0.00  0.00    -0.354 N 
ATOM      2  N   UNL     1      -5.333  13.278  19.982  0.00  0.00    -0.372 N 
ATOM      3  N   UNL     1      -5.337  11.410  18.650  0.00  0.00    -0.372 N 
ATOM      4  C   UNL     1      -4.855  12.056  19.717  0.00  0.00    +0.166 C 
ATOM      5  H   UNL     1      -3.578  12.073  21.292  0.00  0.00    +0.163 HD
ATOM      6  H   UNL     1      -6.040  13.707  19.399  0.00  0.00    +0.159 HD
ATOM      7  H   UNL     1      -5.020  13.810  20.785  0.00  0.00    +0.159 HD
ATOM      8  H   UNL     1      -5.013  10.487  18.392  0.00  0.00    +0.159 HD
ATOM      9  H   UNL     1      -6.035  11.827  18.048  0.00  0.00    +0.159 HD
ENDROOT
BRANCH   1  10
ATOM     10  C   UNL     1      -3.376  10.175  20.346  0.00  0.00    +0.151 C 
BRANCH  10  11
ATOM     11  C   UNL     1      -2.173  10.018  21.234  0.00  0.00    -0.028 A 
ATOM     12  C   UNL     1      -0.879  10.157  20.711  0.00  0.00    +0.005 A 
ATOM     13  C   UNL     1      -2.320   9.736  22.601  0.00  0.00    +0.005 A 
ATOM     14  C   UNL     1       0.238  10.042  21.541  0.00  0.00    +0.000 A 
ATOM     15  C   UNL     1      -1.202   9.620  23.427  0.00  0.00    +0.000 A 
ATOM     16  C   UNL     1       0.077   9.776  22.897  0.00  0.00    +0.000 A 
ENDBRANCH  10  11
ENDBRANCH   1  10
TORSDOF 2
ENDMDL
MODEL 8
REMARK VINA RESULT:    -4.602     43.882     45.060
REMARK INTER + INTRA:          -5.265
REMARK INTER:                  -5.100
REMARK INTRA:                  -0.165
REMARK UNBOUND:                -0.125
REMARK  Name = 1550473
REMARK  2 active torsions:
REMARK  status: ('A' for Active; 'I' for Inactive)
REMARK    1  A    between atoms: N_1  and  C_4
REMARK    2  A    between atoms: C_4  and  C_5
REMARK                            x       y       z     vdW  Elec       q    Type
REMARK                         _______ _______ _______ _____ _____    ______ ____
ROOT
ATOM      1  N   UNL     1       2.234  18.108  33.149  0.00  0.00    -0.354 N 
ATOM      2  N   UNL     1       2.104  19.048  35.261  0.00  0.00    -0.372 N 
ATOM      3  N   UNL     1       3.801  19.699  33.860  0.00  0.00    -0.372 N 
ATOM      4  C   UNL     1       2.716  18.947  34.075  0.00  0.00    +0.166 C 
ATOM      5  H   UNL     1       1.426  17.543  33.384  0.00  0.00    +0.163 HD
ATOM      6  H   UNL     1       2.442  19.675  35.979  0.00  0.00    +0.159 HD
ATOM      7  H   UNL     1       1.269  18.516  35.477  0.00  0.00    +0.159 HD
ATOM      8  H   UNL     1       4.312  19.664  32.989  0.00  0.00    +0.159 HD
ATOM      9  H   UNL     1       4.162  20.323  34.571  0.00  0.00    +0.159 HD
ENDROOT
BRANCH   1  10
ATOM     10  C   UNL     1       2.795  17.963  31.806  0.00  0.00    +0.151 C 
BRANCH  10  11
ATOM     11  C   UNL     1       2.009  18.817  30.850  0.00  0.00    -0.028 A 
ATOM     12  C   UNL     1       0.617  18.931  30.977  0.00  0.00    +0.005 A 
ATOM     13  C   UNL     1       2.651  19.520  29.820  0.00  0.00    +0.005 A 
ATOM     14  C   UNL     1      -0.110  19.748  30.107  0.00  0.00    +0.000 A 
ATOM     15  C   UNL     1       1.922  20.334  28.953  0.00  0.00    +0.000 A 
ATOM     16  C   UNL     1       0.542  20.450  29.099  0.00  0.00    +0.000 A 
ENDBRANCH  10  11
ENDBRANCH   1  10
TORSDOF 2
ENDMDL
MODEL 9
REMARK VINA RESULT:    -4.452     44.171     44.712
REMARK INTER + INTRA:          -5.098
REMARK INTER:                  -4.959
REMARK INTRA:                  -0.138
REMARK UNBOUND:                -0.125
REMARK  Name = 1550473
REMARK  2 active torsions:
REMARK  status: ('A' for Active; 'I' for Inactive)
REMARK    1  A    between atoms: N_1  and  C_4
REMARK    2  A    between atoms: C_4  and  C_5
REMARK                            x       y       z     vdW  Elec       q    Type
REMARK                         _______ _______ _______ _____ _____    ______ ____
ROOT
ATOM      1  N   UNL     1       4.164  18.678  32.926  0.00  0.00    -0.354 N 
ATOM      2  N   UNL     1       5.874  19.953  33.826  0.00  0.00    -0.372 N 
ATOM      3  N   UNL     1       6.314  18.643  31.994  0.00  0.00    -0.372 N 
ATOM      4  C   UNL     1       5.441  19.082  32.908  0.00  0.00    +0.166 C 
ATOM      5  H   UNL     1       3.560  19.024  33.663  0.00  0.00    +0.163 HD
ATOM      6  H   UNL     1       6.832  20.279  33.836  0.00  0.00    +0.159 HD
ATOM      7  H   UNL     1       5.257  20.333  34.534  0.00  0.00    +0.159 HD
ATOM      8  H   UNL     1       6.051  17.980  31.278  0.00  0.00    +0.159 HD
ATOM      9  H   UNL     1       7.279  18.949  31.994  0.00  0.00    +0.159 HD
ENDROOT
BRANCH   1  10
ATOM     10  C   UNL     1       3.578  17.773  31.938  0.00  0.00    +0.151 C 
BRANCH  10  11
ATOM     11  C   UNL     1       2.277  18.351  31.454  0.00  0.00    -0.028 A 
ATOM     12  C   UNL     1       2.211  19.677  31.001  0.00  0.00    +0.005 A 
ATOM     13  C   UNL     1       1.107  17.576  31.440  0.00  0.00    +0.005 A 
ATOM     14  C   UNL     1       1.009  20.204  30.522  0.00  0.00    +0.000 A 
ATOM     15  C   UNL     1      -0.091  18.107  30.962  0.00  0.00    +0.000 A 
ATOM     16  C   UNL     1      -0.139  19.420  30.501  0.00  0.00    +0.000 A 
ENDBRANCH  10  11
ENDBRANCH   1  10
TORSDOF 2
ENDMDL
