MODEL 1
REMARK VINA RESULT:    -6.295      0.000      0.000
REMARK INTER + INTRA:          -7.156
REMARK INTER:                  -7.031
REMARK INTRA:                  -0.125
REMARK UNBOUND:                -0.125
REMARK  Name = 1550473
REMARK  2 active torsions:
REMARK  status: ('A' for Active; 'I' for Inactive)
REMARK    1  A    between atoms: N_1  and  C_4
REMARK    2  A    between atoms: C_4  and  C_5
REMARK                            x       y       z     vdW  Elec       q    Type
REMARK                         _______ _______ _______ _____ _____    ______ ____
ROOT
ATOM      1  N   UNL     1      -1.182  -5.530   7.917  0.00  0.00    -0.354 N 
ATOM      2  N   UNL     1      -1.749  -4.967   5.743  0.00  0.00    -0.372 N 
ATOM      3  N   UNL     1       0.469  -5.171   6.293  0.00  0.00    -0.372 N 
ATOM      4  C   UNL     1      -0.814  -5.226   6.665  0.00  0.00    +0.166 C 
ATOM      5  H   UNL     1      -2.170  -5.526   8.143  0.00  0.00    +0.163 HD
ATOM      6  H   UNL     1      -1.501  -4.739   4.789  0.00  0.00    +0.159 HD
ATOM      7  H   UNL     1      -2.737  -5.009   5.960  0.00  0.00    +0.159 HD
ATOM      8  H   UNL     1       1.223  -5.350   6.943  0.00  0.00    +0.159 HD
ATOM      9  H   UNL     1       0.737  -4.932   5.347  0.00  0.00    +0.159 HD
ENDROOT
BRANCH   1  10
ATOM     10  C   UNL     1      -0.245  -5.880   8.983  0.00  0.00    +0.151 C 
BRANCH  10  11
ATOM     11  C   UNL     1      -0.967  -5.853  10.301  0.00  0.00    -0.028 A 
ATOM     12  C   UNL     1      -2.332  -5.533  10.359  0.00  0.00    +0.005 A 
ATOM     13  C   UNL     1      -0.295  -6.152  11.496  0.00  0.00    +0.005 A 
ATOM     14  C   UNL     1      -3.010  -5.537  11.580  0.00  0.00    +0.000 A 
ATOM     15  C   UNL     1      -0.976  -6.154  12.713  0.00  0.00    +0.000 A 
ATOM     16  C   UNL     1      -2.334  -5.849  12.754  0.00  0.00    +0.000 A 
ENDBRANCH  10  11
ENDBRANCH   1  10
TORSDOF 2
ENDMDL
MODEL 2
REMARK VINA RESULT:    -5.903      3.992      5.454
REMARK INTER + INTRA:          -6.718
REMARK INTER:                  -6.594
REMARK INTRA:                  -0.124
REMARK UNBOUND:                -0.125
REMARK  Name = 1550473
REMARK  2 active torsions:
REMARK  status: ('A' for Active; 'I' for Inactive)
REMARK    1  A    between atoms: N_1  and  C_4
REMARK    2  A    between atoms: C_4  and  C_5
REMARK                            x       y       z     vdW  Elec       q    Type
REMARK                         _______ _______ _______ _____ _____    ______ ____
ROOT
ATOM      1  N   UNL     1      -4.768  -5.891  12.567  0.00  0.00    -0.354 N 
ATOM      2  N   UNL     1      -6.526  -6.062  14.065  0.00  0.00    -0.372 N 
ATOM      3  N   UNL     1      -6.783  -4.753  12.198  0.00  0.00    -0.372 N 
ATOM      4  C   UNL     1      -6.015  -5.566  12.932  0.00  0.00    +0.166 C 
ATOM      5  H   UNL     1      -4.227  -6.487  13.182  0.00  0.00    +0.163 HD
ATOM      6  H   UNL     1      -7.465  -5.838  14.364  0.00  0.00    +0.159 HD
ATOM      7  H   UNL     1      -5.999  -6.695  14.655  0.00  0.00    +0.159 HD
ATOM      8  H   UNL     1      -6.455  -4.341  11.335  0.00  0.00    +0.159 HD
ATOM      9  H   UNL     1      -7.722  -4.507  12.487  0.00  0.00    +0.159 HD
ENDROOT
BRANCH   1  10
ATOM     10  C   UNL     1      -4.137  -5.447  11.325  0.00  0.00    +0.151 C 
BRANCH  10  11
ATOM     11  C   UNL     1      -2.662  -5.730  11.395  0.00  0.00    -0.028 A 
ATOM     12  C   UNL     1      -1.858  -5.605  10.252  0.00  0.00    +0.005 A 
ATOM     13  C   UNL     1      -2.061  -6.118  12.602  0.00  0.00    +0.005 A 
ATOM     14  C   UNL     1      -0.483  -5.839  10.323  0.00  0.00    +0.000 A 
ATOM     15  C   UNL     1      -0.687  -6.351  12.669  0.00  0.00    +0.000 A 
ATOM     16  C   UNL     1       0.102  -6.209  11.530  0.00  0.00    +0.000 A 
ENDBRANCH  10  11
ENDBRANCH   1  10
TORSDOF 2
ENDMDL
MODEL 3
REMARK VINA RESULT:    -5.549     12.634     13.659
REMARK INTER + INTRA:          -6.322
REMARK INTER:                  -6.203
REMARK INTRA:                  -0.120
REMARK UNBOUND:                -0.125
REMARK  Name = 1550473
REMARK  2 active torsions:
REMARK  status: ('A' for Active; 'I' for Inactive)
REMARK    1  A    between atoms: N_1  and  C_4
REMARK    2  A    between atoms: C_4  and  C_5
REMARK                            x       y       z     vdW  Elec       q    Type
REMARK                         _______ _______ _______ _____ _____    ______ ____
ROOT
ATOM      1  N   UNL     1      -1.850   2.021  -2.049  0.00  0.00    -0.354 N 
ATOM      2  N   UNL     1      -4.121   2.463  -1.934  0.00  0.00    -0.372 N 
ATOM      3  N   UNL     1      -3.222   1.790  -3.935  0.00  0.00    -0.372 N 
ATOM      4  C   UNL     1      -3.049   2.088  -2.643  0.00  0.00    +0.166 C 
ATOM      5  H   UNL     1      -1.780   2.289  -1.074  0.00  0.00    +0.163 HD
ATOM      6  H   UNL     1      -5.039   2.519  -2.354  0.00  0.00    +0.159 HD
ATOM      7  H   UNL     1      -4.056   2.686  -0.948  0.00  0.00    +0.159 HD
ATOM      8  H   UNL     1      -2.453   1.506  -4.527  0.00  0.00    +0.159 HD
ATOM      9  H   UNL     1      -4.131   1.852  -4.376  0.00  0.00    +0.159 HD
ENDROOT
BRANCH   1  10
ATOM     10  C   UNL     1      -0.630   1.572  -2.718  0.00  0.00    +0.151 C 
BRANCH  10  11
ATOM     11  C   UNL     1       0.450   1.375  -1.690  0.00  0.00    -0.028 A 
ATOM     12  C   UNL     1       0.369   2.010  -0.442  0.00  0.00    +0.005 A 
ATOM     13  C   UNL     1       1.552   0.549  -1.956  0.00  0.00    +0.005 A 
ATOM     14  C   UNL     1       1.357   1.803   0.524  0.00  0.00    +0.000 A 
ATOM     15  C   UNL     1       2.537   0.345  -0.989  0.00  0.00    +0.000 A 
ATOM     16  C   UNL     1       2.437   0.970   0.252  0.00  0.00    +0.000 A 
ENDBRANCH  10  11
ENDBRANCH   1  10
TORSDOF 2
ENDMDL
MODEL 4
REMARK VINA RESULT:    -5.287     12.756     15.346
REMARK INTER + INTRA:          -6.030
REMARK INTER:                  -5.883
REMARK INTRA:                  -0.147
REMARK UNBOUND:                -0.125
REMARK  Name = 1550473
REMARK  2 active torsions:
REMARK  status: ('A' for Active; 'I' for Inactive)
REMARK    1  A    between atoms: N_1  and  C_4
REMARK    2  A    between atoms: C_4  and  C_5
REMARK                            x       y       z     vdW  Elec       q    Type
REMARK                         _______ _______ _______ _____ _____    ______ ____
ROOT
ATOM      1  N   UNL     1      -0.274   1.658  -1.116  0.00  0.00    -0.354 N 
ATOM      2  N   UNL     1       0.396   2.898   0.722  0.00  0.00    -0.372 N 
ATOM      3  N   UNL     1       1.877   1.419  -0.217  0.00  0.00    -0.372 N 
ATOM      4  C   UNL     1       0.664   1.982  -0.216  0.00  0.00    +0.166 C 
ATOM      5  H   UNL     1      -1.184   2.099  -1.043  0.00  0.00    +0.163 HD
ATOM      6  H   UNL     1       1.085   3.165   1.412  0.00  0.00    +0.159 HD
ATOM      7  H   UNL     1      -0.499   3.371   0.764  0.00  0.00    +0.159 HD
ATOM      8  H   UNL     1       2.141   0.716  -0.895  0.00  0.00    +0.159 HD
ATOM      9  H   UNL     1       2.576   1.665   0.473  0.00  0.00    +0.159 HD
ENDROOT
BRANCH   1  10
ATOM     10  C   UNL     1      -0.065   0.712  -2.211  0.00  0.00    +0.151 C 
BRANCH  10  11
ATOM     11  C   UNL     1      -0.171   1.445  -3.520  0.00  0.00    -0.028 A 
ATOM     12  C   UNL     1      -1.380   2.043  -3.905  0.00  0.00    +0.005 A 
ATOM     13  C   UNL     1       0.935   1.549  -4.377  0.00  0.00    +0.005 A 
ATOM     14  C   UNL     1      -1.470   2.750  -5.107  0.00  0.00    +0.000 A 
ATOM     15  C   UNL     1       0.840   2.254  -5.577  0.00  0.00    +0.000 A 
ATOM     16  C   UNL     1      -0.362   2.856  -5.940  0.00  0.00    +0.000 A 
ENDBRANCH  10  11
ENDBRANCH   1  10
TORSDOF 2
ENDMDL
MODEL 5
REMARK VINA RESULT:    -5.269      2.971      4.338
REMARK INTER + INTRA:          -6.010
REMARK INTER:                  -5.904
REMARK INTRA:                  -0.105
REMARK UNBOUND:                -0.125
REMARK  Name = 1550473
REMARK  2 active torsions:
REMARK  status: ('A' for Active; 'I' for Inactive)
REMARK    1  A    between atoms: N_1  and  C_4
REMARK    2  A    between atoms: C_4  and  C_5
REMARK                            x       y       z     vdW  Elec       q    Type
REMARK                         _______ _______ _______ _____ _____    ______ ____
ROOT
ATOM      1  N   UNL     1      -1.259  -5.839  11.473  0.00  0.00    -0.354 N 
ATOM      2  N   UNL     1       0.762  -6.098  10.372  0.00  0.00    -0.372 N 
ATOM      3  N   UNL     1       0.652  -6.571  12.615  0.00  0.00    -0.372 N 
ATOM      4  C   UNL     1       0.039  -6.168  11.497  0.00  0.00    +0.166 C 
ATOM      5  H   UNL     1      -1.657  -5.512  10.600  0.00  0.00    +0.163 HD
ATOM      6  H   UNL     1       1.743  -6.343  10.359  0.00  0.00    +0.159 HD
ATOM      7  H   UNL     1       0.351  -5.815   9.491  0.00  0.00    +0.159 HD
ATOM      8  H   UNL     1       0.164  -6.640  13.498  0.00  0.00    +0.159 HD
ATOM      9  H   UNL     1       1.636  -6.810  12.624  0.00  0.00    +0.159 HD
ENDROOT
BRANCH   1  10
ATOM     10  C   UNL     1      -2.147  -5.932  12.630  0.00  0.00    +0.151 C 
BRANCH  10  11
ATOM     11  C   UNL     1      -3.573  -5.963  12.153  0.00  0.00    -0.028 A 
ATOM     12  C   UNL     1      -4.041  -5.004  11.244  0.00  0.00    +0.005 A 
ATOM     13  C   UNL     1      -4.460  -6.953  12.604  0.00  0.00    +0.005 A 
ATOM     14  C   UNL     1      -5.357  -5.051  10.777  0.00  0.00    +0.000 A 
ATOM     15  C   UNL     1      -5.773  -6.996  12.136  0.00  0.00    +0.000 A 
ATOM     16  C   UNL     1      -6.221  -6.046  11.221  0.00  0.00    +0.000 A 
ENDBRANCH  10  11
ENDBRANCH   1  10
TORSDOF 2
ENDMDL
MODEL 6
REMARK VINA RESULT:    -5.237      9.402     11.910
REMARK INTER + INTRA:          -5.974
REMARK INTER:                  -5.836
REMARK INTRA:                  -0.138
REMARK UNBOUND:                -0.125
REMARK  Name = 1550473
REMARK  2 active torsions:
REMARK  status: ('A' for Active; 'I' for Inactive)
REMARK    1  A    between atoms: N_1  and  C_4
REMARK    2  A    between atoms: C_4  and  C_5
REMARK                            x       y       z     vdW  Elec       q    Type
REMARK                         _______ _______ _______ _____ _____    ______ ____
ROOT
ATOM      1  N   UNL     1       1.680  -0.066   2.410  0.00  0.00    -0.354 N 
ATOM      2  N   UNL     1       0.566   0.394   4.388  0.00  0.00    -0.372 N 
ATOM      3  N   UNL     1       2.086   1.917   3.591  0.00  0.00    -0.372 N 
ATOM      4  C   UNL     1       1.453   0.747   3.450  0.00  0.00    +0.166 C 
ATOM      5  H   UNL     1       1.191  -0.953   2.377  0.00  0.00    +0.163 HD
ATOM      6  H   UNL     1       0.372   0.988   5.182  0.00  0.00    +0.159 HD
ATOM      7  H   UNL     1       0.045  -0.472   4.328  0.00  0.00    +0.159 HD
ATOM      8  H   UNL     1       2.771   2.239   2.920  0.00  0.00    +0.159 HD
ATOM      9  H   UNL     1       1.913   2.521   4.385  0.00  0.00    +0.159 HD
ENDROOT
BRANCH   1  10
ATOM     10  C   UNL     1       2.586   0.250   1.307  0.00  0.00    +0.151 C 
BRANCH  10  11
ATOM     11  C   UNL     1       1.883  -0.011   0.003  0.00  0.00    -0.028 A 
ATOM     12  C   UNL     1       0.765  -0.857  -0.046  0.00  0.00    +0.005 A 
ATOM     13  C   UNL     1       2.325   0.591  -1.185  0.00  0.00    +0.005 A 
ATOM     14  C   UNL     1       0.093  -1.075  -1.251  0.00  0.00    +0.000 A 
ATOM     15  C   UNL     1       1.652   0.369  -2.386  0.00  0.00    +0.000 A 
ATOM     16  C   UNL     1       0.535  -0.462  -2.418  0.00  0.00    +0.000 A 
ENDBRANCH  10  11
ENDBRANCH   1  10
TORSDOF 2
ENDMDL
MODEL 7
REMARK VINA RESULT:    -5.218     14.061     15.121
REMARK INTER + INTRA:          -5.953
REMARK INTER:                  -5.848
REMARK INTRA:                  -0.105
REMARK UNBOUND:                -0.125
REMARK  Name = 1550473
REMARK  2 active torsions:
REMARK  status: ('A' for Active; 'I' for Inactive)
REMARK    1  A    between atoms: N_1  and  C_4
REMARK    2  A    between atoms: C_4  and  C_5
REMARK                            x       y       z     vdW  Elec       q    Type
REMARK                         _______ _______ _______ _____ _____    ______ ____
ROOT
ATOM      1  N   UNL     1      -5.295  -0.316  -2.471  0.00  0.00    -0.354 N 
ATOM      2  N   UNL     1      -4.869   1.748  -1.510  0.00  0.00    -0.372 N 
ATOM      3  N   UNL     1      -7.031   1.201  -2.051  0.00  0.00    -0.372 N 
ATOM      4  C   UNL     1      -5.737   0.865  -2.017  0.00  0.00    +0.166 C 
ATOM      5  H   UNL     1      -4.298  -0.499  -2.445  0.00  0.00    +0.163 HD
ATOM      6  H   UNL     1      -5.173   2.645  -1.158  0.00  0.00    +0.159 HD
ATOM      7  H   UNL     1      -3.879   1.544  -1.444  0.00  0.00    +0.159 HD
ATOM      8  H   UNL     1      -7.736   0.582  -2.427  0.00  0.00    +0.159 HD
ATOM      9  H   UNL     1      -7.354   2.100  -1.714  0.00  0.00    +0.159 HD
ENDROOT
BRANCH   1  10
ATOM     10  C   UNL     1      -6.164  -1.369  -2.993  0.00  0.00    +0.151 C 
BRANCH  10  11
ATOM     11  C   UNL     1      -5.394  -2.194  -3.986  0.00  0.00    -0.028 A 
ATOM     12  C   UNL     1      -5.167  -1.715  -5.285  0.00  0.00    +0.005 A 
ATOM     13  C   UNL     1      -4.884  -3.453  -3.634  0.00  0.00    +0.005 A 
ATOM     14  C   UNL     1      -4.426  -2.468  -6.199  0.00  0.00    +0.000 A 
ATOM     15  C   UNL     1      -4.146  -4.202  -4.550  0.00  0.00    +0.000 A 
ATOM     16  C   UNL     1      -3.915  -3.708  -5.831  0.00  0.00    +0.000 A 
ENDBRANCH  10  11
ENDBRANCH   1  10
TORSDOF 2
ENDMDL
MODEL 8
REMARK VINA RESULT:    -5.200     11.696     12.778
REMARK INTER + INTRA:          -5.933
REMARK INTER:                  -5.783
REMARK INTRA:                  -0.150
REMARK UNBOUND:                -0.125
REMARK  Name = 1550473
REMARK  2 active torsions:
REMARK  status: ('A' for Active; 'I' for Inactive)
REMARK    1  A    between atoms: N_1  and  C_4
REMARK    2  A    between atoms: C_4  and  C_5
REMARK                            x       y       z     vdW  Elec       q    Type
REMARK                         _______ _______ _______ _____ _____    ______ ____
ROOT
ATOM      1  N   UNL     1      -5.752   0.139  -0.637  0.00  0.00    -0.354 N 
ATOM      2  N   UNL     1      -4.539   1.850  -1.621  0.00  0.00    -0.372 N 
ATOM      3  N   UNL     1      -6.463   1.125  -2.641  0.00  0.00    -0.372 N 
ATOM      4  C   UNL     1      -5.595   1.027  -1.629  0.00  0.00    +0.166 C 
ATOM      5  H   UNL     1      -5.042   0.094   0.085  0.00  0.00    +0.163 HD
ATOM      6  H   UNL     1      -4.396   2.532  -2.354  0.00  0.00    +0.159 HD
ATOM      7  H   UNL     1      -3.856   1.834  -0.874  0.00  0.00    +0.159 HD
ATOM      8  H   UNL     1      -7.277   0.528  -2.708  0.00  0.00    +0.159 HD
ATOM      9  H   UNL     1      -6.331   1.793  -3.390  0.00  0.00    +0.159 HD
ENDROOT
BRANCH   1  10
ATOM     10  C   UNL     1      -6.894  -0.766  -0.523  0.00  0.00    +0.151 C 
BRANCH  10  11
ATOM     11  C   UNL     1      -6.420  -2.181  -0.709  0.00  0.00    -0.028 A 
ATOM     12  C   UNL     1      -5.059  -2.497  -0.588  0.00  0.00    +0.005 A 
ATOM     13  C   UNL     1      -7.328  -3.210  -1.000  0.00  0.00    +0.005 A 
ATOM     14  C   UNL     1      -4.622  -3.816  -0.731  0.00  0.00    +0.000 A 
ATOM     15  C   UNL     1      -6.887  -4.526  -1.143  0.00  0.00    +0.000 A 
ATOM     16  C   UNL     1      -5.535  -4.829  -1.005  0.00  0.00    +0.000 A 
ENDBRANCH  10  11
ENDBRANCH   1  10
TORSDOF 2
ENDMDL
MODEL 9
REMARK VINA RESULT:    -5.181     14.101     15.194
REMARK INTER + INTRA:          -5.912
REMARK INTER:                  -5.769
REMARK INTRA:                  -0.143
REMARK UNBOUND:                -0.125
REMARK  Name = 1550473
REMARK  2 active torsions:
REMARK  status: ('A' for Active; 'I' for Inactive)
REMARK    1  A    between atoms: N_1  and  C_4
REMARK    2  A    between atoms: C_4  and  C_5
REMARK                            x       y       z     vdW  Elec       q    Type
REMARK                         _______ _______ _______ _____ _____    ______ ____
ROOT
ATOM      1  N   UNL     1      -3.689   1.344  -2.196  0.00  0.00    -0.354 N 
ATOM      2  N   UNL     1      -3.490   3.644  -2.020  0.00  0.00    -0.372 N 
ATOM      3  N   UNL     1      -2.445   2.570  -3.757  0.00  0.00    -0.372 N 
ATOM      4  C   UNL     1      -3.208   2.504  -2.661  0.00  0.00    +0.166 C 
ATOM      5  H   UNL     1      -4.236   1.357  -1.343  0.00  0.00    +0.163 HD
ATOM      6  H   UNL     1      -3.144   4.536  -2.350  0.00  0.00    +0.159 HD
ATOM      7  H   UNL     1      -4.076   3.660  -1.194  0.00  0.00    +0.159 HD
ATOM      8  H   UNL     1      -2.190   1.745  -4.283  0.00  0.00    +0.159 HD
ATOM      9  H   UNL     1      -2.079   3.451  -4.096  0.00  0.00    +0.159 HD
ENDROOT
BRANCH   1  10
ATOM     10  C   UNL     1      -3.484   0.052  -2.850  0.00  0.00    +0.151 C 
BRANCH  10  11
ATOM     11  C   UNL     1      -4.784  -0.404  -3.453  0.00  0.00    -0.028 A 
ATOM     12  C   UNL     1      -4.801  -1.415  -4.425  0.00  0.00    +0.005 A 
ATOM     13  C   UNL     1      -6.002   0.167  -3.053  0.00  0.00    +0.005 A 
ATOM     14  C   UNL     1      -6.011  -1.861  -4.964  0.00  0.00    +0.000 A 
ATOM     15  C   UNL     1      -7.207  -0.280  -3.594  0.00  0.00    +0.000 A 
ATOM     16  C   UNL     1      -7.212  -1.296  -4.547  0.00  0.00    +0.000 A 
ENDBRANCH  10  11
ENDBRANCH   1  10
TORSDOF 2
ENDMDL
