MODEL 1
REMARK VINA RESULT:    -5.269      0.000      0.000
REMARK INTER + INTRA:          -5.996
REMARK INTER:                  -5.885
REMARK INTRA:                  -0.111
REMARK UNBOUND:                -0.111
REMARK  Name = 1550473
REMARK  2 active torsions:
REMARK  status: ('A' for Active; 'I' for Inactive)
REMARK    1  A    between atoms: N_1  and  C_4
REMARK    2  A    between atoms: C_4  and  C_5
REMARK                            x       y       z     vdW  Elec       q    Type
REMARK                         _______ _______ _______ _____ _____    ______ ____
ROOT
ATOM      1  N   UNL     1      -8.359   1.825 -19.075  0.00  0.00    -0.354 N 
ATOM      2  N   UNL     1      -9.882   0.121 -18.704  0.00  0.00    -0.372 N 
ATOM      3  N   UNL     1      -9.359   0.690 -20.864  0.00  0.00    -0.372 N 
ATOM      4  C   UNL     1      -9.190   0.890 -19.553  0.00  0.00    +0.166 C 
ATOM      5  H   UNL     1      -8.298   1.948 -18.071  0.00  0.00    +0.163 HD
ATOM      6  H   UNL     1     -10.514  -0.596 -19.035  0.00  0.00    +0.159 HD
ATOM      7  H   UNL     1      -9.784   0.214 -17.700  0.00  0.00    +0.159 HD
ATOM      8  H   UNL     1      -8.871   1.241 -21.557  0.00  0.00    +0.159 HD
ATOM      9  H   UNL     1      -9.996  -0.014 -21.215  0.00  0.00    +0.159 HD
ENDROOT
BRANCH   1  10
ATOM     10  C   UNL     1      -7.519   2.679 -19.914  0.00  0.00    +0.151 C 
BRANCH  10  11
ATOM     11  C   UNL     1      -7.159   3.921 -19.146  0.00  0.00    -0.028 A 
ATOM     12  C   UNL     1      -5.815   4.276 -18.956  0.00  0.00    +0.005 A 
ATOM     13  C   UNL     1      -8.156   4.749 -18.609  0.00  0.00    +0.005 A 
ATOM     14  C   UNL     1      -5.480   5.445 -18.269  0.00  0.00    +0.000 A 
ATOM     15  C   UNL     1      -7.818   5.915 -17.923  0.00  0.00    +0.000 A 
ATOM     16  C   UNL     1      -6.480   6.264 -17.755  0.00  0.00    +0.000 A 
ENDBRANCH  10  11
ENDBRANCH   1  10
TORSDOF 2
ENDMDL
MODEL 2
REMARK VINA RESULT:    -4.787     36.333     36.840
REMARK INTER + INTRA:          -5.458
REMARK INTER:                  -5.348
REMARK INTRA:                  -0.110
REMARK UNBOUND:                -0.111
REMARK  Name = 1550473
REMARK  2 active torsions:
REMARK  status: ('A' for Active; 'I' for Inactive)
REMARK    1  A    between atoms: N_1  and  C_4
REMARK    2  A    between atoms: C_4  and  C_5
REMARK                            x       y       z     vdW  Elec       q    Type
REMARK                         _______ _______ _______ _____ _____    ______ ____
ROOT
ATOM      1  N   UNL     1      -5.973  -8.960  15.624  0.00  0.00    -0.354 N 
ATOM      2  N   UNL     1      -6.267 -11.237  15.323  0.00  0.00    -0.372 N 
ATOM      3  N   UNL     1      -5.153 -10.500  17.188  0.00  0.00    -0.372 N 
ATOM      4  C   UNL     1      -5.794 -10.217  16.049  0.00  0.00    +0.166 C 
ATOM      5  H   UNL     1      -6.441  -8.813  14.737  0.00  0.00    +0.163 HD
ATOM      6  H   UNL     1      -6.150 -12.197  15.620  0.00  0.00    +0.159 HD
ATOM      7  H   UNL     1      -6.775 -11.086  14.460  0.00  0.00    +0.159 HD
ATOM      8  H   UNL     1      -4.766  -9.776  17.779  0.00  0.00    +0.159 HD
ATOM      9  H   UNL     1      -5.015 -11.454  17.496  0.00  0.00    +0.159 HD
ENDROOT
BRANCH   1  10
ATOM     10  C   UNL     1      -5.544  -7.776  16.367  0.00  0.00    +0.151 C 
BRANCH  10  11
ATOM     11  C   UNL     1      -6.590  -6.705  16.232  0.00  0.00    -0.028 A 
ATOM     12  C   UNL     1      -6.992  -6.258  14.964  0.00  0.00    +0.005 A 
ATOM     13  C   UNL     1      -7.188  -6.136  17.367  0.00  0.00    +0.005 A 
ATOM     14  C   UNL     1      -7.986  -5.284  14.837  0.00  0.00    +0.000 A 
ATOM     15  C   UNL     1      -8.179  -5.164  17.236  0.00  0.00    +0.000 A 
ATOM     16  C   UNL     1      -8.580  -4.740  15.971  0.00  0.00    +0.000 A 
ENDBRANCH  10  11
ENDBRANCH   1  10
TORSDOF 2
ENDMDL
MODEL 3
REMARK VINA RESULT:    -4.685     37.723     38.275
REMARK INTER + INTRA:          -5.344
REMARK INTER:                  -5.205
REMARK INTRA:                  -0.139
REMARK UNBOUND:                -0.111
REMARK  Name = 1550473
REMARK  2 active torsions:
REMARK  status: ('A' for Active; 'I' for Inactive)
REMARK    1  A    between atoms: N_1  and  C_4
REMARK    2  A    between atoms: C_4  and  C_5
REMARK                            x       y       z     vdW  Elec       q    Type
REMARK                         _______ _______ _______ _____ _____    ______ ____
ROOT
ATOM      1  N   UNL     1      -4.733  -8.557  18.278  0.00  0.00    -0.354 N 
ATOM      2  N   UNL     1      -2.633  -9.518  18.446  0.00  0.00    -0.372 N 
ATOM      3  N   UNL     1      -3.216  -7.863  19.924  0.00  0.00    -0.372 N 
ATOM      4  C   UNL     1      -3.541  -8.638  18.884  0.00  0.00    +0.166 C 
ATOM      5  H   UNL     1      -4.907  -9.151  17.475  0.00  0.00    +0.163 HD
ATOM      6  H   UNL     1      -1.726  -9.605  18.885  0.00  0.00    +0.159 HD
ATOM      7  H   UNL     1      -2.826 -10.143  17.673  0.00  0.00    +0.159 HD
ATOM      8  H   UNL     1      -3.855  -7.175  20.299  0.00  0.00    +0.159 HD
ATOM      9  H   UNL     1      -2.309  -7.927  20.370  0.00  0.00    +0.159 HD
ENDROOT
BRANCH   1  10
ATOM     10  C   UNL     1      -5.811  -7.670  18.711  0.00  0.00    +0.151 C 
BRANCH  10  11
ATOM     11  C   UNL     1      -6.419  -7.010  17.503  0.00  0.00    -0.028 A 
ATOM     12  C   UNL     1      -7.426  -6.045  17.650  0.00  0.00    +0.005 A 
ATOM     13  C   UNL     1      -5.988  -7.343  16.210  0.00  0.00    +0.005 A 
ATOM     14  C   UNL     1      -7.970  -5.411  16.531  0.00  0.00    +0.000 A 
ATOM     15  C   UNL     1      -6.534  -6.708  15.094  0.00  0.00    +0.000 A 
ATOM     16  C   UNL     1      -7.523  -5.740  15.255  0.00  0.00    +0.000 A 
ENDBRANCH  10  11
ENDBRANCH   1  10
TORSDOF 2
ENDMDL
MODEL 4
REMARK VINA RESULT:    -4.662     11.026     12.643
REMARK INTER + INTRA:          -5.319
REMARK INTER:                  -5.184
REMARK INTRA:                  -0.135
REMARK UNBOUND:                -0.111
REMARK  Name = 1550473
REMARK  2 active torsions:
REMARK  status: ('A' for Active; 'I' for Inactive)
REMARK    1  A    between atoms: N_1  and  C_4
REMARK    2  A    between atoms: C_4  and  C_5
REMARK                            x       y       z     vdW  Elec       q    Type
REMARK                         _______ _______ _______ _____ _____    ______ ____
ROOT
ATOM      1  N   UNL     1      -1.833  12.058 -12.035  0.00  0.00    -0.354 N 
ATOM      2  N   UNL     1      -2.830  13.716 -10.762  0.00  0.00    -0.372 N 
ATOM      3  N   UNL     1      -0.545  13.505 -10.716  0.00  0.00    -0.372 N 
ATOM      4  C   UNL     1      -1.727  13.082 -11.179  0.00  0.00    +0.166 C 
ATOM      5  H   UNL     1      -2.760  11.767 -12.325  0.00  0.00    +0.163 HD
ATOM      6  H   UNL     1      -2.780  14.495 -10.119  0.00  0.00    +0.159 HD
ATOM      7  H   UNL     1      -3.751  13.453 -11.089  0.00  0.00    +0.159 HD
ATOM      8  H   UNL     1       0.324  13.065 -10.987  0.00  0.00    +0.159 HD
ATOM      9  H   UNL     1      -0.476  14.275 -10.063  0.00  0.00    +0.159 HD
ENDROOT
BRANCH   1  10
ATOM     10  C   UNL     1      -0.691  11.335 -12.591  0.00  0.00    +0.151 C 
BRANCH  10  11
ATOM     11  C   UNL     1      -0.987  10.973 -14.021  0.00  0.00    -0.028 A 
ATOM     12  C   UNL     1      -2.037  11.598 -14.710  0.00  0.00    +0.005 A 
ATOM     13  C   UNL     1      -0.219  10.011 -14.693  0.00  0.00    +0.005 A 
ATOM     14  C   UNL     1      -2.294  11.284 -16.047  0.00  0.00    +0.000 A 
ATOM     15  C   UNL     1      -0.479   9.699 -16.027  0.00  0.00    +0.000 A 
ATOM     16  C   UNL     1      -1.515  10.338 -16.705  0.00  0.00    +0.000 A 
ENDBRANCH  10  11
ENDBRANCH   1  10
TORSDOF 2
ENDMDL
MODEL 5
REMARK VINA RESULT:    -4.609      2.272      2.960
REMARK INTER + INTRA:          -5.259
REMARK INTER:                  -5.131
REMARK INTRA:                  -0.128
REMARK UNBOUND:                -0.111
REMARK  Name = 1550473
REMARK  2 active torsions:
REMARK  status: ('A' for Active; 'I' for Inactive)
REMARK    1  A    between atoms: N_1  and  C_4
REMARK    2  A    between atoms: C_4  and  C_5
REMARK                            x       y       z     vdW  Elec       q    Type
REMARK                         _______ _______ _______ _____ _____    ______ ____
ROOT
ATOM      1  N   UNL     1     -10.483   3.758 -19.040  0.00  0.00    -0.354 N 
ATOM      2  N   UNL     1     -12.101   2.130 -19.350  0.00  0.00    -0.372 N 
ATOM      3  N   UNL     1     -12.532   3.860 -17.907  0.00  0.00    -0.372 N 
ATOM      4  C   UNL     1     -11.696   3.261 -18.761  0.00  0.00    +0.166 C 
ATOM      5  H   UNL     1      -9.885   3.240 -19.673  0.00  0.00    +0.163 HD
ATOM      6  H   UNL     1     -13.012   1.733 -19.162  0.00  0.00    +0.159 HD
ATOM      7  H   UNL     1     -11.519   1.639 -20.018  0.00  0.00    +0.159 HD
ATOM      8  H   UNL     1     -12.285   4.714 -17.425  0.00  0.00    +0.159 HD
ATOM      9  H   UNL     1     -13.443   3.472 -17.697  0.00  0.00    +0.159 HD
ENDROOT
BRANCH   1  10
ATOM     10  C   UNL     1      -9.969   5.013 -18.494  0.00  0.00    +0.151 C 
BRANCH  10  11
ATOM     11  C   UNL     1      -8.465   4.971 -18.501  0.00  0.00    -0.028 A 
ATOM     12  C   UNL     1      -7.721   6.017 -17.935  0.00  0.00    +0.005 A 
ATOM     13  C   UNL     1      -7.779   3.885 -19.066  0.00  0.00    +0.005 A 
ATOM     14  C   UNL     1      -6.326   5.964 -17.915  0.00  0.00    +0.000 A 
ATOM     15  C   UNL     1      -6.385   3.837 -19.045  0.00  0.00    +0.000 A 
ATOM     16  C   UNL     1      -5.659   4.876 -18.467  0.00  0.00    +0.000 A 
ENDBRANCH  10  11
ENDBRANCH   1  10
TORSDOF 2
ENDMDL
MODEL 6
REMARK VINA RESULT:    -4.593     12.502     14.103
REMARK INTER + INTRA:          -5.242
REMARK INTER:                  -5.123
REMARK INTRA:                  -0.119
REMARK UNBOUND:                -0.111
REMARK  Name = 1550473
REMARK  2 active torsions:
REMARK  status: ('A' for Active; 'I' for Inactive)
REMARK    1  A    between atoms: N_1  and  C_4
REMARK    2  A    between atoms: C_4  and  C_5
REMARK                            x       y       z     vdW  Elec       q    Type
REMARK                         _______ _______ _______ _____ _____    ______ ____
ROOT
ATOM      1  N   UNL     1      -1.385  13.494 -11.395  0.00  0.00    -0.354 N 
ATOM      2  N   UNL     1      -3.026  13.984  -9.835  0.00  0.00    -0.372 N 
ATOM      3  N   UNL     1      -0.824  14.286  -9.262  0.00  0.00    -0.372 N 
ATOM      4  C   UNL     1      -1.732  13.918 -10.173  0.00  0.00    +0.166 C 
ATOM      5  H   UNL     1      -2.120  13.201 -12.029  0.00  0.00    +0.163 HD
ATOM      6  H   UNL     1      -3.318  14.303  -8.921  0.00  0.00    +0.159 HD
ATOM      7  H   UNL     1      -3.760  13.734 -10.487  0.00  0.00    +0.159 HD
ATOM      8  H   UNL     1       0.168  14.254  -9.452  0.00  0.00    +0.159 HD
ATOM      9  H   UNL     1      -1.097  14.597  -8.338  0.00  0.00    +0.159 HD
ENDROOT
BRANCH   1  10
ATOM     10  C   UNL     1      -0.008  13.436 -11.881  0.00  0.00    +0.151 C 
BRANCH  10  11
ATOM     11  C   UNL     1       0.052  12.537 -13.085  0.00  0.00    -0.028 A 
ATOM     12  C   UNL     1       0.933  12.817 -14.139  0.00  0.00    +0.005 A 
ATOM     13  C   UNL     1      -0.766  11.400 -13.174  0.00  0.00    +0.005 A 
ATOM     14  C   UNL     1       1.010  11.966 -15.244  0.00  0.00    +0.000 A 
ATOM     15  C   UNL     1      -0.687  10.553 -14.280  0.00  0.00    +0.000 A 
ATOM     16  C   UNL     1       0.203  10.835 -15.313  0.00  0.00    +0.000 A 
ENDBRANCH  10  11
ENDBRANCH   1  10
TORSDOF 2
ENDMDL
MODEL 7
REMARK VINA RESULT:    -4.546     33.743     35.115
REMARK INTER + INTRA:          -5.189
REMARK INTER:                  -5.066
REMARK INTRA:                  -0.123
REMARK UNBOUND:                -0.111
REMARK  Name = 1550473
REMARK  2 active torsions:
REMARK  status: ('A' for Active; 'I' for Inactive)
REMARK    1  A    between atoms: N_1  and  C_4
REMARK    2  A    between atoms: C_4  and  C_5
REMARK                            x       y       z     vdW  Elec       q    Type
REMARK                         _______ _______ _______ _____ _____    ______ ____
ROOT
ATOM      1  N   UNL     1      11.947   8.673   8.425  0.00  0.00    -0.354 N 
ATOM      2  N   UNL     1      12.263  10.615   7.205  0.00  0.00    -0.372 N 
ATOM      3  N   UNL     1      12.301   8.599   6.110  0.00  0.00    -0.372 N 
ATOM      4  C   UNL     1      12.169   9.281   7.253  0.00  0.00    +0.166 C 
ATOM      5  H   UNL     1      11.886   9.244   9.260  0.00  0.00    +0.163 HD
ATOM      6  H   UNL     1      12.427  11.103   6.334  0.00  0.00    +0.159 HD
ATOM      7  H   UNL     1      12.156  11.187   8.034  0.00  0.00    +0.159 HD
ATOM      8  H   UNL     1      12.246   7.590   6.079  0.00  0.00    +0.159 HD
ATOM      9  H   UNL     1      12.477   9.068   5.230  0.00  0.00    +0.159 HD
ENDROOT
BRANCH   1  10
ATOM     10  C   UNL     1      11.774   7.229   8.578  0.00  0.00    +0.151 C 
BRANCH  10  11
ATOM     11  C   UNL     1      11.586   6.908  10.035  0.00  0.00    -0.028 A 
ATOM     12  C   UNL     1      11.784   7.894  11.012  0.00  0.00    +0.005 A 
ATOM     13  C   UNL     1      11.205   5.620  10.444  0.00  0.00    +0.005 A 
ATOM     14  C   UNL     1      11.580   7.604  12.364  0.00  0.00    +0.000 A 
ATOM     15  C   UNL     1      11.004   5.335  11.794  0.00  0.00    +0.000 A 
ATOM     16  C   UNL     1      11.189   6.327  12.753  0.00  0.00    +0.000 A 
ENDBRANCH  10  11
ENDBRANCH   1  10
TORSDOF 2
ENDMDL
MODEL 8
REMARK VINA RESULT:    -4.537      1.858      2.019
REMARK INTER + INTRA:          -5.179
REMARK INTER:                  -5.040
REMARK INTRA:                  -0.139
REMARK UNBOUND:                -0.111
REMARK  Name = 1550473
REMARK  2 active torsions:
REMARK  status: ('A' for Active; 'I' for Inactive)
REMARK    1  A    between atoms: N_1  and  C_4
REMARK    2  A    between atoms: C_4  and  C_5
REMARK                            x       y       z     vdW  Elec       q    Type
REMARK                         _______ _______ _______ _____ _____    ______ ____
ROOT
ATOM      1  N   UNL     1     -10.453   3.176 -19.560  0.00  0.00    -0.354 N 
ATOM      2  N   UNL     1     -12.706   2.940 -19.078  0.00  0.00    -0.372 N 
ATOM      3  N   UNL     1     -11.335   1.110 -18.894  0.00  0.00    -0.372 N 
ATOM      4  C   UNL     1     -11.483   2.408 -19.180  0.00  0.00    +0.166 C 
ATOM      5  H   UNL     1     -10.636   4.146 -19.793  0.00  0.00    +0.163 HD
ATOM      6  H   UNL     1     -13.501   2.386 -18.790  0.00  0.00    +0.159 HD
ATOM      7  H   UNL     1     -12.878   3.920 -19.266  0.00  0.00    +0.159 HD
ATOM      8  H   UNL     1     -10.438   0.646 -18.957  0.00  0.00    +0.159 HD
ATOM      9  H   UNL     1     -12.121   0.536 -18.616  0.00  0.00    +0.159 HD
ENDROOT
BRANCH   1  10
ATOM     10  C   UNL     1      -9.072   2.707 -19.651  0.00  0.00    +0.151 C 
BRANCH  10  11
ATOM     11  C   UNL     1      -8.158   3.757 -19.083  0.00  0.00    -0.028 A 
ATOM     12  C   UNL     1      -6.765   3.612 -19.170  0.00  0.00    +0.005 A 
ATOM     13  C   UNL     1      -8.678   4.902 -18.461  0.00  0.00    +0.005 A 
ATOM     14  C   UNL     1      -5.916   4.601 -18.669  0.00  0.00    +0.000 A 
ATOM     15  C   UNL     1      -7.826   5.887 -17.961  0.00  0.00    +0.000 A 
ATOM     16  C   UNL     1      -6.446   5.738 -18.067  0.00  0.00    +0.000 A 
ENDBRANCH  10  11
ENDBRANCH   1  10
TORSDOF 2
ENDMDL
MODEL 9
REMARK VINA RESULT:    -4.531     13.736     15.663
REMARK INTER + INTRA:          -5.173
REMARK INTER:                  -4.997
REMARK INTRA:                  -0.176
REMARK UNBOUND:                -0.111
REMARK  Name = 1550473
REMARK  2 active torsions:
REMARK  status: ('A' for Active; 'I' for Inactive)
REMARK    1  A    between atoms: N_1  and  C_4
REMARK    2  A    between atoms: C_4  and  C_5
REMARK                            x       y       z     vdW  Elec       q    Type
REMARK                         _______ _______ _______ _____ _____    ______ ____
ROOT
ATOM      1  N   UNL     1       0.203  12.759 -12.804  0.00  0.00    -0.354 N 
ATOM      2  N   UNL     1      -1.192  11.013 -12.195  0.00  0.00    -0.372 N 
ATOM      3  N   UNL     1      -1.201  12.931 -10.936  0.00  0.00    -0.372 N 
ATOM      4  C   UNL     1      -0.721  12.248 -11.980  0.00  0.00    +0.166 C 
ATOM      5  H   UNL     1       0.548  12.178 -13.560  0.00  0.00    +0.163 HD
ATOM      6  H   UNL     1      -1.892  10.602 -11.593  0.00  0.00    +0.159 HD
ATOM      7  H   UNL     1      -0.879  10.453 -12.979  0.00  0.00    +0.159 HD
ATOM      8  H   UNL     1      -0.883  13.865 -10.715  0.00  0.00    +0.159 HD
ATOM      9  H   UNL     1      -1.894  12.533 -10.315  0.00  0.00    +0.159 HD
ENDROOT
BRANCH   1  10
ATOM     10  C   UNL     1       0.742  14.113 -12.689  0.00  0.00    +0.151 C 
BRANCH  10  11
ATOM     11  C   UNL     1       2.149  14.039 -12.165  0.00  0.00    -0.028 A 
ATOM     12  C   UNL     1       2.428  14.353 -10.826  0.00  0.00    +0.005 A 
ATOM     13  C   UNL     1       3.208  13.650 -13.000  0.00  0.00    +0.005 A 
ATOM     14  C   UNL     1       3.731  14.256 -10.331  0.00  0.00    +0.000 A 
ATOM     15  C   UNL     1       4.507  13.555 -12.502  0.00  0.00    +0.000 A 
ATOM     16  C   UNL     1       4.768  13.855 -11.167  0.00  0.00    +0.000 A 
ENDBRANCH  10  11
ENDBRANCH   1  10
TORSDOF 2
ENDMDL
