MODEL 1
REMARK VINA RESULT:    -5.039      0.000      0.000
REMARK INTER + INTRA:          -5.750
REMARK INTER:                  -5.628
REMARK INTRA:                  -0.122
REMARK UNBOUND:                -0.122
REMARK  Name = 1550473
REMARK  2 active torsions:
REMARK  status: ('A' for Active; 'I' for Inactive)
REMARK    1  A    between atoms: N_1  and  C_4
REMARK    2  A    between atoms: C_4  and  C_5
REMARK                            x       y       z     vdW  Elec       q    Type
REMARK                         _______ _______ _______ _____ _____    ______ ____
ROOT
ATOM      1  N   UNL     1       5.732  -1.551  -7.139  0.00  0.00    -0.354 N 
ATOM      2  N   UNL     1       5.379  -0.428  -5.144  0.00  0.00    -0.372 N 
ATOM      3  N   UNL     1       5.774  -2.688  -5.090  0.00  0.00    -0.372 N 
ATOM      4  C   UNL     1       5.631  -1.566  -5.803  0.00  0.00    +0.166 C 
ATOM      5  H   UNL     1       5.583  -0.674  -7.623  0.00  0.00    +0.163 HD
ATOM      6  H   UNL     1       5.301  -0.407  -4.136  0.00  0.00    +0.159 HD
ATOM      7  H   UNL     1       5.277   0.456  -5.628  0.00  0.00    +0.159 HD
ATOM      8  H   UNL     1       5.959  -3.580  -5.527  0.00  0.00    +0.159 HD
ATOM      9  H   UNL     1       5.688  -2.689  -4.081  0.00  0.00    +0.159 HD
ENDROOT
BRANCH   1  10
ATOM     10  C   UNL     1       6.057  -2.726  -7.947  0.00  0.00    +0.151 C 
BRANCH  10  11
ATOM     11  C   UNL     1       5.840  -2.398  -9.398  0.00  0.00    -0.028 A 
ATOM     12  C   UNL     1       5.783  -3.420 -10.358  0.00  0.00    +0.005 A 
ATOM     13  C   UNL     1       5.686  -1.069  -9.820  0.00  0.00    +0.005 A 
ATOM     14  C   UNL     1       5.551  -3.118 -11.702  0.00  0.00    +0.000 A 
ATOM     15  C   UNL     1       5.456  -0.772 -11.164  0.00  0.00    +0.000 A 
ATOM     16  C   UNL     1       5.386  -1.797 -12.104  0.00  0.00    +0.000 A 
ENDBRANCH  10  11
ENDBRANCH   1  10
TORSDOF 2
ENDMDL
MODEL 2
REMARK VINA RESULT:    -4.889     23.200     24.797
REMARK INTER + INTRA:          -5.582
REMARK INTER:                  -5.491
REMARK INTRA:                  -0.091
REMARK UNBOUND:                -0.122
REMARK  Name = 1550473
REMARK  2 active torsions:
REMARK  status: ('A' for Active; 'I' for Inactive)
REMARK    1  A    between atoms: N_1  and  C_4
REMARK    2  A    between atoms: C_4  and  C_5
REMARK                            x       y       z     vdW  Elec       q    Type
REMARK                         _______ _______ _______ _____ _____    ______ ____
ROOT
ATOM      1  N   UNL     1      12.248   2.819  13.397  0.00  0.00    -0.354 N 
ATOM      2  N   UNL     1       9.982   2.962  12.942  0.00  0.00    -0.372 N 
ATOM      3  N   UNL     1      10.780   1.106  14.030  0.00  0.00    -0.372 N 
ATOM      4  C   UNL     1      11.018   2.292  13.460  0.00  0.00    +0.166 C 
ATOM      5  H   UNL     1      12.367   3.708  12.925  0.00  0.00    +0.163 HD
ATOM      6  H   UNL     1       9.042   2.591  12.978  0.00  0.00    +0.159 HD
ATOM      7  H   UNL     1      10.097   3.871  12.511  0.00  0.00    +0.159 HD
ATOM      8  H   UNL     1      11.520   0.548  14.435  0.00  0.00    +0.159 HD
ATOM      9  H   UNL     1       9.848   0.713  14.065  0.00  0.00    +0.159 HD
ENDROOT
BRANCH   1  10
ATOM     10  C   UNL     1      13.436   2.196  13.978  0.00  0.00    +0.151 C 
BRANCH  10  11
ATOM     11  C   UNL     1      14.559   3.195  13.990  0.00  0.00    -0.028 A 
ATOM     12  C   UNL     1      14.857   3.919  15.154  0.00  0.00    +0.005 A 
ATOM     13  C   UNL     1      15.334   3.419  12.842  0.00  0.00    +0.005 A 
ATOM     14  C   UNL     1      15.919   4.826  15.174  0.00  0.00    +0.000 A 
ATOM     15  C   UNL     1      16.394   4.326  12.865  0.00  0.00    +0.000 A 
ATOM     16  C   UNL     1      16.688   5.027  14.032  0.00  0.00    +0.000 A 
ENDBRANCH  10  11
ENDBRANCH   1  10
TORSDOF 2
ENDMDL
MODEL 3
REMARK VINA RESULT:    -4.887      2.686      4.471
REMARK INTER + INTRA:          -5.580
REMARK INTER:                  -5.445
REMARK INTRA:                  -0.135
REMARK UNBOUND:                -0.122
REMARK  Name = 1550473
REMARK  2 active torsions:
REMARK  status: ('A' for Active; 'I' for Inactive)
REMARK    1  A    between atoms: N_1  and  C_4
REMARK    2  A    between atoms: C_4  and  C_5
REMARK                            x       y       z     vdW  Elec       q    Type
REMARK                         _______ _______ _______ _____ _____    ______ ____
ROOT
ATOM      1  N   UNL     1       4.662  -0.796  -9.861  0.00  0.00    -0.354 N 
ATOM      2  N   UNL     1       3.333   0.427 -11.310  0.00  0.00    -0.372 N 
ATOM      3  N   UNL     1       5.578   0.248 -11.748  0.00  0.00    -0.372 N 
ATOM      4  C   UNL     1       4.535  -0.048 -10.965  0.00  0.00    +0.166 C 
ATOM      5  H   UNL     1       3.839  -0.960  -9.293  0.00  0.00    +0.163 HD
ATOM      6  H   UNL     1       3.206   0.992 -12.139  0.00  0.00    +0.159 HD
ATOM      7  H   UNL     1       2.503   0.224 -10.766  0.00  0.00    +0.159 HD
ATOM      8  H   UNL     1       6.513  -0.074 -11.540  0.00  0.00    +0.159 HD
ATOM      9  H   UNL     1       5.473   0.822 -12.576  0.00  0.00    +0.159 HD
ENDROOT
BRANCH   1  10
ATOM     10  C   UNL     1       5.918  -1.406  -9.426  0.00  0.00    +0.151 C 
BRANCH  10  11
ATOM     11  C   UNL     1       5.685  -2.866  -9.149  0.00  0.00    -0.028 A 
ATOM     12  C   UNL     1       5.620  -3.339  -7.831  0.00  0.00    +0.005 A 
ATOM     13  C   UNL     1       5.522  -3.780 -10.202  0.00  0.00    +0.005 A 
ATOM     14  C   UNL     1       5.374  -4.690  -7.573  0.00  0.00    +0.000 A 
ATOM     15  C   UNL     1       5.278  -5.128  -9.940  0.00  0.00    +0.000 A 
ATOM     16  C   UNL     1       5.201  -5.582  -8.626  0.00  0.00    +0.000 A 
ENDBRANCH  10  11
ENDBRANCH   1  10
TORSDOF 2
ENDMDL
MODEL 4
REMARK VINA RESULT:    -4.833     11.944     13.104
REMARK INTER + INTRA:          -5.520
REMARK INTER:                  -5.372
REMARK INTRA:                  -0.148
REMARK UNBOUND:                -0.122
REMARK  Name = 1550473
REMARK  2 active torsions:
REMARK  status: ('A' for Active; 'I' for Inactive)
REMARK    1  A    between atoms: N_1  and  C_4
REMARK    2  A    between atoms: C_4  and  C_5
REMARK                            x       y       z     vdW  Elec       q    Type
REMARK                         _______ _______ _______ _____ _____    ______ ____
ROOT
ATOM      1  N   UNL     1      -0.124  -5.790   1.516  0.00  0.00    -0.354 N 
ATOM      2  N   UNL     1       1.822  -4.562   1.249  0.00  0.00    -0.372 N 
ATOM      3  N   UNL     1       0.328  -3.935   2.874  0.00  0.00    -0.372 N 
ATOM      4  C   UNL     1       0.662  -4.769   1.883  0.00  0.00    +0.166 C 
ATOM      5  H   UNL     1       0.171  -6.368   0.737  0.00  0.00    +0.163 HD
ATOM      6  H   UNL     1       2.437  -3.801   1.507  0.00  0.00    +0.159 HD
ATOM      7  H   UNL     1       2.136  -5.169   0.502  0.00  0.00    +0.159 HD
ATOM      8  H   UNL     1      -0.537  -4.033   3.389  0.00  0.00    +0.159 HD
ATOM      9  H   UNL     1       0.925  -3.161   3.139  0.00  0.00    +0.159 HD
ENDROOT
BRANCH   1  10
ATOM     10  C   UNL     1      -1.381  -6.134   2.177  0.00  0.00    +0.151 C 
BRANCH  10  11
ATOM     11  C   UNL     1      -2.499  -6.062   1.174  0.00  0.00    -0.028 A 
ATOM     12  C   UNL     1      -2.221  -5.936  -0.195  0.00  0.00    +0.005 A 
ATOM     13  C   UNL     1      -3.839  -6.125   1.586  0.00  0.00    +0.005 A 
ATOM     14  C   UNL     1      -3.258  -5.899  -1.130  0.00  0.00    +0.000 A 
ATOM     15  C   UNL     1      -4.872  -6.087   0.649  0.00  0.00    +0.000 A 
ATOM     16  C   UNL     1      -4.582  -5.977  -0.708  0.00  0.00    +0.000 A 
ENDBRANCH  10  11
ENDBRANCH   1  10
TORSDOF 2
ENDMDL
MODEL 5
REMARK VINA RESULT:    -4.745      1.593      2.264
REMARK INTER + INTRA:          -5.421
REMARK INTER:                  -5.255
REMARK INTRA:                  -0.167
REMARK UNBOUND:                -0.122
REMARK  Name = 1550473
REMARK  2 active torsions:
REMARK  status: ('A' for Active; 'I' for Inactive)
REMARK    1  A    between atoms: N_1  and  C_4
REMARK    2  A    between atoms: C_4  and  C_5
REMARK                            x       y       z     vdW  Elec       q    Type
REMARK                         _______ _______ _______ _____ _____    ______ ____
ROOT
ATOM      1  N   UNL     1       6.722  -2.294  -6.803  0.00  0.00    -0.354 N 
ATOM      2  N   UNL     1       5.378  -0.918  -5.513  0.00  0.00    -0.372 N 
ATOM      3  N   UNL     1       5.232  -3.191  -5.232  0.00  0.00    -0.372 N 
ATOM      4  C   UNL     1       5.786  -2.146  -5.857  0.00  0.00    +0.166 C 
ATOM      5  H   UNL     1       7.081  -1.464  -7.260  0.00  0.00    +0.163 HD
ATOM      6  H   UNL     1       4.675  -0.775  -4.800  0.00  0.00    +0.159 HD
ATOM      7  H   UNL     1       5.771  -0.088  -5.939  0.00  0.00    +0.159 HD
ATOM      8  H   UNL     1       5.492  -4.144  -5.450  0.00  0.00    +0.159 HD
ATOM      9  H   UNL     1       4.519  -3.069  -4.524  0.00  0.00    +0.159 HD
ENDROOT
BRANCH   1  10
ATOM     10  C   UNL     1       7.274  -3.585  -7.212  0.00  0.00    +0.151 C 
BRANCH  10  11
ATOM     11  C   UNL     1       6.518  -4.082  -8.414  0.00  0.00    -0.028 A 
ATOM     12  C   UNL     1       6.010  -5.389  -8.444  0.00  0.00    +0.005 A 
ATOM     13  C   UNL     1       6.303  -3.250  -9.523  0.00  0.00    +0.005 A 
ATOM     14  C   UNL     1       5.282  -5.842  -9.547  0.00  0.00    +0.000 A 
ATOM     15  C   UNL     1       5.576  -3.706 -10.623  0.00  0.00    +0.000 A 
ATOM     16  C   UNL     1       5.064  -5.001 -10.633  0.00  0.00    +0.000 A 
ENDBRANCH  10  11
ENDBRANCH   1  10
TORSDOF 2
ENDMDL
MODEL 6
REMARK VINA RESULT:    -4.672     12.874     13.896
REMARK INTER + INTRA:          -5.340
REMARK INTER:                  -5.197
REMARK INTRA:                  -0.143
REMARK UNBOUND:                -0.122
REMARK  Name = 1550473
REMARK  2 active torsions:
REMARK  status: ('A' for Active; 'I' for Inactive)
REMARK    1  A    between atoms: N_1  and  C_4
REMARK    2  A    between atoms: C_4  and  C_5
REMARK                            x       y       z     vdW  Elec       q    Type
REMARK                         _______ _______ _______ _____ _____    ______ ____
ROOT
ATOM      1  N   UNL     1       4.918  -3.987   5.641  0.00  0.00    -0.354 N 
ATOM      2  N   UNL     1       5.580  -4.802   7.705  0.00  0.00    -0.372 N 
ATOM      3  N   UNL     1       5.809  -6.144   5.858  0.00  0.00    -0.372 N 
ATOM      4  C   UNL     1       5.432  -4.975   6.386  0.00  0.00    +0.166 C 
ATOM      5  H   UNL     1       4.623  -3.137   6.106  0.00  0.00    +0.163 HD
ATOM      6  H   UNL     1       5.968  -5.528   8.293  0.00  0.00    +0.159 HD
ATOM      7  H   UNL     1       5.327  -3.933   8.160  0.00  0.00    +0.159 HD
ATOM      8  H   UNL     1       5.718  -6.340   4.870  0.00  0.00    +0.159 HD
ATOM      9  H   UNL     1       6.189  -6.887   6.431  0.00  0.00    +0.159 HD
ENDROOT
BRANCH   1  10
ATOM     10  C   UNL     1       4.765  -4.054   4.188  0.00  0.00    +0.151 C 
BRANCH  10  11
ATOM     11  C   UNL     1       3.350  -3.694   3.827  0.00  0.00    -0.028 A 
ATOM     12  C   UNL     1       3.079  -2.540   3.077  0.00  0.00    +0.005 A 
ATOM     13  C   UNL     1       2.277  -4.505   4.226  0.00  0.00    +0.005 A 
ATOM     14  C   UNL     1       1.768  -2.221   2.715  0.00  0.00    +0.000 A 
ATOM     15  C   UNL     1       0.969  -4.182   3.863  0.00  0.00    +0.000 A 
ATOM     16  C   UNL     1       0.716  -3.042   3.106  0.00  0.00    +0.000 A 
ENDBRANCH  10  11
ENDBRANCH   1  10
TORSDOF 2
ENDMDL
MODEL 7
REMARK VINA RESULT:    -4.550      2.251      3.408
REMARK INTER + INTRA:          -5.203
REMARK INTER:                  -5.133
REMARK INTRA:                  -0.070
REMARK UNBOUND:                -0.122
REMARK  Name = 1550473
REMARK  2 active torsions:
REMARK  status: ('A' for Active; 'I' for Inactive)
REMARK    1  A    between atoms: N_1  and  C_4
REMARK    2  A    between atoms: C_4  and  C_5
REMARK                            x       y       z     vdW  Elec       q    Type
REMARK                         _______ _______ _______ _____ _____    ______ ____
ROOT
ATOM      1  N   UNL     1       4.810  -3.339  -7.011  0.00  0.00    -0.354 N 
ATOM      2  N   UNL     1       5.694  -2.926  -4.911  0.00  0.00    -0.372 N 
ATOM      3  N   UNL     1       6.792  -2.116  -6.756  0.00  0.00    -0.372 N 
ATOM      4  C   UNL     1       5.762  -2.795  -6.241  0.00  0.00    +0.166 C 
ATOM      5  H   UNL     1       4.071  -3.868  -6.562  0.00  0.00    +0.163 HD
ATOM      6  H   UNL     1       6.396  -2.523  -4.304  0.00  0.00    +0.159 HD
ATOM      7  H   UNL     1       4.930  -3.415  -4.462  0.00  0.00    +0.159 HD
ATOM      8  H   UNL     1       6.904  -1.986  -7.752  0.00  0.00    +0.159 HD
ATOM      9  H   UNL     1       7.511  -1.715  -6.166  0.00  0.00    +0.159 HD
ENDROOT
BRANCH   1  10
ATOM     10  C   UNL     1       4.762  -3.209  -8.466  0.00  0.00    +0.151 C 
BRANCH  10  11
ATOM     11  C   UNL     1       5.181  -4.512  -9.090  0.00  0.00    -0.028 A 
ATOM     12  C   UNL     1       5.110  -4.691 -10.479  0.00  0.00    +0.005 A 
ATOM     13  C   UNL     1       5.654  -5.569  -8.298  0.00  0.00    +0.005 A 
ATOM     14  C   UNL     1       5.527  -5.890 -11.062  0.00  0.00    +0.000 A 
ATOM     15  C   UNL     1       6.069  -6.765  -8.884  0.00  0.00    +0.000 A 
ATOM     16  C   UNL     1       6.008  -6.924 -10.266  0.00  0.00    +0.000 A 
ENDBRANCH  10  11
ENDBRANCH   1  10
TORSDOF 2
ENDMDL
MODEL 8
REMARK VINA RESULT:    -4.495     13.442     15.074
REMARK INTER + INTRA:          -5.142
REMARK INTER:                  -5.008
REMARK INTRA:                  -0.134
REMARK UNBOUND:                -0.122
REMARK  Name = 1550473
REMARK  2 active torsions:
REMARK  status: ('A' for Active; 'I' for Inactive)
REMARK    1  A    between atoms: N_1  and  C_4
REMARK    2  A    between atoms: C_4  and  C_5
REMARK                            x       y       z     vdW  Elec       q    Type
REMARK                         _______ _______ _______ _____ _____    ______ ____
ROOT
ATOM      1  N   UNL     1       4.710  -5.223   7.077  0.00  0.00    -0.354 N 
ATOM      2  N   UNL     1       6.099  -5.274   8.930  0.00  0.00    -0.372 N 
ATOM      3  N   UNL     1       3.827  -5.287   9.247  0.00  0.00    -0.372 N 
ATOM      4  C   UNL     1       4.867  -5.261   8.407  0.00  0.00    +0.166 C 
ATOM      5  H   UNL     1       5.539  -5.174   6.496  0.00  0.00    +0.163 HD
ATOM      6  H   UNL     1       6.249  -5.306   9.929  0.00  0.00    +0.159 HD
ATOM      7  H   UNL     1       6.926  -5.271   8.345  0.00  0.00    +0.159 HD
ATOM      8  H   UNL     1       2.871  -5.273   8.916  0.00  0.00    +0.159 HD
ATOM      9  H   UNL     1       3.956  -5.307  10.251  0.00  0.00    +0.159 HD
ENDROOT
BRANCH   1  10
ATOM     10  C   UNL     1       3.412  -5.259   6.406  0.00  0.00    +0.151 C 
BRANCH  10  11
ATOM     11  C   UNL     1       3.391  -4.218   5.321  0.00  0.00    -0.028 A 
ATOM     12  C   UNL     1       4.587  -3.756   4.754  0.00  0.00    +0.005 A 
ATOM     13  C   UNL     1       2.177  -3.694   4.851  0.00  0.00    +0.005 A 
ATOM     14  C   UNL     1       4.567  -2.811   3.725  0.00  0.00    +0.000 A 
ATOM     15  C   UNL     1       2.160  -2.750   3.824  0.00  0.00    +0.000 A 
ATOM     16  C   UNL     1       3.355  -2.311   3.260  0.00  0.00    +0.000 A 
ENDBRANCH  10  11
ENDBRANCH   1  10
TORSDOF 2
ENDMDL
MODEL 9
REMARK VINA RESULT:    -4.453     13.503     15.092
REMARK INTER + INTRA:          -5.095
REMARK INTER:                  -4.997
REMARK INTRA:                  -0.098
REMARK UNBOUND:                -0.122
REMARK  Name = 1550473
REMARK  2 active torsions:
REMARK  status: ('A' for Active; 'I' for Inactive)
REMARK    1  A    between atoms: N_1  and  C_4
REMARK    2  A    between atoms: C_4  and  C_5
REMARK                            x       y       z     vdW  Elec       q    Type
REMARK                         _______ _______ _______ _____ _____    ______ ____
ROOT
ATOM      1  N   UNL     1       1.136  -4.878   6.913  0.00  0.00    -0.354 N 
ATOM      2  N   UNL     1       0.419  -4.971   9.114  0.00  0.00    -0.372 N 
ATOM      3  N   UNL     1      -0.582  -6.333   7.562  0.00  0.00    -0.372 N 
ATOM      4  C   UNL     1       0.327  -5.395   7.848  0.00  0.00    +0.166 C 
ATOM      5  H   UNL     1       1.783  -4.148   7.188  0.00  0.00    +0.163 HD
ATOM      6  H   UNL     1      -0.175  -5.346   9.841  0.00  0.00    +0.159 HD
ATOM      7  H   UNL     1       1.099  -4.275   9.394  0.00  0.00    +0.159 HD
ATOM      8  H   UNL     1      -0.706  -6.691   6.625  0.00  0.00    +0.159 HD
ATOM      9  H   UNL     1      -1.194  -6.712   8.274  0.00  0.00    +0.159 HD
ENDROOT
BRANCH   1  10
ATOM     10  C   UNL     1       1.153  -5.309   5.517  0.00  0.00    +0.151 C 
BRANCH  10  11
ATOM     11  C   UNL     1       1.726  -4.207   4.669  0.00  0.00    -0.028 A 
ATOM     12  C   UNL     1       3.059  -3.801   4.836  0.00  0.00    +0.005 A 
ATOM     13  C   UNL     1       0.945  -3.568   3.694  0.00  0.00    +0.005 A 
ATOM     14  C   UNL     1       3.601  -2.798   4.029  0.00  0.00    +0.000 A 
ATOM     15  C   UNL     1       1.490  -2.567   2.891  0.00  0.00    +0.000 A 
ATOM     16  C   UNL     1       2.818  -2.184   3.057  0.00  0.00    +0.000 A 
ENDBRANCH  10  11
ENDBRANCH   1  10
TORSDOF 2
ENDMDL
