MODEL 1
REMARK VINA RESULT:    -4.756      0.000      0.000
REMARK INTER + INTRA:          -5.489
REMARK INTER:                  -5.312
REMARK INTRA:                  -0.176
REMARK UNBOUND:                -0.176
REMARK  Name = 1550473
REMARK  2 active torsions:
REMARK  status: ('A' for Active; 'I' for Inactive)
REMARK    1  A    between atoms: N_1  and  C_4
REMARK    2  A    between atoms: C_4  and  C_5
REMARK                            x       y       z     vdW  Elec       q    Type
REMARK                         _______ _______ _______ _____ _____    ______ ____
ROOT
ATOM      1  N   UNL     1      10.164   3.239   5.526  0.00  0.00    -0.354 N 
ATOM      2  N   UNL     1       8.446   4.717   5.044  0.00  0.00    -0.372 N 
ATOM      3  N   UNL     1       9.450   3.583   3.320  0.00  0.00    -0.372 N 
ATOM      4  C   UNL     1       9.365   3.836   4.631  0.00  0.00    +0.166 C 
ATOM      5  H   UNL     1      10.069   3.497   6.502  0.00  0.00    +0.163 HD
ATOM      6  H   UNL     1       7.827   5.180   4.392  0.00  0.00    +0.159 HD
ATOM      7  H   UNL     1       8.323   4.938   6.025  0.00  0.00    +0.159 HD
ATOM      8  H   UNL     1      10.127   2.933   2.943  0.00  0.00    +0.159 HD
ATOM      9  H   UNL     1       8.848   4.046   2.651  0.00  0.00    +0.159 HD
ENDROOT
BRANCH   1  10
ATOM     10  C   UNL     1      11.160   2.226   5.185  0.00  0.00    +0.151 C 
BRANCH  10  11
ATOM     11  C   UNL     1      10.549   0.861   5.347  0.00  0.00    -0.028 A 
ATOM     12  C   UNL     1       9.975   0.479   6.569  0.00  0.00    +0.005 A 
ATOM     13  C   UNL     1      10.535  -0.052   4.282  0.00  0.00    +0.005 A 
ATOM     14  C   UNL     1       9.380  -0.777   6.711  0.00  0.00    +0.000 A 
ATOM     15  C   UNL     1       9.941  -1.305   4.428  0.00  0.00    +0.000 A 
ATOM     16  C   UNL     1       9.361  -1.666   5.641  0.00  0.00    +0.000 A 
ENDBRANCH  10  11
ENDBRANCH   1  10
TORSDOF 2
ENDMDL
MODEL 2
REMARK VINA RESULT:    -4.555      7.765     10.246
REMARK INTER + INTRA:          -5.264
REMARK INTER:                  -5.122
REMARK INTRA:                  -0.142
REMARK UNBOUND:                -0.176
REMARK  Name = 1550473
REMARK  2 active torsions:
REMARK  status: ('A' for Active; 'I' for Inactive)
REMARK    1  A    between atoms: N_1  and  C_4
REMARK    2  A    between atoms: C_4  and  C_5
REMARK                            x       y       z     vdW  Elec       q    Type
REMARK                         _______ _______ _______ _____ _____    ______ ____
ROOT
ATOM      1  N   UNL     1       8.469   7.692  -0.622  0.00  0.00    -0.354 N 
ATOM      2  N   UNL     1       9.524   7.155   1.368  0.00  0.00    -0.372 N 
ATOM      3  N   UNL     1       9.913   5.852  -0.480  0.00  0.00    -0.372 N 
ATOM      4  C   UNL     1       9.296   6.901   0.074  0.00  0.00    +0.166 C 
ATOM      5  H   UNL     1       8.009   8.453  -0.136  0.00  0.00    +0.163 HD
ATOM      6  H   UNL     1      10.146   6.577   1.918  0.00  0.00    +0.159 HD
ATOM      7  H   UNL     1       9.099   7.943   1.840  0.00  0.00    +0.159 HD
ATOM      8  H   UNL     1       9.778   5.603  -1.451  0.00  0.00    +0.159 HD
ATOM      9  H   UNL     1      10.530   5.255   0.057  0.00  0.00    +0.159 HD
ENDROOT
BRANCH   1  10
ATOM     10  C   UNL     1       8.194   7.534  -2.049  0.00  0.00    +0.151 C 
BRANCH  10  11
ATOM     11  C   UNL     1       6.710   7.616  -2.276  0.00  0.00    -0.028 A 
ATOM     12  C   UNL     1       6.186   7.588  -3.576  0.00  0.00    +0.005 A 
ATOM     13  C   UNL     1       5.822   7.716  -1.194  0.00  0.00    +0.005 A 
ATOM     14  C   UNL     1       4.805   7.634  -3.786  0.00  0.00    +0.000 A 
ATOM     15  C   UNL     1       4.444   7.762  -1.407  0.00  0.00    +0.000 A 
ATOM     16  C   UNL     1       3.936   7.719  -2.703  0.00  0.00    +0.000 A 
ENDBRANCH  10  11
ENDBRANCH   1  10
TORSDOF 2
ENDMDL
MODEL 3
REMARK VINA RESULT:    -4.543     11.188     12.797
REMARK INTER + INTRA:          -5.251
REMARK INTER:                  -5.120
REMARK INTRA:                  -0.131
REMARK UNBOUND:                -0.176
REMARK  Name = 1550473
REMARK  2 active torsions:
REMARK  status: ('A' for Active; 'I' for Inactive)
REMARK    1  A    between atoms: N_1  and  C_4
REMARK    2  A    between atoms: C_4  and  C_5
REMARK                            x       y       z     vdW  Elec       q    Type
REMARK                         _______ _______ _______ _____ _____    ______ ____
ROOT
ATOM      1  N   UNL     1       2.893  -8.430  10.594  0.00  0.00    -0.354 N 
ATOM      2  N   UNL     1       3.723 -10.454  11.355  0.00  0.00    -0.372 N 
ATOM      3  N   UNL     1       2.141  -9.363  12.608  0.00  0.00    -0.372 N 
ATOM      4  C   UNL     1       2.912  -9.402  11.516  0.00  0.00    +0.166 C 
ATOM      5  H   UNL     1       3.523  -8.504   9.804  0.00  0.00    +0.163 HD
ATOM      6  H   UNL     1       3.757 -11.204  12.032  0.00  0.00    +0.159 HD
ATOM      7  H   UNL     1       4.319 -10.548  10.541  0.00  0.00    +0.159 HD
ATOM      8  H   UNL     1       1.512  -8.593  12.792  0.00  0.00    +0.159 HD
ATOM      9  H   UNL     1       2.170 -10.098  13.304  0.00  0.00    +0.159 HD
ENDROOT
BRANCH   1  10
ATOM     10  C   UNL     1       2.007  -7.269  10.649  0.00  0.00    +0.151 C 
BRANCH  10  11
ATOM     11  C   UNL     1       2.666  -6.115   9.944  0.00  0.00    -0.028 A 
ATOM     12  C   UNL     1       4.027  -6.169   9.610  0.00  0.00    +0.005 A 
ATOM     13  C   UNL     1       1.934  -4.968   9.603  0.00  0.00    +0.005 A 
ATOM     14  C   UNL     1       4.633  -5.110   8.929  0.00  0.00    +0.000 A 
ATOM     15  C   UNL     1       2.543  -3.912   8.924  0.00  0.00    +0.000 A 
ATOM     16  C   UNL     1       3.891  -3.985   8.585  0.00  0.00    +0.000 A 
ENDBRANCH  10  11
ENDBRANCH   1  10
TORSDOF 2
ENDMDL
MODEL 4
REMARK VINA RESULT:    -4.300      1.259      2.092
REMARK INTER + INTRA:          -4.979
REMARK INTER:                  -4.876
REMARK INTRA:                  -0.103
REMARK UNBOUND:                -0.176
REMARK  Name = 1550473
REMARK  2 active torsions:
REMARK  status: ('A' for Active; 'I' for Inactive)
REMARK    1  A    between atoms: N_1  and  C_4
REMARK    2  A    between atoms: C_4  and  C_5
REMARK                            x       y       z     vdW  Elec       q    Type
REMARK                         _______ _______ _______ _____ _____    ______ ____
ROOT
ATOM      1  N   UNL     1      10.432   2.900   3.813  0.00  0.00    -0.354 N 
ATOM      2  N   UNL     1      10.129   4.526   2.192  0.00  0.00    -0.372 N 
ATOM      3  N   UNL     1      11.657   4.897   3.863  0.00  0.00    -0.372 N 
ATOM      4  C   UNL     1      10.743   4.099   3.302  0.00  0.00    +0.166 C 
ATOM      5  H   UNL     1       9.708   2.356   3.358  0.00  0.00    +0.163 HD
ATOM      6  H   UNL     1      10.345   5.424   1.781  0.00  0.00    +0.159 HD
ATOM      7  H   UNL     1       9.439   3.960   1.713  0.00  0.00    +0.159 HD
ATOM      8  H   UNL     1      12.152   4.636   4.705  0.00  0.00    +0.159 HD
ATOM      9  H   UNL     1      11.879   5.805   3.473  0.00  0.00    +0.159 HD
ENDROOT
BRANCH   1  10
ATOM     10  C   UNL     1      11.081   2.319   4.987  0.00  0.00    +0.151 C 
BRANCH  10  11
ATOM     11  C   UNL     1      10.494   0.959   5.250  0.00  0.00    -0.028 A 
ATOM     12  C   UNL     1      10.471  -0.013   4.239  0.00  0.00    +0.005 A 
ATOM     13  C   UNL     1       9.966   0.635   6.509  0.00  0.00    +0.005 A 
ATOM     14  C   UNL     1       9.954  -1.286   4.491  0.00  0.00    +0.000 A 
ATOM     15  C   UNL     1       9.450  -0.637   6.756  0.00  0.00    +0.000 A 
ATOM     16  C   UNL     1       9.446  -1.598   5.748  0.00  0.00    +0.000 A 
ENDBRANCH  10  11
ENDBRANCH   1  10
TORSDOF 2
ENDMDL
MODEL 5
REMARK VINA RESULT:    -4.221     56.244     57.289
REMARK INTER + INTRA:          -4.891
REMARK INTER:                  -4.761
REMARK INTRA:                  -0.130
REMARK UNBOUND:                -0.176
REMARK  Name = 1550473
REMARK  2 active torsions:
REMARK  status: ('A' for Active; 'I' for Inactive)
REMARK    1  A    between atoms: N_1  and  C_4
REMARK    2  A    between atoms: C_4  and  C_5
REMARK                            x       y       z     vdW  Elec       q    Type
REMARK                         _______ _______ _______ _____ _____    ______ ____
ROOT
ATOM      1  N   UNL     1     -19.428   1.829 -42.995  0.00  0.00    -0.354 N 
ATOM      2  N   UNL     1     -19.020   0.885 -40.920  0.00  0.00    -0.372 N 
ATOM      3  N   UNL     1     -19.094   3.171 -41.103  0.00  0.00    -0.372 N 
ATOM      4  C   UNL     1     -19.183   1.971 -41.686  0.00  0.00    +0.166 C 
ATOM      5  H   UNL     1     -19.453   0.892 -43.381  0.00  0.00    +0.163 HD
ATOM      6  H   UNL     1     -18.838   0.961 -39.928  0.00  0.00    +0.159 HD
ATOM      7  H   UNL     1     -19.092  -0.051 -41.300  0.00  0.00    +0.159 HD
ATOM      8  H   UNL     1     -19.201   4.030 -41.627  0.00  0.00    +0.159 HD
ATOM      9  H   UNL     1     -18.900   3.268 -40.114  0.00  0.00    +0.159 HD
ENDROOT
BRANCH   1  10
ATOM     10  C   UNL     1     -19.674   2.945 -43.906  0.00  0.00    +0.151 C 
BRANCH  10  11
ATOM     11  C   UNL     1     -18.841   2.761 -45.145  0.00  0.00    -0.028 A 
ATOM     12  C   UNL     1     -18.302   3.871 -45.812  0.00  0.00    +0.005 A 
ATOM     13  C   UNL     1     -18.581   1.479 -45.652  0.00  0.00    +0.005 A 
ATOM     14  C   UNL     1     -17.503   3.699 -46.945  0.00  0.00    +0.000 A 
ATOM     15  C   UNL     1     -17.783   1.311 -46.784  0.00  0.00    +0.000 A 
ATOM     16  C   UNL     1     -17.243   2.421 -47.429  0.00  0.00    +0.000 A 
ENDBRANCH  10  11
ENDBRANCH   1  10
TORSDOF 2
ENDMDL
MODEL 6
REMARK VINA RESULT:    -4.122      2.678      4.313
REMARK INTER + INTRA:          -4.780
REMARK INTER:                  -4.616
REMARK INTRA:                  -0.164
REMARK UNBOUND:                -0.176
REMARK  Name = 1550473
REMARK  2 active torsions:
REMARK  status: ('A' for Active; 'I' for Inactive)
REMARK    1  A    between atoms: N_1  and  C_4
REMARK    2  A    between atoms: C_4  and  C_5
REMARK                            x       y       z     vdW  Elec       q    Type
REMARK                         _______ _______ _______ _____ _____    ______ ____
ROOT
ATOM      1  N   UNL     1       9.662   0.257   7.031  0.00  0.00    -0.354 N 
ATOM      2  N   UNL     1       8.169  -1.500   7.248  0.00  0.00    -0.372 N 
ATOM      3  N   UNL     1       9.915  -1.704   5.774  0.00  0.00    -0.372 N 
ATOM      4  C   UNL     1       9.260  -0.972   6.681  0.00  0.00    +0.166 C 
ATOM      5  H   UNL     1       9.104   0.773   7.702  0.00  0.00    +0.163 HD
ATOM      6  H   UNL     1       7.844  -2.426   7.007  0.00  0.00    +0.159 HD
ATOM      7  H   UNL     1       7.640  -1.001   7.953  0.00  0.00    +0.159 HD
ATOM      8  H   UNL     1      10.743  -1.361   5.305  0.00  0.00    +0.159 HD
ATOM      9  H   UNL     1       9.599  -2.629   5.510  0.00  0.00    +0.159 HD
ENDROOT
BRANCH   1  10
ATOM     10  C   UNL     1      10.867   0.902   6.512  0.00  0.00    +0.151 C 
BRANCH  10  11
ATOM     11  C   UNL     1      10.491   1.790   5.358  0.00  0.00    -0.028 A 
ATOM     12  C   UNL     1       9.910   3.046   5.586  0.00  0.00    +0.005 A 
ATOM     13  C   UNL     1      10.718   1.383   4.034  0.00  0.00    +0.005 A 
ATOM     14  C   UNL     1       9.588   3.884   4.515  0.00  0.00    +0.000 A 
ATOM     15  C   UNL     1      10.394   2.222   2.968  0.00  0.00    +0.000 A 
ATOM     16  C   UNL     1       9.832   3.473   3.209  0.00  0.00    +0.000 A 
ENDBRANCH  10  11
ENDBRANCH   1  10
TORSDOF 2
ENDMDL
MODEL 7
REMARK VINA RESULT:    -3.977     58.344     59.423
REMARK INTER + INTRA:          -4.618
REMARK INTER:                  -4.459
REMARK INTRA:                  -0.159
REMARK UNBOUND:                -0.176
REMARK  Name = 1550473
REMARK  2 active torsions:
REMARK  status: ('A' for Active; 'I' for Inactive)
REMARK    1  A    between atoms: N_1  and  C_4
REMARK    2  A    between atoms: C_4  and  C_5
REMARK                            x       y       z     vdW  Elec       q    Type
REMARK                         _______ _______ _______ _____ _____    ______ ____
ROOT
ATOM      1  N   UNL     1     -18.800   0.247 -47.172  0.00  0.00    -0.354 N 
ATOM      2  N   UNL     1     -20.539  -1.013 -48.040  0.00  0.00    -0.372 N 
ATOM      3  N   UNL     1     -19.612   0.640 -49.335  0.00  0.00    -0.372 N 
ATOM      4  C   UNL     1     -19.638  -0.032 -48.179  0.00  0.00    +0.166 C 
ATOM      5  H   UNL     1     -18.891  -0.278 -46.310  0.00  0.00    +0.163 HD
ATOM      6  H   UNL     1     -21.182  -1.248 -48.784  0.00  0.00    +0.159 HD
ATOM      7  H   UNL     1     -20.597  -1.567 -47.195  0.00  0.00    +0.159 HD
ATOM      8  H   UNL     1     -18.960   1.395 -49.500  0.00  0.00    +0.159 HD
ATOM      9  H   UNL     1     -20.255   0.427 -50.086  0.00  0.00    +0.159 HD
ENDROOT
BRANCH   1  10
ATOM     10  C   UNL     1     -17.747   1.259 -47.240  0.00  0.00    +0.151 C 
BRANCH  10  11
ATOM     11  C   UNL     1     -18.142   2.437 -46.393  0.00  0.00    -0.028 A 
ATOM     12  C   UNL     1     -17.740   3.734 -46.744  0.00  0.00    +0.005 A 
ATOM     13  C   UNL     1     -18.924   2.263 -45.240  0.00  0.00    +0.005 A 
ATOM     14  C   UNL     1     -18.132   4.831 -45.973  0.00  0.00    +0.000 A 
ATOM     15  C   UNL     1     -19.312   3.361 -44.473  0.00  0.00    +0.000 A 
ATOM     16  C   UNL     1     -18.918   4.645 -44.841  0.00  0.00    +0.000 A 
ENDBRANCH  10  11
ENDBRANCH   1  10
TORSDOF 2
ENDMDL
MODEL 8
REMARK VINA RESULT:    -3.930     14.930     16.318
REMARK INTER + INTRA:          -4.566
REMARK INTER:                  -4.446
REMARK INTRA:                  -0.120
REMARK UNBOUND:                -0.176
REMARK  Name = 1550473
REMARK  2 active torsions:
REMARK  status: ('A' for Active; 'I' for Inactive)
REMARK    1  A    between atoms: N_1  and  C_4
REMARK    2  A    between atoms: C_4  and  C_5
REMARK                            x       y       z     vdW  Elec       q    Type
REMARK                         _______ _______ _______ _____ _____    ______ ____
ROOT
ATOM      1  N   UNL     1       3.964   4.568 -10.105  0.00  0.00    -0.354 N 
ATOM      2  N   UNL     1       5.411   2.771 -10.303  0.00  0.00    -0.372 N 
ATOM      3  N   UNL     1       3.343   2.431  -9.370  0.00  0.00    -0.372 N 
ATOM      4  C   UNL     1       4.228   3.267  -9.923  0.00  0.00    +0.166 C 
ATOM      5  H   UNL     1       4.688   5.155 -10.502  0.00  0.00    +0.163 HD
ATOM      6  H   UNL     1       5.638   1.793 -10.182  0.00  0.00    +0.159 HD
ATOM      7  H   UNL     1       6.116   3.350 -10.742  0.00  0.00    +0.159 HD
ATOM      8  H   UNL     1       2.434   2.744  -9.057  0.00  0.00    +0.159 HD
ATOM      9  H   UNL     1       3.555   1.451  -9.230  0.00  0.00    +0.159 HD
ENDROOT
BRANCH   1  10
ATOM     10  C   UNL     1       2.686   5.196  -9.776  0.00  0.00    +0.151 C 
BRANCH  10  11
ATOM     11  C   UNL     1       2.880   6.118  -8.603  0.00  0.00    -0.028 A 
ATOM     12  C   UNL     1       3.413   5.636  -7.399  0.00  0.00    +0.005 A 
ATOM     13  C   UNL     1       2.538   7.476  -8.693  0.00  0.00    +0.005 A 
ATOM     14  C   UNL     1       3.621   6.498  -6.320  0.00  0.00    +0.000 A 
ATOM     15  C   UNL     1       2.747   8.334  -7.612  0.00  0.00    +0.000 A 
ATOM     16  C   UNL     1       3.291   7.845  -6.427  0.00  0.00    +0.000 A 
ENDBRANCH  10  11
ENDBRANCH   1  10
TORSDOF 2
ENDMDL
MODEL 9
REMARK VINA RESULT:    -3.918     15.557     16.490
REMARK INTER + INTRA:          -4.552
REMARK INTER:                  -4.428
REMARK INTRA:                  -0.125
REMARK UNBOUND:                -0.176
REMARK  Name = 1550473
REMARK  2 active torsions:
REMARK  status: ('A' for Active; 'I' for Inactive)
REMARK    1  A    between atoms: N_1  and  C_4
REMARK    2  A    between atoms: C_4  and  C_5
REMARK                            x       y       z     vdW  Elec       q    Type
REMARK                         _______ _______ _______ _____ _____    ______ ____
ROOT
ATOM      1  N   UNL     1       7.914 -11.806  -4.973  0.00  0.00    -0.354 N 
ATOM      2  N   UNL     1       6.662 -10.274  -6.177  0.00  0.00    -0.372 N 
ATOM      3  N   UNL     1       5.658 -12.210  -5.464  0.00  0.00    -0.372 N 
ATOM      4  C   UNL     1       6.751 -11.442  -5.530  0.00  0.00    +0.166 C 
ATOM      5  H   UNL     1       8.713 -11.194  -5.084  0.00  0.00    +0.163 HD
ATOM      6  H   UNL     1       5.797  -9.971  -6.605  0.00  0.00    +0.159 HD
ATOM      7  H   UNL     1       7.451  -9.643  -6.247  0.00  0.00    +0.159 HD
ATOM      8  H   UNL     1       5.661 -13.106  -4.995  0.00  0.00    +0.159 HD
ATOM      9  H   UNL     1       4.786 -11.930  -5.896  0.00  0.00    +0.159 HD
ENDROOT
BRANCH   1  10
ATOM     10  C   UNL     1       8.102 -13.033  -4.200  0.00  0.00    +0.151 C 
BRANCH  10  11
ATOM     11  C   UNL     1       9.201 -12.818  -3.196  0.00  0.00    -0.028 A 
ATOM     12  C   UNL     1       9.333 -13.671  -2.091  0.00  0.00    +0.005 A 
ATOM     13  C   UNL     1      10.117 -11.765  -3.348  0.00  0.00    +0.005 A 
ATOM     14  C   UNL     1      10.371 -13.489  -1.175  0.00  0.00    +0.000 A 
ATOM     15  C   UNL     1      11.152 -11.587  -2.431  0.00  0.00    +0.000 A 
ATOM     16  C   UNL     1      11.280 -12.451  -1.345  0.00  0.00    +0.000 A 
ENDBRANCH  10  11
ENDBRANCH   1  10
TORSDOF 2
ENDMDL
