MODEL 1
REMARK VINA RESULT:    -5.137      0.000      0.000
REMARK INTER + INTRA:          -5.864
REMARK INTER:                  -5.738
REMARK INTRA:                  -0.127
REMARK UNBOUND:                -0.127
REMARK  Name = 1550473
REMARK  2 active torsions:
REMARK  status: ('A' for Active; 'I' for Inactive)
REMARK    1  A    between atoms: N_1  and  C_4
REMARK    2  A    between atoms: C_4  and  C_5
REMARK                            x       y       z     vdW  Elec       q    Type
REMARK                         _______ _______ _______ _____ _____    ______ ____
ROOT
ATOM      1  N   UNL     1      -0.262   3.944 -10.218  0.00  0.00    -0.354 N 
ATOM      2  N   UNL     1      -0.878   3.802  -7.990  0.00  0.00    -0.372 N 
ATOM      3  N   UNL     1       1.081   4.865  -8.533  0.00  0.00    -0.372 N 
ATOM      4  C   UNL     1      -0.013   4.206  -8.928  0.00  0.00    +0.166 C 
ATOM      5  H   UNL     1      -1.094   3.414 -10.449  0.00  0.00    +0.163 HD
ATOM      6  H   UNL     1      -0.719   3.988  -7.009  0.00  0.00    +0.159 HD
ATOM      7  H   UNL     1      -1.732   3.313  -8.228  0.00  0.00    +0.159 HD
ATOM      8  H   UNL     1       1.776   5.191  -9.191  0.00  0.00    +0.159 HD
ATOM      9  H   UNL     1       1.264   5.051  -7.555  0.00  0.00    +0.159 HD
ENDROOT
BRANCH   1  10
ATOM     10  C   UNL     1       0.589   4.386 -11.321  0.00  0.00    +0.151 C 
BRANCH  10  11
ATOM     11  C   UNL     1       0.662   3.295 -12.353  0.00  0.00    -0.028 A 
ATOM     12  C   UNL     1       1.794   3.163 -13.171  0.00  0.00    +0.005 A 
ATOM     13  C   UNL     1      -0.395   2.386 -12.514  0.00  0.00    +0.005 A 
ATOM     14  C   UNL     1       1.875   2.131 -14.109  0.00  0.00    +0.000 A 
ATOM     15  C   UNL     1      -0.311   1.357 -13.453  0.00  0.00    +0.000 A 
ATOM     16  C   UNL     1       0.825   1.229 -14.248  0.00  0.00    +0.000 A 
ENDBRANCH  10  11
ENDBRANCH   1  10
TORSDOF 2
ENDMDL
MODEL 2
REMARK VINA RESULT:    -5.052      2.113      3.140
REMARK INTER + INTRA:          -5.770
REMARK INTER:                  -5.642
REMARK INTRA:                  -0.127
REMARK UNBOUND:                -0.127
REMARK  Name = 1550473
REMARK  2 active torsions:
REMARK  status: ('A' for Active; 'I' for Inactive)
REMARK    1  A    between atoms: N_1  and  C_4
REMARK    2  A    between atoms: C_4  and  C_5
REMARK                            x       y       z     vdW  Elec       q    Type
REMARK                         _______ _______ _______ _____ _____    ______ ____
ROOT
ATOM      1  N   UNL     1       1.443   6.322  -9.874  0.00  0.00    -0.354 N 
ATOM      2  N   UNL     1       1.748   8.490  -9.118  0.00  0.00    -0.372 N 
ATOM      3  N   UNL     1      -0.347   7.561  -9.005  0.00  0.00    -0.372 N 
ATOM      4  C   UNL     1       0.943   7.443  -9.337  0.00  0.00    +0.166 C 
ATOM      5  H   UNL     1       2.423   6.307 -10.131  0.00  0.00    +0.163 HD
ATOM      6  H   UNL     1       1.400   9.348  -8.711  0.00  0.00    +0.159 HD
ATOM      7  H   UNL     1       2.737   8.456  -9.334  0.00  0.00    +0.159 HD
ATOM      8  H   UNL     1      -1.008   6.809  -9.151  0.00  0.00    +0.159 HD
ATOM      9  H   UNL     1      -0.717   8.415  -8.608  0.00  0.00    +0.159 HD
ENDROOT
BRANCH   1  10
ATOM     10  C   UNL     1       0.663   5.107 -10.103  0.00  0.00    +0.151 C 
BRANCH  10  11
ATOM     11  C   UNL     1       1.214   4.389 -11.304  0.00  0.00    -0.028 A 
ATOM     12  C   UNL     1       0.450   3.416 -11.965  0.00  0.00    +0.005 A 
ATOM     13  C   UNL     1       2.498   4.681 -11.790  0.00  0.00    +0.005 A 
ATOM     14  C   UNL     1       0.949   2.770 -13.098  0.00  0.00    +0.000 A 
ATOM     15  C   UNL     1       2.993   4.034 -12.922  0.00  0.00    +0.000 A 
ATOM     16  C   UNL     1       2.218   3.080 -13.577  0.00  0.00    +0.000 A 
ENDBRANCH  10  11
ENDBRANCH   1  10
TORSDOF 2
ENDMDL
MODEL 3
REMARK VINA RESULT:    -4.908      1.367      2.416
REMARK INTER + INTRA:          -5.608
REMARK INTER:                  -5.458
REMARK INTRA:                  -0.150
REMARK UNBOUND:                -0.127
REMARK  Name = 1550473
REMARK  2 active torsions:
REMARK  status: ('A' for Active; 'I' for Inactive)
REMARK    1  A    between atoms: N_1  and  C_4
REMARK    2  A    between atoms: C_4  and  C_5
REMARK                            x       y       z     vdW  Elec       q    Type
REMARK                         _______ _______ _______ _____ _____    ______ ____
ROOT
ATOM      1  N   UNL     1      -1.474   3.896  -9.829  0.00  0.00    -0.354 N 
ATOM      2  N   UNL     1      -2.783   2.534  -8.490  0.00  0.00    -0.372 N 
ATOM      3  N   UNL     1      -0.869   3.443  -7.611  0.00  0.00    -0.372 N 
ATOM      4  C   UNL     1      -1.698   3.301  -8.650  0.00  0.00    +0.166 C 
ATOM      5  H   UNL     1      -2.124   3.724 -10.587  0.00  0.00    +0.163 HD
ATOM      6  H   UNL     1      -2.981   2.075  -7.611  0.00  0.00    +0.159 HD
ATOM      7  H   UNL     1      -3.456   2.401  -9.235  0.00  0.00    +0.159 HD
ATOM      8  H   UNL     1      -0.029   4.004  -7.669  0.00  0.00    +0.159 HD
ATOM      9  H   UNL     1      -1.043   2.982  -6.726  0.00  0.00    +0.159 HD
ENDROOT
BRANCH   1  10
ATOM     10  C   UNL     1      -0.350   4.794 -10.091  0.00  0.00    +0.151 C 
BRANCH  10  11
ATOM     11  C   UNL     1       0.502   4.209 -11.184  0.00  0.00    -0.028 A 
ATOM     12  C   UNL     1      -0.001   3.196 -12.013  0.00  0.00    +0.005 A 
ATOM     13  C   UNL     1       1.810   4.668 -11.398  0.00  0.00    +0.005 A 
ATOM     14  C   UNL     1       0.779   2.673 -13.047  0.00  0.00    +0.000 A 
ATOM     15  C   UNL     1       2.586   4.143 -12.431  0.00  0.00    +0.000 A 
ATOM     16  C   UNL     1       2.070   3.147 -13.257  0.00  0.00    +0.000 A 
ENDBRANCH  10  11
ENDBRANCH   1  10
TORSDOF 2
ENDMDL
MODEL 4
REMARK VINA RESULT:    -4.832      7.652      9.130
REMARK INTER + INTRA:          -5.524
REMARK INTER:                  -5.425
REMARK INTRA:                  -0.098
REMARK UNBOUND:                -0.127
REMARK  Name = 1550473
REMARK  2 active torsions:
REMARK  status: ('A' for Active; 'I' for Inactive)
REMARK    1  A    between atoms: N_1  and  C_4
REMARK    2  A    between atoms: C_4  and  C_5
REMARK                            x       y       z     vdW  Elec       q    Type
REMARK                         _______ _______ _______ _____ _____    ______ ____
ROOT
ATOM      1  N   UNL     1      -6.398   0.977  -4.549  0.00  0.00    -0.354 N 
ATOM      2  N   UNL     1      -7.043   1.775  -2.472  0.00  0.00    -0.372 N 
ATOM      3  N   UNL     1      -8.082   2.594  -4.347  0.00  0.00    -0.372 N 
ATOM      4  C   UNL     1      -7.172   1.779  -3.804  0.00  0.00    +0.166 C 
ATOM      5  H   UNL     1      -5.706   0.405  -4.079  0.00  0.00    +0.163 HD
ATOM      6  H   UNL     1      -7.616   2.366  -1.884  0.00  0.00    +0.159 HD
ATOM      7  H   UNL     1      -6.383   1.168  -2.002  0.00  0.00    +0.159 HD
ATOM      8  H   UNL     1      -8.224   2.649  -5.346  0.00  0.00    +0.159 HD
ATOM      9  H   UNL     1      -8.657   3.202  -3.776  0.00  0.00    +0.159 HD
ENDROOT
BRANCH   1  10
ATOM     10  C   UNL     1      -6.496   0.867  -6.003  0.00  0.00    +0.151 C 
BRANCH  10  11
ATOM     11  C   UNL     1      -5.418  -0.058  -6.499  0.00  0.00    -0.028 A 
ATOM     12  C   UNL     1      -5.384  -1.397  -6.086  0.00  0.00    +0.005 A 
ATOM     13  C   UNL     1      -4.432   0.399  -7.386  0.00  0.00    +0.005 A 
ATOM     14  C   UNL     1      -4.400  -2.264  -6.569  0.00  0.00    +0.000 A 
ATOM     15  C   UNL     1      -3.451  -0.469  -7.866  0.00  0.00    +0.000 A 
ATOM     16  C   UNL     1      -3.437  -1.801  -7.460  0.00  0.00    +0.000 A 
ENDBRANCH  10  11
ENDBRANCH   1  10
TORSDOF 2
ENDMDL
MODEL 5
REMARK VINA RESULT:    -4.780     27.618     28.165
REMARK INTER + INTRA:          -5.466
REMARK INTER:                  -5.336
REMARK INTRA:                  -0.130
REMARK UNBOUND:                -0.127
REMARK  Name = 1550473
REMARK  2 active torsions:
REMARK  status: ('A' for Active; 'I' for Inactive)
REMARK    1  A    between atoms: N_1  and  C_4
REMARK    2  A    between atoms: C_4  and  C_5
REMARK                            x       y       z     vdW  Elec       q    Type
REMARK                         _______ _______ _______ _____ _____    ______ ____
ROOT
ATOM      1  N   UNL     1      -4.493 -14.832  10.154  0.00  0.00    -0.354 N 
ATOM      2  N   UNL     1      -3.856 -12.666  10.669  0.00  0.00    -0.372 N 
ATOM      3  N   UNL     1      -2.455 -13.960   9.393  0.00  0.00    -0.372 N 
ATOM      4  C   UNL     1      -3.603 -13.834  10.067  0.00  0.00    +0.166 C 
ATOM      5  H   UNL     1      -5.330 -14.683  10.705  0.00  0.00    +0.163 HD
ATOM      6  H   UNL     1      -3.205 -11.894  10.619  0.00  0.00    +0.159 HD
ATOM      7  H   UNL     1      -4.714 -12.505  11.182  0.00  0.00    +0.159 HD
ATOM      8  H   UNL     1      -2.202 -14.818   8.921  0.00  0.00    +0.159 HD
ATOM      9  H   UNL     1      -1.786 -13.202   9.341  0.00  0.00    +0.159 HD
ENDROOT
BRANCH   1  10
ATOM     10  C   UNL     1      -4.339 -16.125   9.490  0.00  0.00    +0.151 C 
BRANCH  10  11
ATOM     11  C   UNL     1      -5.455 -16.304   8.498  0.00  0.00    -0.028 A 
ATOM     12  C   UNL     1      -6.422 -15.304   8.326  0.00  0.00    +0.005 A 
ATOM     13  C   UNL     1      -5.546 -17.470   7.722  0.00  0.00    +0.005 A 
ATOM     14  C   UNL     1      -7.442 -15.457   7.383  0.00  0.00    +0.000 A 
ATOM     15  C   UNL     1      -6.566 -17.620   6.783  0.00  0.00    +0.000 A 
ATOM     16  C   UNL     1      -7.512 -16.612   6.612  0.00  0.00    +0.000 A 
ENDBRANCH  10  11
ENDBRANCH   1  10
TORSDOF 2
ENDMDL
MODEL 6
REMARK VINA RESULT:    -4.705     25.848     28.159
REMARK INTER + INTRA:          -5.382
REMARK INTER:                  -5.207
REMARK INTRA:                  -0.174
REMARK UNBOUND:                -0.127
REMARK  Name = 1550473
REMARK  2 active torsions:
REMARK  status: ('A' for Active; 'I' for Inactive)
REMARK    1  A    between atoms: N_1  and  C_4
REMARK    2  A    between atoms: C_4  and  C_5
REMARK                            x       y       z     vdW  Elec       q    Type
REMARK                         _______ _______ _______ _____ _____    ______ ____
ROOT
ATOM      1  N   UNL     1     -10.491  -7.795   9.755  0.00  0.00    -0.354 N 
ATOM      2  N   UNL     1     -10.085  -7.361   7.517  0.00  0.00    -0.372 N 
ATOM      3  N   UNL     1     -10.356  -9.537   8.193  0.00  0.00    -0.372 N 
ATOM      4  C   UNL     1     -10.313  -8.237   8.503  0.00  0.00    +0.166 C 
ATOM      5  H   UNL     1     -10.417  -6.800   9.930  0.00  0.00    +0.163 HD
ATOM      6  H   UNL     1      -9.951  -7.664   6.562  0.00  0.00    +0.159 HD
ATOM      7  H   UNL     1     -10.058  -6.363   7.687  0.00  0.00    +0.159 HD
ATOM      8  H   UNL     1     -10.518 -10.249   8.892  0.00  0.00    +0.159 HD
ATOM      9  H   UNL     1     -10.212  -9.860   7.244  0.00  0.00    +0.159 HD
ENDROOT
BRANCH   1  10
ATOM     10  C   UNL     1     -10.798  -8.662  10.892  0.00  0.00    +0.151 C 
BRANCH  10  11
ATOM     11  C   UNL     1     -12.236  -8.465  11.285  0.00  0.00    -0.028 A 
ATOM     12  C   UNL     1     -12.581  -7.541  12.282  0.00  0.00    +0.005 A 
ATOM     13  C   UNL     1     -13.259  -9.195  10.660  0.00  0.00    +0.005 A 
ATOM     14  C   UNL     1     -13.920  -7.336  12.627  0.00  0.00    +0.000 A 
ATOM     15  C   UNL     1     -14.594  -8.988  11.008  0.00  0.00    +0.000 A 
ATOM     16  C   UNL     1     -14.924  -8.056  11.989  0.00  0.00    +0.000 A 
ENDBRANCH  10  11
ENDBRANCH   1  10
TORSDOF 2
ENDMDL
MODEL 7
REMARK VINA RESULT:    -4.588      4.659      5.845
REMARK INTER + INTRA:          -5.251
REMARK INTER:                  -5.119
REMARK INTRA:                  -0.131
REMARK UNBOUND:                -0.127
REMARK  Name = 1550473
REMARK  2 active torsions:
REMARK  status: ('A' for Active; 'I' for Inactive)
REMARK    1  A    between atoms: N_1  and  C_4
REMARK    2  A    between atoms: C_4  and  C_5
REMARK                            x       y       z     vdW  Elec       q    Type
REMARK                         _______ _______ _______ _____ _____    ______ ____
ROOT
ATOM      1  N   UNL     1      -3.183   1.465  -7.911  0.00  0.00    -0.354 N 
ATOM      2  N   UNL     1      -3.148  -0.580  -6.824  0.00  0.00    -0.372 N 
ATOM      3  N   UNL     1      -4.946   0.812  -6.512  0.00  0.00    -0.372 N 
ATOM      4  C   UNL     1      -3.761   0.580  -7.088  0.00  0.00    +0.166 C 
ATOM      5  H   UNL     1      -2.270   1.242  -8.292  0.00  0.00    +0.163 HD
ATOM      6  H   UNL     1      -3.562  -1.268  -6.209  0.00  0.00    +0.159 HD
ATOM      7  H   UNL     1      -2.257  -0.819  -7.242  0.00  0.00    +0.159 HD
ATOM      8  H   UNL     1      -5.457   1.671  -6.666  0.00  0.00    +0.159 HD
ATOM      9  H   UNL     1      -5.371   0.140  -5.885  0.00  0.00    +0.159 HD
ENDROOT
BRANCH   1  10
ATOM     10  C   UNL     1      -3.791   2.733  -8.307  0.00  0.00    +0.151 C 
BRANCH  10  11
ATOM     11  C   UNL     1      -2.704   3.735  -8.584  0.00  0.00    -0.028 A 
ATOM     12  C   UNL     1      -1.356   3.384  -8.424  0.00  0.00    +0.005 A 
ATOM     13  C   UNL     1      -3.016   5.034  -9.013  0.00  0.00    +0.005 A 
ATOM     14  C   UNL     1      -0.344   4.304  -8.710  0.00  0.00    +0.000 A 
ATOM     15  C   UNL     1      -2.003   5.950  -9.297  0.00  0.00    +0.000 A 
ATOM     16  C   UNL     1      -0.668   5.584  -9.148  0.00  0.00    +0.000 A 
ENDBRANCH  10  11
ENDBRANCH   1  10
TORSDOF 2
ENDMDL
MODEL 8
REMARK VINA RESULT:    -4.541     31.569     32.642
REMARK INTER + INTRA:          -5.199
REMARK INTER:                  -5.067
REMARK INTRA:                  -0.132
REMARK UNBOUND:                -0.127
REMARK  Name = 1550473
REMARK  2 active torsions:
REMARK  status: ('A' for Active; 'I' for Inactive)
REMARK    1  A    between atoms: N_1  and  C_4
REMARK    2  A    between atoms: C_4  and  C_5
REMARK                            x       y       z     vdW  Elec       q    Type
REMARK                         _______ _______ _______ _____ _____    ______ ____
ROOT
ATOM      1  N   UNL     1      11.700 -15.878  11.128  0.00  0.00    -0.354 N 
ATOM      2  N   UNL     1      13.182 -14.101  11.214  0.00  0.00    -0.372 N 
ATOM      3  N   UNL     1      11.881 -14.370   9.343  0.00  0.00    -0.372 N 
ATOM      4  C   UNL     1      12.244 -14.794  10.558  0.00  0.00    +0.166 C 
ATOM      5  H   UNL     1      12.040 -16.165  12.038  0.00  0.00    +0.163 HD
ATOM      6  H   UNL     1      13.608 -13.277  10.811  0.00  0.00    +0.159 HD
ATOM      7  H   UNL     1      13.487 -14.363  12.143  0.00  0.00    +0.159 HD
ATOM      8  H   UNL     1      11.183 -14.853   8.794  0.00  0.00    +0.159 HD
ATOM      9  H   UNL     1      12.304 -13.555   8.918  0.00  0.00    +0.159 HD
ENDROOT
BRANCH   1  10
ATOM     10  C   UNL     1      10.633 -16.672  10.521  0.00  0.00    +0.151 C 
BRANCH  10  11
ATOM     11  C   UNL     1      10.780 -18.105  10.954  0.00  0.00    -0.028 A 
ATOM     12  C   UNL     1       9.714 -19.005  10.811  0.00  0.00    +0.005 A 
ATOM     13  C   UNL     1      11.985 -18.570  11.502  0.00  0.00    +0.005 A 
ATOM     14  C   UNL     1       9.860 -20.343  11.185  0.00  0.00    +0.000 A 
ATOM     15  C   UNL     1      12.127 -19.907  11.876  0.00  0.00    +0.000 A 
ATOM     16  C   UNL     1      11.065 -20.793  11.714  0.00  0.00    +0.000 A 
ENDBRANCH  10  11
ENDBRANCH   1  10
TORSDOF 2
ENDMDL
MODEL 9
REMARK VINA RESULT:    -4.421      4.431      5.518
REMARK INTER + INTRA:          -5.064
REMARK INTER:                  -4.887
REMARK INTRA:                  -0.177
REMARK UNBOUND:                -0.127
REMARK  Name = 1550473
REMARK  2 active torsions:
REMARK  status: ('A' for Active; 'I' for Inactive)
REMARK    1  A    between atoms: N_1  and  C_4
REMARK    2  A    between atoms: C_4  and  C_5
REMARK                            x       y       z     vdW  Elec       q    Type
REMARK                         _______ _______ _______ _____ _____    ______ ____
ROOT
ATOM      1  N   UNL     1      -0.642   0.508 -15.326  0.00  0.00    -0.354 N 
ATOM      2  N   UNL     1      -1.986  -1.245 -14.629  0.00  0.00    -0.372 N 
ATOM      3  N   UNL     1      -0.720  -0.132 -13.073  0.00  0.00    -0.372 N 
ATOM      4  C   UNL     1      -1.106  -0.278 -14.345  0.00  0.00    +0.166 C 
ATOM      5  H   UNL     1      -0.950   0.326 -16.274  0.00  0.00    +0.163 HD
ATOM      6  H   UNL     1      -2.356  -1.851 -13.909  0.00  0.00    +0.159 HD
ATOM      7  H   UNL     1      -2.327  -1.395 -15.571  0.00  0.00    +0.159 HD
ATOM      8  H   UNL     1      -0.054   0.576 -12.793  0.00  0.00    +0.159 HD
ATOM      9  H   UNL     1      -1.071  -0.736 -12.340  0.00  0.00    +0.159 HD
ENDROOT
BRANCH   1  10
ATOM     10  C   UNL     1       0.278   1.624 -15.114  0.00  0.00    +0.151 C 
BRANCH  10  11
ATOM     11  C   UNL     1       1.643   1.238 -15.611  0.00  0.00    -0.028 A 
ATOM     12  C   UNL     1       2.646   0.851 -14.710  0.00  0.00    +0.005 A 
ATOM     13  C   UNL     1       1.938   1.250 -16.983  0.00  0.00    +0.005 A 
ATOM     14  C   UNL     1       3.905   0.463 -15.174  0.00  0.00    +0.000 A 
ATOM     15  C   UNL     1       3.197   0.863 -17.442  0.00  0.00    +0.000 A 
ATOM     16  C   UNL     1       4.180   0.467 -16.538  0.00  0.00    +0.000 A 
ENDBRANCH  10  11
ENDBRANCH   1  10
TORSDOF 2
ENDMDL
