MODEL 1
REMARK VINA RESULT:    -5.775      0.000      0.000
REMARK INTER + INTRA:          -6.557
REMARK INTER:                  -6.451
REMARK INTRA:                  -0.107
REMARK UNBOUND:                -0.107
REMARK  Name = 1550473
REMARK  2 active torsions:
REMARK  status: ('A' for Active; 'I' for Inactive)
REMARK    1  A    between atoms: N_1  and  C_4
REMARK    2  A    between atoms: C_4  and  C_5
REMARK                            x       y       z     vdW  Elec       q    Type
REMARK                         _______ _______ _______ _____ _____    ______ ____
ROOT
ATOM      1  N   UNL     1      -2.335   3.752   3.299  0.00  0.00    -0.354 N 
ATOM      2  N   UNL     1      -4.385   2.674   3.276  0.00  0.00    -0.372 N 
ATOM      3  N   UNL     1      -3.830   3.965   5.091  0.00  0.00    -0.372 N 
ATOM      4  C   UNL     1      -3.504   3.472   3.891  0.00  0.00    +0.166 C 
ATOM      5  H   UNL     1      -2.135   3.323   2.403  0.00  0.00    +0.163 HD
ATOM      6  H   UNL     1      -5.276   2.448   3.697  0.00  0.00    +0.159 HD
ATOM      7  H   UNL     1      -4.202   2.283   2.360  0.00  0.00    +0.159 HD
ATOM      8  H   UNL     1      -3.206   4.568   5.610  0.00  0.00    +0.159 HD
ATOM      9  H   UNL     1      -4.713   3.740   5.534  0.00  0.00    +0.159 HD
ENDROOT
BRANCH   1  10
ATOM     10  C   UNL     1      -1.329   4.652   3.859  0.00  0.00    +0.151 C 
BRANCH  10  11
ATOM     11  C   UNL     1       0.038   4.077   3.610  0.00  0.00    -0.028 A 
ATOM     12  C   UNL     1       0.574   4.052   2.314  0.00  0.00    +0.005 A 
ATOM     13  C   UNL     1       0.805   3.561   4.666  0.00  0.00    +0.005 A 
ATOM     14  C   UNL     1       1.856   3.546   2.086  0.00  0.00    +0.000 A 
ATOM     15  C   UNL     1       2.084   3.055   4.434  0.00  0.00    +0.000 A 
ATOM     16  C   UNL     1       2.610   3.050   3.145  0.00  0.00    +0.000 A 
ENDBRANCH  10  11
ENDBRANCH   1  10
TORSDOF 2
ENDMDL
MODEL 2
REMARK VINA RESULT:    -5.583     13.661     14.853
REMARK INTER + INTRA:          -6.342
REMARK INTER:                  -6.209
REMARK INTRA:                  -0.133
REMARK UNBOUND:                -0.107
REMARK  Name = 1550473
REMARK  2 active torsions:
REMARK  status: ('A' for Active; 'I' for Inactive)
REMARK    1  A    between atoms: N_1  and  C_4
REMARK    2  A    between atoms: C_4  and  C_5
REMARK                            x       y       z     vdW  Elec       q    Type
REMARK                         _______ _______ _______ _____ _____    ______ ____
ROOT
ATOM      1  N   UNL     1       4.752  12.478  -6.813  0.00  0.00    -0.354 N 
ATOM      2  N   UNL     1       4.810  14.776  -6.533  0.00  0.00    -0.372 N 
ATOM      3  N   UNL     1       4.973  13.913  -8.653  0.00  0.00    -0.372 N 
ATOM      4  C   UNL     1       4.845  13.707  -7.338  0.00  0.00    +0.166 C 
ATOM      5  H   UNL     1       4.688  12.388  -5.806  0.00  0.00    +0.163 HD
ATOM      6  H   UNL     1       4.874  15.716  -6.900  0.00  0.00    +0.159 HD
ATOM      7  H   UNL     1       4.699  14.685  -5.531  0.00  0.00    +0.159 HD
ATOM      8  H   UNL     1       5.011  13.148  -9.313  0.00  0.00    +0.159 HD
ATOM      9  H   UNL     1       5.050  14.846  -9.038  0.00  0.00    +0.159 HD
ENDROOT
BRANCH   1  10
ATOM     10  C   UNL     1       4.726  11.250  -7.607  0.00  0.00    +0.151 C 
BRANCH  10  11
ATOM     11  C   UNL     1       5.791  10.316  -7.102  0.00  0.00    -0.028 A 
ATOM     12  C   UNL     1       6.588   9.592  -8.001  0.00  0.00    +0.005 A 
ATOM     13  C   UNL     1       6.013  10.156  -5.726  0.00  0.00    +0.005 A 
ATOM     14  C   UNL     1       7.597   8.747  -7.533  0.00  0.00    +0.000 A 
ATOM     15  C   UNL     1       7.022   9.311  -5.263  0.00  0.00    +0.000 A 
ATOM     16  C   UNL     1       7.815   8.609  -6.167  0.00  0.00    +0.000 A 
ENDBRANCH  10  11
ENDBRANCH   1  10
TORSDOF 2
ENDMDL
MODEL 3
REMARK VINA RESULT:    -5.453     14.195     15.757
REMARK INTER + INTRA:          -6.197
REMARK INTER:                  -6.055
REMARK INTRA:                  -0.142
REMARK UNBOUND:                -0.107
REMARK  Name = 1550473
REMARK  2 active torsions:
REMARK  status: ('A' for Active; 'I' for Inactive)
REMARK    1  A    between atoms: N_1  and  C_4
REMARK    2  A    between atoms: C_4  and  C_5
REMARK                            x       y       z     vdW  Elec       q    Type
REMARK                         _______ _______ _______ _____ _____    ______ ____
ROOT
ATOM      1  N   UNL     1       6.913   9.695  -6.360  0.00  0.00    -0.354 N 
ATOM      2  N   UNL     1       8.558   8.167  -5.790  0.00  0.00    -0.372 N 
ATOM      3  N   UNL     1       7.056   7.618  -7.435  0.00  0.00    -0.372 N 
ATOM      4  C   UNL     1       7.497   8.502  -6.534  0.00  0.00    +0.166 C 
ATOM      5  H   UNL     1       7.277  10.308  -5.639  0.00  0.00    +0.163 HD
ATOM      6  H   UNL     1       9.021   7.275  -5.901  0.00  0.00    +0.159 HD
ATOM      7  H   UNL     1       8.947   8.800  -5.102  0.00  0.00    +0.159 HD
ATOM      8  H   UNL     1       6.256   7.807  -8.024  0.00  0.00    +0.159 HD
ATOM      9  H   UNL     1       7.499   6.715  -7.553  0.00  0.00    +0.159 HD
ENDROOT
BRANCH   1  10
ATOM     10  C   UNL     1       5.786  10.178  -7.156  0.00  0.00    +0.151 C 
BRANCH  10  11
ATOM     11  C   UNL     1       6.117  11.541  -7.700  0.00  0.00    -0.028 A 
ATOM     12  C   UNL     1       5.355  12.097  -8.738  0.00  0.00    +0.005 A 
ATOM     13  C   UNL     1       7.188  12.283  -7.177  0.00  0.00    +0.005 A 
ATOM     14  C   UNL     1       5.643  13.375  -9.223  0.00  0.00    +0.000 A 
ATOM     15  C   UNL     1       7.472  13.558  -7.665  0.00  0.00    +0.000 A 
ATOM     16  C   UNL     1       6.699  14.105  -8.686  0.00  0.00    +0.000 A 
ENDBRANCH  10  11
ENDBRANCH   1  10
TORSDOF 2
ENDMDL
MODEL 4
REMARK VINA RESULT:    -5.287     29.507     30.684
REMARK INTER + INTRA:          -6.012
REMARK INTER:                  -5.891
REMARK INTRA:                  -0.121
REMARK UNBOUND:                -0.107
REMARK  Name = 1550473
REMARK  2 active torsions:
REMARK  status: ('A' for Active; 'I' for Inactive)
REMARK    1  A    between atoms: N_1  and  C_4
REMARK    2  A    between atoms: C_4  and  C_5
REMARK                            x       y       z     vdW  Elec       q    Type
REMARK                         _______ _______ _______ _____ _____    ______ ____
ROOT
ATOM      1  N   UNL     1       5.034   5.827  32.399  0.00  0.00    -0.354 N 
ATOM      2  N   UNL     1       4.144   4.084  31.161  0.00  0.00    -0.372 N 
ATOM      3  N   UNL     1       5.080   5.864  30.056  0.00  0.00    -0.372 N 
ATOM      4  C   UNL     1       4.759   5.272  31.211  0.00  0.00    +0.166 C 
ATOM      5  H   UNL     1       4.738   5.341  33.238  0.00  0.00    +0.163 HD
ATOM      6  H   UNL     1       3.926   3.639  30.279  0.00  0.00    +0.159 HD
ATOM      7  H   UNL     1       3.890   3.579  32.001  0.00  0.00    +0.159 HD
ATOM      8  H   UNL     1       5.540   6.764  30.026  0.00  0.00    +0.159 HD
ATOM      9  H   UNL     1       4.860   5.440  29.164  0.00  0.00    +0.159 HD
ENDROOT
BRANCH   1  10
ATOM     10  C   UNL     1       5.749   7.091  32.565  0.00  0.00    +0.151 C 
BRANCH  10  11
ATOM     11  C   UNL     1       6.784   6.933  33.645  0.00  0.00    -0.028 A 
ATOM     12  C   UNL     1       8.082   7.433  33.466  0.00  0.00    +0.005 A 
ATOM     13  C   UNL     1       6.470   6.288  34.851  0.00  0.00    +0.005 A 
ATOM     14  C   UNL     1       9.034   7.313  34.481  0.00  0.00    +0.000 A 
ATOM     15  C   UNL     1       7.424   6.169  35.862  0.00  0.00    +0.000 A 
ATOM     16  C   UNL     1       8.705   6.684  35.677  0.00  0.00    +0.000 A 
ENDBRANCH  10  11
ENDBRANCH   1  10
TORSDOF 2
ENDMDL
MODEL 5
REMARK VINA RESULT:    -5.223      1.305      2.282
REMARK INTER + INTRA:          -5.941
REMARK INTER:                  -5.813
REMARK INTRA:                  -0.128
REMARK UNBOUND:                -0.107
REMARK  Name = 1550473
REMARK  2 active torsions:
REMARK  status: ('A' for Active; 'I' for Inactive)
REMARK    1  A    between atoms: N_1  and  C_4
REMARK    2  A    between atoms: C_4  and  C_5
REMARK                            x       y       z     vdW  Elec       q    Type
REMARK                         _______ _______ _______ _____ _____    ______ ____
ROOT
ATOM      1  N   UNL     1      -1.737   3.768   4.644  0.00  0.00    -0.354 N 
ATOM      2  N   UNL     1      -3.911   4.136   5.351  0.00  0.00    -0.372 N 
ATOM      3  N   UNL     1      -3.316   4.761   3.226  0.00  0.00    -0.372 N 
ATOM      4  C   UNL     1      -2.974   4.221   4.400  0.00  0.00    +0.166 C 
ATOM      5  H   UNL     1      -1.533   3.397   5.565  0.00  0.00    +0.163 HD
ATOM      6  H   UNL     1      -4.854   4.466   5.195  0.00  0.00    +0.159 HD
ATOM      7  H   UNL     1      -3.717   3.722   6.255  0.00  0.00    +0.159 HD
ATOM      8  H   UNL     1      -2.653   4.860   2.468  0.00  0.00    +0.159 HD
ATOM      9  H   UNL     1      -4.251   5.108   3.054  0.00  0.00    +0.159 HD
ENDROOT
BRANCH   1  10
ATOM     10  C   UNL     1      -0.658   3.765   3.658  0.00  0.00    +0.151 C 
BRANCH  10  11
ATOM     11  C   UNL     1       0.663   3.828   4.374  0.00  0.00    -0.028 A 
ATOM     12  C   UNL     1       0.756   4.410   5.647  0.00  0.00    +0.005 A 
ATOM     13  C   UNL     1       1.825   3.301   3.789  0.00  0.00    +0.005 A 
ATOM     14  C   UNL     1       1.976   4.442   6.326  0.00  0.00    +0.000 A 
ATOM     15  C   UNL     1       3.042   3.335   4.469  0.00  0.00    +0.000 A 
ATOM     16  C   UNL     1       3.117   3.903   5.739  0.00  0.00    +0.000 A 
ENDBRANCH  10  11
ENDBRANCH   1  10
TORSDOF 2
ENDMDL
MODEL 6
REMARK VINA RESULT:    -5.218     29.240     30.454
REMARK INTER + INTRA:          -5.934
REMARK INTER:                  -5.816
REMARK INTRA:                  -0.118
REMARK UNBOUND:                -0.107
REMARK  Name = 1550473
REMARK  2 active torsions:
REMARK  status: ('A' for Active; 'I' for Inactive)
REMARK    1  A    between atoms: N_1  and  C_4
REMARK    2  A    between atoms: C_4  and  C_5
REMARK                            x       y       z     vdW  Elec       q    Type
REMARK                         _______ _______ _______ _____ _____    ______ ____
ROOT
ATOM      1  N   UNL     1       5.492   6.011  31.872  0.00  0.00    -0.354 N 
ATOM      2  N   UNL     1       4.993   4.901  29.901  0.00  0.00    -0.372 N 
ATOM      3  N   UNL     1       4.470   3.902  31.899  0.00  0.00    -0.372 N 
ATOM      4  C   UNL     1       4.988   4.943  31.239  0.00  0.00    +0.166 C 
ATOM      5  H   UNL     1       5.897   6.754  31.314  0.00  0.00    +0.163 HD
ATOM      6  H   UNL     1       4.617   4.110  29.396  0.00  0.00    +0.159 HD
ATOM      7  H   UNL     1       5.357   5.665  29.345  0.00  0.00    +0.159 HD
ATOM      8  H   UNL     1       4.442   3.869  32.910  0.00  0.00    +0.159 HD
ATOM      9  H   UNL     1       4.099   3.096  31.412  0.00  0.00    +0.159 HD
ENDROOT
BRANCH   1  10
ATOM     10  C   UNL     1       5.485   6.179  33.324  0.00  0.00    +0.151 C 
BRANCH  10  11
ATOM     11  C   UNL     1       6.102   7.507  33.667  0.00  0.00    -0.028 A 
ATOM     12  C   UNL     1       6.702   7.710  34.919  0.00  0.00    +0.005 A 
ATOM     13  C   UNL     1       6.094   8.563  32.744  0.00  0.00    +0.005 A 
ATOM     14  C   UNL     1       7.302   8.934  35.227  0.00  0.00    +0.000 A 
ATOM     15  C   UNL     1       6.693   9.784  33.056  0.00  0.00    +0.000 A 
ATOM     16  C   UNL     1       7.299   9.968  34.297  0.00  0.00    +0.000 A 
ENDBRANCH  10  11
ENDBRANCH   1  10
TORSDOF 2
ENDMDL
MODEL 7
REMARK VINA RESULT:    -5.173     38.345     39.479
REMARK INTER + INTRA:          -5.885
REMARK INTER:                  -5.716
REMARK INTRA:                  -0.169
REMARK UNBOUND:                -0.107
REMARK  Name = 1550473
REMARK  2 active torsions:
REMARK  status: ('A' for Active; 'I' for Inactive)
REMARK    1  A    between atoms: N_1  and  C_4
REMARK    2  A    between atoms: C_4  and  C_5
REMARK                            x       y       z     vdW  Elec       q    Type
REMARK                         _______ _______ _______ _____ _____    ______ ____
ROOT
ATOM      1  N   UNL     1      -3.416 -15.958 -28.942  0.00  0.00    -0.354 N 
ATOM      2  N   UNL     1      -5.330 -17.247 -28.741  0.00  0.00    -0.372 N 
ATOM      3  N   UNL     1      -3.380 -18.255 -29.410  0.00  0.00    -0.372 N 
ATOM      4  C   UNL     1      -4.028 -17.147 -29.033  0.00  0.00    +0.166 C 
ATOM      5  H   UNL     1      -3.970 -15.151 -28.681  0.00  0.00    +0.163 HD
ATOM      6  H   UNL     1      -5.818 -18.131 -28.797  0.00  0.00    +0.159 HD
ATOM      7  H   UNL     1      -5.871 -16.447 -28.436  0.00  0.00    +0.159 HD
ATOM      8  H   UNL     1      -2.398 -18.245 -29.649  0.00  0.00    +0.159 HD
ATOM      9  H   UNL     1      -3.854 -19.146 -29.483  0.00  0.00    +0.159 HD
ENDROOT
BRANCH   1  10
ATOM     10  C   UNL     1      -1.990 -15.752 -29.187  0.00  0.00    +0.151 C 
BRANCH  10  11
ATOM     11  C   UNL     1      -1.796 -15.281 -30.602  0.00  0.00    -0.028 A 
ATOM     12  C   UNL     1      -0.826 -15.873 -31.423  0.00  0.00    +0.005 A 
ATOM     13  C   UNL     1      -2.585 -14.247 -31.129  0.00  0.00    +0.005 A 
ATOM     14  C   UNL     1      -0.666 -15.456 -32.747  0.00  0.00    +0.000 A 
ATOM     15  C   UNL     1      -2.422 -13.834 -32.451  0.00  0.00    +0.000 A 
ATOM     16  C   UNL     1      -1.465 -14.440 -33.260  0.00  0.00    +0.000 A 
ENDBRANCH  10  11
ENDBRANCH   1  10
TORSDOF 2
ENDMDL
MODEL 8
REMARK VINA RESULT:    -5.122     14.094     15.231
REMARK INTER + INTRA:          -5.828
REMARK INTER:                  -5.705
REMARK INTRA:                  -0.123
REMARK UNBOUND:                -0.107
REMARK  Name = 1550473
REMARK  2 active torsions:
REMARK  status: ('A' for Active; 'I' for Inactive)
REMARK    1  A    between atoms: N_1  and  C_4
REMARK    2  A    between atoms: C_4  and  C_5
REMARK                            x       y       z     vdW  Elec       q    Type
REMARK                         _______ _______ _______ _____ _____    ______ ____
ROOT
ATOM      1  N   UNL     1       5.416  13.053  -7.265  0.00  0.00    -0.354 N 
ATOM      2  N   UNL     1       5.472  15.256  -7.979  0.00  0.00    -0.372 N 
ATOM      3  N   UNL     1       5.060  14.818  -5.764  0.00  0.00    -0.372 N 
ATOM      4  C   UNL     1       5.315  14.362  -6.995  0.00  0.00    +0.166 C 
ATOM      5  H   UNL     1       5.581  12.771  -8.224  0.00  0.00    +0.163 HD
ATOM      6  H   UNL     1       5.405  16.250  -7.805  0.00  0.00    +0.159 HD
ATOM      7  H   UNL     1       5.683  14.972  -8.928  0.00  0.00    +0.159 HD
ATOM      8  H   UNL     1       4.925  14.194  -4.979  0.00  0.00    +0.159 HD
ATOM      9  H   UNL     1       4.977  15.808  -5.573  0.00  0.00    +0.159 HD
ENDROOT
BRANCH   1  10
ATOM     10  C   UNL     1       5.315  12.000  -6.256  0.00  0.00    +0.151 C 
BRANCH  10  11
ATOM     11  C   UNL     1       5.842  10.715  -6.832  0.00  0.00    -0.028 A 
ATOM     12  C   UNL     1       6.071   9.605  -6.006  0.00  0.00    +0.005 A 
ATOM     13  C   UNL     1       6.108  10.599  -8.205  0.00  0.00    +0.005 A 
ATOM     14  C   UNL     1       6.532   8.402  -6.546  0.00  0.00    +0.000 A 
ATOM     15  C   UNL     1       6.569   9.396  -8.740  0.00  0.00    +0.000 A 
ATOM     16  C   UNL     1       6.778   8.297  -7.911  0.00  0.00    +0.000 A 
ENDBRANCH  10  11
ENDBRANCH   1  10
TORSDOF 2
ENDMDL
MODEL 9
REMARK VINA RESULT:    -4.950     15.530     16.268
REMARK INTER + INTRA:          -5.636
REMARK INTER:                  -5.505
REMARK INTRA:                  -0.131
REMARK UNBOUND:                -0.107
REMARK  Name = 1550473
REMARK  2 active torsions:
REMARK  status: ('A' for Active; 'I' for Inactive)
REMARK    1  A    between atoms: N_1  and  C_4
REMARK    2  A    between atoms: C_4  and  C_5
REMARK                            x       y       z     vdW  Elec       q    Type
REMARK                         _______ _______ _______ _____ _____    ______ ____
ROOT
ATOM      1  N   UNL     1       4.824  14.155  -7.083  0.00  0.00    -0.354 N 
ATOM      2  N   UNL     1       4.618  15.732  -5.399  0.00  0.00    -0.372 N 
ATOM      3  N   UNL     1       5.442  16.387  -7.437  0.00  0.00    -0.372 N 
ATOM      4  C   UNL     1       4.964  15.416  -6.653  0.00  0.00    +0.166 C 
ATOM      5  H   UNL     1       4.484  13.459  -6.429  0.00  0.00    +0.163 HD
ATOM      6  H   UNL     1       4.709  16.675  -5.047  0.00  0.00    +0.159 HD
ATOM      7  H   UNL     1       4.235  15.043  -4.762  0.00  0.00    +0.159 HD
ATOM      8  H   UNL     1       5.727  16.213  -8.392  0.00  0.00    +0.159 HD
ATOM      9  H   UNL     1       5.552  17.335  -7.100  0.00  0.00    +0.159 HD
ENDROOT
BRANCH   1  10
ATOM     10  C   UNL     1       5.120  13.718  -8.446  0.00  0.00    +0.151 C 
BRANCH  10  11
ATOM     11  C   UNL     1       5.721  12.340  -8.400  0.00  0.00    -0.028 A 
ATOM     12  C   UNL     1       5.411  11.395  -9.389  0.00  0.00    +0.005 A 
ATOM     13  C   UNL     1       6.605  11.975  -7.373  0.00  0.00    +0.005 A 
ATOM     14  C   UNL     1       5.992  10.125  -9.364  0.00  0.00    +0.000 A 
ATOM     15  C   UNL     1       7.182  10.705  -7.351  0.00  0.00    +0.000 A 
ATOM     16  C   UNL     1       6.877   9.781  -8.348  0.00  0.00    +0.000 A 
ENDBRANCH  10  11
ENDBRANCH   1  10
TORSDOF 2
ENDMDL
