MODEL 1
REMARK VINA RESULT:    -5.687      0.000      0.000
REMARK INTER + INTRA:          -6.521
REMARK INTER:                  -6.351
REMARK INTRA:                  -0.170
REMARK UNBOUND:                -0.170
REMARK  Name = 1550473
REMARK  2 active torsions:
REMARK  status: ('A' for Active; 'I' for Inactive)
REMARK    1  A    between atoms: N_1  and  C_4
REMARK    2  A    between atoms: C_4  and  C_5
REMARK                            x       y       z     vdW  Elec       q    Type
REMARK                         _______ _______ _______ _____ _____    ______ ____
ROOT
ATOM      1  N   UNL     1       0.842  16.502  26.423  0.00  0.00    -0.354 N 
ATOM      2  N   UNL     1       2.158  14.598  26.344  0.00  0.00    -0.372 N 
ATOM      3  N   UNL     1       3.080  16.610  25.738  0.00  0.00    -0.372 N 
ATOM      4  C   UNL     1       2.020  15.918  26.168  0.00  0.00    +0.166 C 
ATOM      5  H   UNL     1       0.068  15.917  26.717  0.00  0.00    +0.163 HD
ATOM      6  H   UNL     1       3.036  14.130  26.163  0.00  0.00    +0.159 HD
ATOM      7  H   UNL     1       1.396  14.023  26.682  0.00  0.00    +0.159 HD
ATOM      8  H   UNL     1       3.039  17.608  25.579  0.00  0.00    +0.159 HD
ATOM      9  H   UNL     1       3.964  16.158  25.540  0.00  0.00    +0.159 HD
ENDROOT
BRANCH   1  10
ATOM     10  C   UNL     1       0.601  17.940  26.315  0.00  0.00    +0.151 C 
BRANCH  10  11
ATOM     11  C   UNL     1      -0.332  18.197  25.164  0.00  0.00    -0.028 A 
ATOM     12  C   UNL     1      -1.720  18.225  25.366  0.00  0.00    +0.005 A 
ATOM     13  C   UNL     1       0.165  18.419  23.871  0.00  0.00    +0.005 A 
ATOM     14  C   UNL     1      -2.586  18.493  24.303  0.00  0.00    +0.000 A 
ATOM     15  C   UNL     1      -0.703  18.685  22.812  0.00  0.00    +0.000 A 
ATOM     16  C   UNL     1      -2.078  18.725  23.029  0.00  0.00    +0.000 A 
ENDBRANCH  10  11
ENDBRANCH   1  10
TORSDOF 2
ENDMDL
MODEL 2
REMARK VINA RESULT:    -5.607     26.639     27.577
REMARK INTER + INTRA:          -6.432
REMARK INTER:                  -6.276
REMARK INTRA:                  -0.156
REMARK UNBOUND:                -0.170
REMARK  Name = 1550473
REMARK  2 active torsions:
REMARK  status: ('A' for Active; 'I' for Inactive)
REMARK    1  A    between atoms: N_1  and  C_4
REMARK    2  A    between atoms: C_4  and  C_5
REMARK                            x       y       z     vdW  Elec       q    Type
REMARK                         _______ _______ _______ _____ _____    ______ ____
ROOT
ATOM      1  N   UNL     1       8.285   1.674   2.722  0.00  0.00    -0.354 N 
ATOM      2  N   UNL     1       7.052  -0.094   3.569  0.00  0.00    -0.372 N 
ATOM      3  N   UNL     1       9.343  -0.219   3.609  0.00  0.00    -0.372 N 
ATOM      4  C   UNL     1       8.237   0.464   3.295  0.00  0.00    +0.166 C 
ATOM      5  H   UNL     1       7.411   2.127   2.481  0.00  0.00    +0.163 HD
ATOM      6  H   UNL     1       6.985  -1.005   4.004  0.00  0.00    +0.159 HD
ATOM      7  H   UNL     1       6.180   0.381   3.369  0.00  0.00    +0.159 HD
ATOM      8  H   UNL     1      10.268   0.144   3.423  0.00  0.00    +0.159 HD
ATOM      9  H   UNL     1       9.296  -1.137   4.034  0.00  0.00    +0.159 HD
ENDROOT
BRANCH   1  10
ATOM     10  C   UNL     1       9.524   2.393   2.431  0.00  0.00    +0.151 C 
BRANCH  10  11
ATOM     11  C   UNL     1       9.645   3.562   3.370  0.00  0.00    -0.028 A 
ATOM     12  C   UNL     1      10.897   3.940   3.877  0.00  0.00    +0.005 A 
ATOM     13  C   UNL     1       8.513   4.298   3.751  0.00  0.00    +0.005 A 
ATOM     14  C   UNL     1      11.015   5.044   4.725  0.00  0.00    +0.000 A 
ATOM     15  C   UNL     1       8.635   5.399   4.599  0.00  0.00    +0.000 A 
ATOM     16  C   UNL     1       9.886   5.773   5.083  0.00  0.00    +0.000 A 
ENDBRANCH  10  11
ENDBRANCH   1  10
TORSDOF 2
ENDMDL
MODEL 3
REMARK VINA RESULT:    -5.266     24.178     25.106
REMARK INTER + INTRA:          -6.051
REMARK INTER:                  -5.913
REMARK INTRA:                  -0.139
REMARK UNBOUND:                -0.170
REMARK  Name = 1550473
REMARK  2 active torsions:
REMARK  status: ('A' for Active; 'I' for Inactive)
REMARK    1  A    between atoms: N_1  and  C_4
REMARK    2  A    between atoms: C_4  and  C_5
REMARK                            x       y       z     vdW  Elec       q    Type
REMARK                         _______ _______ _______ _____ _____    ______ ____
ROOT
ATOM      1  N   UNL     1      12.585   7.677   6.124  0.00  0.00    -0.354 N 
ATOM      2  N   UNL     1      14.725   7.832   6.998  0.00  0.00    -0.372 N 
ATOM      3  N   UNL     1      12.931   8.099   8.403  0.00  0.00    -0.372 N 
ATOM      4  C   UNL     1      13.398   7.869   7.172  0.00  0.00    +0.166 C 
ATOM      5  H   UNL     1      13.002   7.537   5.211  0.00  0.00    +0.163 HD
ATOM      6  H   UNL     1      15.363   7.970   7.770  0.00  0.00    +0.159 HD
ATOM      7  H   UNL     1      15.138   7.646   6.092  0.00  0.00    +0.159 HD
ATOM      8  H   UNL     1      11.940   8.145   8.600  0.00  0.00    +0.159 HD
ATOM      9  H   UNL     1      13.554   8.252   9.187  0.00  0.00    +0.159 HD
ENDROOT
BRANCH   1  10
ATOM     10  C   UNL     1      11.127   7.644   6.216  0.00  0.00    +0.151 C 
BRANCH  10  11
ATOM     11  C   UNL     1      10.610   6.479   5.418  0.00  0.00    -0.028 A 
ATOM     12  C   UNL     1      11.445   5.391   5.124  0.00  0.00    +0.005 A 
ATOM     13  C   UNL     1       9.285   6.454   4.957  0.00  0.00    +0.005 A 
ATOM     14  C   UNL     1      10.958   4.295   4.408  0.00  0.00    +0.000 A 
ATOM     15  C   UNL     1       8.802   5.359   4.241  0.00  0.00    +0.000 A 
ATOM     16  C   UNL     1       9.638   4.278   3.969  0.00  0.00    +0.000 A 
ENDBRANCH  10  11
ENDBRANCH   1  10
TORSDOF 2
ENDMDL
MODEL 4
REMARK VINA RESULT:    -5.122      2.551      4.693
REMARK INTER + INTRA:          -5.890
REMARK INTER:                  -5.790
REMARK INTRA:                  -0.101
REMARK UNBOUND:                -0.170
REMARK  Name = 1550473
REMARK  2 active torsions:
REMARK  status: ('A' for Active; 'I' for Inactive)
REMARK    1  A    between atoms: N_1  and  C_4
REMARK    2  A    between atoms: C_4  and  C_5
REMARK                            x       y       z     vdW  Elec       q    Type
REMARK                         _______ _______ _______ _____ _____    ______ ____
ROOT
ATOM      1  N   UNL     1      -1.078  17.871  24.085  0.00  0.00    -0.354 N 
ATOM      2  N   UNL     1      -3.133  17.603  25.120  0.00  0.00    -0.372 N 
ATOM      3  N   UNL     1      -1.648  19.126  25.980  0.00  0.00    -0.372 N 
ATOM      4  C   UNL     1      -1.938  18.204  25.057  0.00  0.00    +0.166 C 
ATOM      5  H   UNL     1      -1.347  17.143  23.433  0.00  0.00    +0.163 HD
ATOM      6  H   UNL     1      -3.804  17.835  25.840  0.00  0.00    +0.159 HD
ATOM      7  H   UNL     1      -3.416  16.908  24.440  0.00  0.00    +0.159 HD
ATOM      8  H   UNL     1      -0.761  19.612  25.991  0.00  0.00    +0.159 HD
ATOM      9  H   UNL     1      -2.302  19.364  26.716  0.00  0.00    +0.159 HD
ENDROOT
BRANCH   1  10
ATOM     10  C   UNL     1       0.226  18.504  23.895  0.00  0.00    +0.151 C 
BRANCH  10  11
ATOM     11  C   UNL     1       1.278  17.673  24.575  0.00  0.00    -0.028 A 
ATOM     12  C   UNL     1       1.942  16.654  23.877  0.00  0.00    +0.005 A 
ATOM     13  C   UNL     1       1.621  17.904  25.916  0.00  0.00    +0.005 A 
ATOM     14  C   UNL     1       2.941  15.901  24.499  0.00  0.00    +0.000 A 
ATOM     15  C   UNL     1       2.619  17.150  26.534  0.00  0.00    +0.000 A 
ATOM     16  C   UNL     1       3.280  16.151  25.825  0.00  0.00    +0.000 A 
ENDBRANCH  10  11
ENDBRANCH   1  10
TORSDOF 2
ENDMDL
MODEL 5
REMARK VINA RESULT:    -5.094     24.648     25.604
REMARK INTER + INTRA:          -5.860
REMARK INTER:                  -5.745
REMARK INTRA:                  -0.115
REMARK UNBOUND:                -0.170
REMARK  Name = 1550473
REMARK  2 active torsions:
REMARK  status: ('A' for Active; 'I' for Inactive)
REMARK    1  A    between atoms: N_1  and  C_4
REMARK    2  A    between atoms: C_4  and  C_5
REMARK                            x       y       z     vdW  Elec       q    Type
REMARK                         _______ _______ _______ _____ _____    ______ ____
ROOT
ATOM      1  N   UNL     1       9.350   4.764   4.490  0.00  0.00    -0.354 N 
ATOM      2  N   UNL     1       7.188   4.338   5.204  0.00  0.00    -0.372 N 
ATOM      3  N   UNL     1       7.544   6.019   3.682  0.00  0.00    -0.372 N 
ATOM      4  C   UNL     1       8.041   5.045   4.452  0.00  0.00    +0.166 C 
ATOM      5  H   UNL     1       9.668   4.034   5.118  0.00  0.00    +0.163 HD
ATOM      6  H   UNL     1       6.195   4.526   5.193  0.00  0.00    +0.159 HD
ATOM      7  H   UNL     1       7.503   3.579   5.795  0.00  0.00    +0.159 HD
ATOM      8  H   UNL     1       8.135   6.593   3.096  0.00  0.00    +0.159 HD
ATOM      9  H   UNL     1       6.554   6.229   3.667  0.00  0.00    +0.159 HD
ENDROOT
BRANCH   1  10
ATOM     10  C   UNL     1      10.356   5.438   3.671  0.00  0.00    +0.151 C 
BRANCH  10  11
ATOM     11  C   UNL     1      11.190   6.328   4.550  0.00  0.00    -0.028 A 
ATOM     12  C   UNL     1      10.999   6.337   5.940  0.00  0.00    +0.005 A 
ATOM     13  C   UNL     1      12.175   7.162   4.001  0.00  0.00    +0.005 A 
ATOM     14  C   UNL     1      11.794   7.141   6.760  0.00  0.00    +0.000 A 
ATOM     15  C   UNL     1      12.966   7.965   4.823  0.00  0.00    +0.000 A 
ATOM     16  C   UNL     1      12.777   7.952   6.203  0.00  0.00    +0.000 A 
ENDBRANCH  10  11
ENDBRANCH   1  10
TORSDOF 2
ENDMDL
MODEL 6
REMARK VINA RESULT:    -4.923      2.404      3.248
REMARK INTER + INTRA:          -5.668
REMARK INTER:                  -5.535
REMARK INTRA:                  -0.133
REMARK UNBOUND:                -0.170
REMARK  Name = 1550473
REMARK  2 active torsions:
REMARK  status: ('A' for Active; 'I' for Inactive)
REMARK    1  A    between atoms: N_1  and  C_4
REMARK    2  A    between atoms: C_4  and  C_5
REMARK                            x       y       z     vdW  Elec       q    Type
REMARK                         _______ _______ _______ _____ _____    ______ ____
ROOT
ATOM      1  N   UNL     1       2.148  17.072  24.444  0.00  0.00    -0.354 N 
ATOM      2  N   UNL     1       3.144  17.000  26.534  0.00  0.00    -0.372 N 
ATOM      3  N   UNL     1       0.910  16.509  26.352  0.00  0.00    -0.372 N 
ATOM      4  C   UNL     1       2.058  16.860  25.764  0.00  0.00    +0.166 C 
ATOM      5  H   UNL     1       3.040  17.366  24.064  0.00  0.00    +0.163 HD
ATOM      6  H   UNL     1       3.107  16.843  27.532  0.00  0.00    +0.159 HD
ATOM      7  H   UNL     1       4.045  17.248  26.144  0.00  0.00    +0.159 HD
ATOM      8  H   UNL     1       0.053  16.393  25.828  0.00  0.00    +0.159 HD
ATOM      9  H   UNL     1       0.850  16.359  27.352  0.00  0.00    +0.159 HD
ENDROOT
BRANCH   1  10
ATOM     10  C   UNL     1       1.037  16.895  23.510  0.00  0.00    +0.151 C 
BRANCH  10  11
ATOM     11  C   UNL     1       1.078  17.994  22.485  0.00  0.00    -0.028 A 
ATOM     12  C   UNL     1       1.377  19.311  22.864  0.00  0.00    +0.005 A 
ATOM     13  C   UNL     1       0.823  17.725  21.131  0.00  0.00    +0.005 A 
ATOM     14  C   UNL     1       1.444  20.327  21.908  0.00  0.00    +0.000 A 
ATOM     15  C   UNL     1       0.890  18.742  20.180  0.00  0.00    +0.000 A 
ATOM     16  C   UNL     1       1.203  20.043  20.568  0.00  0.00    +0.000 A 
ENDBRANCH  10  11
ENDBRANCH   1  10
TORSDOF 2
ENDMDL
MODEL 7
REMARK VINA RESULT:    -4.815     24.618     25.597
REMARK INTER + INTRA:          -5.548
REMARK INTER:                  -5.450
REMARK INTRA:                  -0.097
REMARK UNBOUND:                -0.170
REMARK  Name = 1550473
REMARK  2 active torsions:
REMARK  status: ('A' for Active; 'I' for Inactive)
REMARK    1  A    between atoms: N_1  and  C_4
REMARK    2  A    between atoms: C_4  and  C_5
REMARK                            x       y       z     vdW  Elec       q    Type
REMARK                         _______ _______ _______ _____ _____    ______ ____
ROOT
ATOM      1  N   UNL     1       9.733   5.242   4.476  0.00  0.00    -0.354 N 
ATOM      2  N   UNL     1       8.855   3.263   3.653  0.00  0.00    -0.372 N 
ATOM      3  N   UNL     1       7.460   4.731   4.732  0.00  0.00    -0.372 N 
ATOM      4  C   UNL     1       8.686   4.426   4.294  0.00  0.00    +0.166 C 
ATOM      5  H   UNL     1      10.642   4.939   4.146  0.00  0.00    +0.163 HD
ATOM      6  H   UNL     1       8.083   2.628   3.498  0.00  0.00    +0.159 HD
ATOM      7  H   UNL     1       9.756   2.984   3.284  0.00  0.00    +0.159 HD
ATOM      8  H   UNL     1       7.268   5.591   5.228  0.00  0.00    +0.159 HD
ATOM      9  H   UNL     1       6.677   4.104   4.597  0.00  0.00    +0.159 HD
ENDROOT
BRANCH   1  10
ATOM     10  C   UNL     1       9.645   6.554   5.113  0.00  0.00    +0.151 C 
BRANCH  10  11
ATOM     11  C   UNL     1      11.034   7.092   5.324  0.00  0.00    -0.028 A 
ATOM     12  C   UNL     1      11.869   7.356   4.228  0.00  0.00    +0.005 A 
ATOM     13  C   UNL     1      11.519   7.345   6.616  0.00  0.00    +0.005 A 
ATOM     14  C   UNL     1      13.148   7.883   4.421  0.00  0.00    +0.000 A 
ATOM     15  C   UNL     1      12.797   7.871   6.805  0.00  0.00    +0.000 A 
ATOM     16  C   UNL     1      13.610   8.142   5.707  0.00  0.00    +0.000 A 
ENDBRANCH  10  11
ENDBRANCH   1  10
TORSDOF 2
ENDMDL
MODEL 8
REMARK VINA RESULT:    -4.814      3.131      4.923
REMARK INTER + INTRA:          -5.546
REMARK INTER:                  -5.408
REMARK INTRA:                  -0.139
REMARK UNBOUND:                -0.170
REMARK  Name = 1550473
REMARK  2 active torsions:
REMARK  status: ('A' for Active; 'I' for Inactive)
REMARK    1  A    between atoms: N_1  and  C_4
REMARK    2  A    between atoms: C_4  and  C_5
REMARK                            x       y       z     vdW  Elec       q    Type
REMARK                         _______ _______ _______ _____ _____    ______ ____
ROOT
ATOM      1  N   UNL     1      -1.998  18.235  23.495  0.00  0.00    -0.354 N 
ATOM      2  N   UNL     1      -4.169  18.968  23.837  0.00  0.00    -0.372 N 
ATOM      3  N   UNL     1      -2.663  20.384  22.840  0.00  0.00    -0.372 N 
ATOM      4  C   UNL     1      -2.928  19.193  23.387  0.00  0.00    +0.166 C 
ATOM      5  H   UNL     1      -2.254  17.365  23.948  0.00  0.00    +0.163 HD
ATOM      6  H   UNL     1      -4.892  19.671  23.766  0.00  0.00    +0.159 HD
ATOM      7  H   UNL     1      -4.434  18.081  24.247  0.00  0.00    +0.159 HD
ATOM      8  H   UNL     1      -1.745  20.619  22.487  0.00  0.00    +0.159 HD
ATOM      9  H   UNL     1      -3.371  21.105  22.770  0.00  0.00    +0.159 HD
ENDROOT
BRANCH   1  10
ATOM     10  C   UNL     1      -0.633  18.360  22.989  0.00  0.00    +0.151 C 
BRANCH  10  11
ATOM     11  C   UNL     1       0.332  17.988  24.081  0.00  0.00    -0.028 A 
ATOM     12  C   UNL     1      -0.043  18.095  25.429  0.00  0.00    +0.005 A 
ATOM     13  C   UNL     1       1.621  17.524  23.775  0.00  0.00    +0.005 A 
ATOM     14  C   UNL     1       0.843  17.721  26.443  0.00  0.00    +0.000 A 
ATOM     15  C   UNL     1       2.502  17.153  24.791  0.00  0.00    +0.000 A 
ATOM     16  C   UNL     1       2.112  17.250  26.124  0.00  0.00    +0.000 A 
ENDBRANCH  10  11
ENDBRANCH   1  10
TORSDOF 2
ENDMDL
MODEL 9
REMARK VINA RESULT:    -4.583     24.580     25.067
REMARK INTER + INTRA:          -5.289
REMARK INTER:                  -5.151
REMARK INTRA:                  -0.138
REMARK UNBOUND:                -0.170
REMARK  Name = 1550473
REMARK  2 active torsions:
REMARK  status: ('A' for Active; 'I' for Inactive)
REMARK    1  A    between atoms: N_1  and  C_4
REMARK    2  A    between atoms: C_4  and  C_5
REMARK                            x       y       z     vdW  Elec       q    Type
REMARK                         _______ _______ _______ _____ _____    ______ ____
ROOT
ATOM      1  N   UNL     1      11.006  10.651   4.689  0.00  0.00    -0.354 N 
ATOM      2  N   UNL     1      10.423  12.699   3.778  0.00  0.00    -0.372 N 
ATOM      3  N   UNL     1      12.357  11.683   3.076  0.00  0.00    -0.372 N 
ATOM      4  C   UNL     1      11.269  11.664   3.853  0.00  0.00    +0.166 C 
ATOM      5  H   UNL     1      10.180  10.711   5.273  0.00  0.00    +0.163 HD
ATOM      6  H   UNL     1      10.593  13.476   3.154  0.00  0.00    +0.159 HD
ATOM      7  H   UNL     1       9.574  12.735   4.329  0.00  0.00    +0.159 HD
ATOM      8  H   UNL     1      13.037  10.935   3.089  0.00  0.00    +0.159 HD
ATOM      9  H   UNL     1      12.551  12.457   2.453  0.00  0.00    +0.159 HD
ENDROOT
BRANCH   1  10
ATOM     10  C   UNL     1      11.834   9.452   4.807  0.00  0.00    +0.151 C 
BRANCH  10  11
ATOM     11  C   UNL     1      10.954   8.236   4.711  0.00  0.00    -0.028 A 
ATOM     12  C   UNL     1      11.267   7.073   5.430  0.00  0.00    +0.005 A 
ATOM     13  C   UNL     1       9.803   8.243   3.909  0.00  0.00    +0.005 A 
ATOM     14  C   UNL     1      10.434   5.954   5.365  0.00  0.00    +0.000 A 
ATOM     15  C   UNL     1       8.974   7.123   3.847  0.00  0.00    +0.000 A 
ATOM     16  C   UNL     1       9.288   5.980   4.577  0.00  0.00    +0.000 A 
ENDBRANCH  10  11
ENDBRANCH   1  10
TORSDOF 2
ENDMDL
