MODEL 1
REMARK VINA RESULT:    -5.435      0.000      0.000
REMARK INTER + INTRA:          -6.208
REMARK INTER:                  -6.071
REMARK INTRA:                  -0.137
REMARK UNBOUND:                -0.137
REMARK  Name = 1550473
REMARK  2 active torsions:
REMARK  status: ('A' for Active; 'I' for Inactive)
REMARK    1  A    between atoms: N_1  and  C_4
REMARK    2  A    between atoms: C_4  and  C_5
REMARK                            x       y       z     vdW  Elec       q    Type
REMARK                         _______ _______ _______ _____ _____    ______ ____
ROOT
ATOM      1  N   UNL     1      -6.002 -12.308   9.406  0.00  0.00    -0.354 N 
ATOM      2  N   UNL     1      -6.442 -10.238  10.348  0.00  0.00    -0.372 N 
ATOM      3  N   UNL     1      -4.502 -11.325  10.915  0.00  0.00    -0.372 N 
ATOM      4  C   UNL     1      -5.643 -11.305  10.219  0.00  0.00    +0.166 C 
ATOM      5  H   UNL     1      -6.894 -12.245   8.929  0.00  0.00    +0.163 HD
ATOM      6  H   UNL     1      -6.196  -9.464  10.951  0.00  0.00    +0.159 HD
ATOM      7  H   UNL     1      -7.311 -10.157   9.835  0.00  0.00    +0.159 HD
ATOM      8  H   UNL     1      -3.859 -12.104  10.866  0.00  0.00    +0.159 HD
ATOM      9  H   UNL     1      -4.244 -10.566  11.533  0.00  0.00    +0.159 HD
ENDROOT
BRANCH   1  10
ATOM     10  C   UNL     1      -5.179 -13.489   9.153  0.00  0.00    +0.151 C 
BRANCH  10  11
ATOM     11  C   UNL     1      -4.862 -13.562   7.685  0.00  0.00    -0.028 A 
ATOM     12  C   UNL     1      -3.543 -13.415   7.233  0.00  0.00    +0.005 A 
ATOM     13  C   UNL     1      -5.877 -13.783   6.741  0.00  0.00    +0.005 A 
ATOM     14  C   UNL     1      -3.244 -13.512   5.872  0.00  0.00    +0.000 A 
ATOM     15  C   UNL     1      -5.574 -13.879   5.383  0.00  0.00    +0.000 A 
ATOM     16  C   UNL     1      -4.257 -13.746   4.949  0.00  0.00    +0.000 A 
ENDBRANCH  10  11
ENDBRANCH   1  10
TORSDOF 2
ENDMDL
MODEL 2
REMARK VINA RESULT:    -5.198      3.537      4.981
REMARK INTER + INTRA:          -5.942
REMARK INTER:                  -5.835
REMARK INTRA:                  -0.108
REMARK UNBOUND:                -0.137
REMARK  Name = 1550473
REMARK  2 active torsions:
REMARK  status: ('A' for Active; 'I' for Inactive)
REMARK    1  A    between atoms: N_1  and  C_4
REMARK    2  A    between atoms: C_4  and  C_5
REMARK                            x       y       z     vdW  Elec       q    Type
REMARK                         _______ _______ _______ _____ _____    ______ ____
ROOT
ATOM      1  N   UNL     1      -7.114 -15.177   5.488  0.00  0.00    -0.354 N 
ATOM      2  N   UNL     1      -8.153 -16.777   4.175  0.00  0.00    -0.372 N 
ATOM      3  N   UNL     1      -9.450 -15.338   5.404  0.00  0.00    -0.372 N 
ATOM      4  C   UNL     1      -8.234 -15.753   5.033  0.00  0.00    +0.166 C 
ATOM      5  H   UNL     1      -6.222 -15.557   5.191  0.00  0.00    +0.163 HD
ATOM      6  H   UNL     1      -8.981 -17.230   3.812  0.00  0.00    +0.159 HD
ATOM      7  H   UNL     1      -7.261 -17.126   3.845  0.00  0.00    +0.159 HD
ATOM      8  H   UNL     1      -9.580 -14.574   6.053  0.00  0.00    +0.159 HD
ATOM      9  H   UNL     1     -10.291 -15.786   5.061  0.00  0.00    +0.159 HD
ENDROOT
BRANCH   1  10
ATOM     10  C   UNL     1      -7.094 -14.021   6.382  0.00  0.00    +0.151 C 
BRANCH  10  11
ATOM     11  C   UNL     1      -5.674 -13.741   6.792  0.00  0.00    -0.028 A 
ATOM     12  C   UNL     1      -4.644 -13.748   5.840  0.00  0.00    +0.005 A 
ATOM     13  C   UNL     1      -5.353 -13.462   8.129  0.00  0.00    +0.005 A 
ATOM     14  C   UNL     1      -3.330 -13.459   6.214  0.00  0.00    +0.000 A 
ATOM     15  C   UNL     1      -4.039 -13.174   8.499  0.00  0.00    +0.000 A 
ATOM     16  C   UNL     1      -3.028 -13.170   7.541  0.00  0.00    +0.000 A 
ENDBRANCH  10  11
ENDBRANCH   1  10
TORSDOF 2
ENDMDL
MODEL 3
REMARK VINA RESULT:    -4.828      9.559     12.692
REMARK INTER + INTRA:          -5.529
REMARK INTER:                  -5.348
REMARK INTRA:                  -0.180
REMARK UNBOUND:                -0.137
REMARK  Name = 1550473
REMARK  2 active torsions:
REMARK  status: ('A' for Active; 'I' for Inactive)
REMARK    1  A    between atoms: N_1  and  C_4
REMARK    2  A    between atoms: C_4  and  C_5
REMARK                            x       y       z     vdW  Elec       q    Type
REMARK                         _______ _______ _______ _____ _____    ______ ____
ROOT
ATOM      1  N   UNL     1      -7.056  -6.429  15.315  0.00  0.00    -0.354 N 
ATOM      2  N   UNL     1      -6.903  -6.265  13.010  0.00  0.00    -0.372 N 
ATOM      3  N   UNL     1      -8.942  -5.942  14.012  0.00  0.00    -0.372 N 
ATOM      4  C   UNL     1      -7.638  -6.213  14.128  0.00  0.00    +0.166 C 
ATOM      5  H   UNL     1      -6.069  -6.660  15.333  0.00  0.00    +0.163 HD
ATOM      6  H   UNL     1      -7.314  -6.103  12.100  0.00  0.00    +0.159 HD
ATOM      7  H   UNL     1      -5.908  -6.451  13.034  0.00  0.00    +0.159 HD
ATOM      8  H   UNL     1      -9.552  -5.894  14.817  0.00  0.00    +0.159 HD
ATOM      9  H   UNL     1      -9.374  -5.788  13.110  0.00  0.00    +0.159 HD
ENDROOT
BRANCH   1  10
ATOM     10  C   UNL     1      -7.755  -6.342  16.596  0.00  0.00    +0.151 C 
BRANCH  10  11
ATOM     11  C   UNL     1      -7.396  -5.044  17.264  0.00  0.00    -0.028 A 
ATOM     12  C   UNL     1      -8.280  -3.956  17.229  0.00  0.00    +0.005 A 
ATOM     13  C   UNL     1      -6.174  -4.897  17.940  0.00  0.00    +0.005 A 
ATOM     14  C   UNL     1      -7.960  -2.760  17.875  0.00  0.00    +0.000 A 
ATOM     15  C   UNL     1      -5.858  -3.700  18.583  0.00  0.00    +0.000 A 
ATOM     16  C   UNL     1      -6.752  -2.633  18.553  0.00  0.00    +0.000 A 
ENDBRANCH  10  11
ENDBRANCH   1  10
TORSDOF 2
ENDMDL
MODEL 4
REMARK VINA RESULT:    -4.796     11.730     13.502
REMARK INTER + INTRA:          -5.494
REMARK INTER:                  -5.363
REMARK INTRA:                  -0.131
REMARK UNBOUND:                -0.137
REMARK  Name = 1550473
REMARK  2 active torsions:
REMARK  status: ('A' for Active; 'I' for Inactive)
REMARK    1  A    between atoms: N_1  and  C_4
REMARK    2  A    between atoms: C_4  and  C_5
REMARK                            x       y       z     vdW  Elec       q    Type
REMARK                         _______ _______ _______ _____ _____    ______ ____
ROOT
ATOM      1  N   UNL     1      -8.239  -2.628  18.346  0.00  0.00    -0.354 N 
ATOM      2  N   UNL     1      -8.625  -1.278  20.188  0.00  0.00    -0.372 N 
ATOM      3  N   UNL     1     -10.411  -1.961  18.919  0.00  0.00    -0.372 N 
ATOM      4  C   UNL     1      -9.092  -1.965  19.138  0.00  0.00    +0.166 C 
ATOM      5  H   UNL     1      -7.248  -2.567  18.548  0.00  0.00    +0.163 HD
ATOM      6  H   UNL     1      -9.245  -0.771  20.805  0.00  0.00    +0.159 HD
ATOM      7  H   UNL     1      -7.639  -1.257  20.414  0.00  0.00    +0.159 HD
ATOM      8  H   UNL     1     -10.827  -2.454  18.140  0.00  0.00    +0.159 HD
ATOM      9  H   UNL     1     -11.047  -1.449  19.519  0.00  0.00    +0.159 HD
ENDROOT
BRANCH   1  10
ATOM     10  C   UNL     1      -8.650  -3.450  17.209  0.00  0.00    +0.151 C 
BRANCH  10  11
ATOM     11  C   UNL     1      -7.705  -4.612  17.075  0.00  0.00    -0.028 A 
ATOM     12  C   UNL     1      -6.527  -4.663  17.835  0.00  0.00    +0.005 A 
ATOM     13  C   UNL     1      -7.984  -5.668  16.194  0.00  0.00    +0.005 A 
ATOM     14  C   UNL     1      -5.664  -5.756  17.734  0.00  0.00    +0.000 A 
ATOM     15  C   UNL     1      -7.119  -6.758  16.095  0.00  0.00    +0.000 A 
ATOM     16  C   UNL     1      -5.961  -6.803  16.867  0.00  0.00    +0.000 A 
ENDBRANCH  10  11
ENDBRANCH   1  10
TORSDOF 2
ENDMDL
MODEL 5
REMARK VINA RESULT:    -4.729     11.467     13.421
REMARK INTER + INTRA:          -5.418
REMARK INTER:                  -5.297
REMARK INTRA:                  -0.121
REMARK UNBOUND:                -0.137
REMARK  Name = 1550473
REMARK  2 active torsions:
REMARK  status: ('A' for Active; 'I' for Inactive)
REMARK    1  A    between atoms: N_1  and  C_4
REMARK    2  A    between atoms: C_4  and  C_5
REMARK                            x       y       z     vdW  Elec       q    Type
REMARK                         _______ _______ _______ _____ _____    ______ ____
ROOT
ATOM      1  N   UNL     1      -8.920  -2.835  18.195  0.00  0.00    -0.354 N 
ATOM      2  N   UNL     1     -10.596  -1.523  19.109  0.00  0.00    -0.372 N 
ATOM      3  N   UNL     1      -8.528  -1.535  20.105  0.00  0.00    -0.372 N 
ATOM      4  C   UNL     1      -9.335  -1.972  19.132  0.00  0.00    +0.166 C 
ATOM      5  H   UNL     1      -9.589  -3.152  17.503  0.00  0.00    +0.163 HD
ATOM      6  H   UNL     1     -10.936  -0.869  19.801  0.00  0.00    +0.159 HD
ATOM      7  H   UNL     1     -11.249  -1.806  18.389  0.00  0.00    +0.159 HD
ATOM      8  H   UNL     1      -7.567  -1.840  20.181  0.00  0.00    +0.159 HD
ATOM      9  H   UNL     1      -8.854  -0.889  20.813  0.00  0.00    +0.159 HD
ENDROOT
BRANCH   1  10
ATOM     10  C   UNL     1      -7.553  -3.343  18.099  0.00  0.00    +0.151 C 
BRANCH  10  11
ATOM     11  C   UNL     1      -7.548  -4.584  17.249  0.00  0.00    -0.028 A 
ATOM     12  C   UNL     1      -8.596  -4.836  16.352  0.00  0.00    +0.005 A 
ATOM     13  C   UNL     1      -6.496  -5.508  17.333  0.00  0.00    +0.005 A 
ATOM     14  C   UNL     1      -8.578  -5.973  15.541  0.00  0.00    +0.000 A 
ATOM     15  C   UNL     1      -6.481  -6.643  16.522  0.00  0.00    +0.000 A 
ATOM     16  C   UNL     1      -7.521  -6.874  15.625  0.00  0.00    +0.000 A 
ENDBRANCH  10  11
ENDBRANCH   1  10
TORSDOF 2
ENDMDL
MODEL 6
REMARK VINA RESULT:    -4.478     11.394     14.806
REMARK INTER + INTRA:          -5.138
REMARK INTER:                  -4.995
REMARK INTRA:                  -0.143
REMARK UNBOUND:                -0.137
REMARK  Name = 1550473
REMARK  2 active torsions:
REMARK  status: ('A' for Active; 'I' for Inactive)
REMARK    1  A    between atoms: N_1  and  C_4
REMARK    2  A    between atoms: C_4  and  C_5
REMARK                            x       y       z     vdW  Elec       q    Type
REMARK                         _______ _______ _______ _____ _____    ______ ____
ROOT
ATOM      1  N   UNL     1      -8.251  -4.914  17.190  0.00  0.00    -0.354 N 
ATOM      2  N   UNL     1      -6.962  -6.073  15.653  0.00  0.00    -0.372 N 
ATOM      3  N   UNL     1      -9.132  -5.558  15.116  0.00  0.00    -0.372 N 
ATOM      4  C   UNL     1      -8.126  -5.507  15.995  0.00  0.00    +0.166 C 
ATOM      5  H   UNL     1      -7.460  -4.936  17.823  0.00  0.00    +0.163 HD
ATOM      6  H   UNL     1      -6.837  -6.525  14.758  0.00  0.00    +0.159 HD
ATOM      7  H   UNL     1      -6.159  -6.054  16.270  0.00  0.00    +0.159 HD
ATOM      8  H   UNL     1     -10.038  -5.155  15.315  0.00  0.00    +0.159 HD
ATOM      9  H   UNL     1      -9.030  -6.016  14.219  0.00  0.00    +0.159 HD
ENDROOT
BRANCH   1  10
ATOM     10  C   UNL     1      -9.458  -4.222  17.637  0.00  0.00    +0.151 C 
BRANCH  10  11
ATOM     11  C   UNL     1      -9.087  -2.847  18.119  0.00  0.00    -0.028 A 
ATOM     12  C   UNL     1     -10.081  -1.906  18.422  0.00  0.00    +0.005 A 
ATOM     13  C   UNL     1      -7.741  -2.481  18.280  0.00  0.00    +0.005 A 
ATOM     14  C   UNL     1      -9.737  -0.638  18.898  0.00  0.00    +0.000 A 
ATOM     15  C   UNL     1      -7.402  -1.214  18.755  0.00  0.00    +0.000 A 
ATOM     16  C   UNL     1      -8.400  -0.294  19.066  0.00  0.00    +0.000 A 
ENDBRANCH  10  11
ENDBRANCH   1  10
TORSDOF 2
ENDMDL
MODEL 7
REMARK VINA RESULT:    -4.352     11.955     13.689
REMARK INTER + INTRA:          -4.998
REMARK INTER:                  -4.875
REMARK INTRA:                  -0.122
REMARK UNBOUND:                -0.137
REMARK  Name = 1550473
REMARK  2 active torsions:
REMARK  status: ('A' for Active; 'I' for Inactive)
REMARK    1  A    between atoms: N_1  and  C_4
REMARK    2  A    between atoms: C_4  and  C_5
REMARK                            x       y       z     vdW  Elec       q    Type
REMARK                         _______ _______ _______ _____ _____    ______ ____
ROOT
ATOM      1  N   UNL     1      -9.189  -3.304  17.951  0.00  0.00    -0.354 N 
ATOM      2  N   UNL     1     -11.176  -2.255  17.390  0.00  0.00    -0.372 N 
ATOM      3  N   UNL     1     -10.136  -1.683  19.354  0.00  0.00    -0.372 N 
ATOM      4  C   UNL     1     -10.154  -2.420  18.238  0.00  0.00    +0.166 C 
ATOM      5  H   UNL     1      -9.276  -3.853  17.103  0.00  0.00    +0.163 HD
ATOM      6  H   UNL     1     -11.917  -1.593  17.578  0.00  0.00    +0.159 HD
ATOM      7  H   UNL     1     -11.237  -2.772  16.522  0.00  0.00    +0.159 HD
ATOM      8  H   UNL     1      -9.395  -1.764  20.037  0.00  0.00    +0.159 HD
ATOM      9  H   UNL     1     -10.874  -1.024  19.566  0.00  0.00    +0.159 HD
ENDROOT
BRANCH   1  10
ATOM     10  C   UNL     1      -8.005  -3.520  18.780  0.00  0.00    +0.151 C 
BRANCH  10  11
ATOM     11  C   UNL     1      -7.240  -4.699  18.246  0.00  0.00    -0.028 A 
ATOM     12  C   UNL     1      -7.545  -5.234  16.986  0.00  0.00    +0.005 A 
ATOM     13  C   UNL     1      -6.205  -5.283  18.993  0.00  0.00    +0.005 A 
ATOM     14  C   UNL     1      -6.814  -6.311  16.477  0.00  0.00    +0.000 A 
ATOM     15  C   UNL     1      -5.478  -6.358  18.481  0.00  0.00    +0.000 A 
ATOM     16  C   UNL     1      -5.782  -6.870  17.222  0.00  0.00    +0.000 A 
ENDBRANCH  10  11
ENDBRANCH   1  10
TORSDOF 2
ENDMDL
MODEL 8
REMARK VINA RESULT:    -4.301     14.910     16.327
REMARK INTER + INTRA:          -4.940
REMARK INTER:                  -4.802
REMARK INTRA:                  -0.139
REMARK UNBOUND:                -0.137
REMARK  Name = 1550473
REMARK  2 active torsions:
REMARK  status: ('A' for Active; 'I' for Inactive)
REMARK    1  A    between atoms: N_1  and  C_4
REMARK    2  A    between atoms: C_4  and  C_5
REMARK                            x       y       z     vdW  Elec       q    Type
REMARK                         _______ _______ _______ _____ _____    ______ ____
ROOT
ATOM      1  N   UNL     1      -8.125   4.382   7.418  0.00  0.00    -0.354 N 
ATOM      2  N   UNL     1      -8.977   5.199   9.410  0.00  0.00    -0.372 N 
ATOM      3  N   UNL     1      -7.152   6.231   8.478  0.00  0.00    -0.372 N 
ATOM      4  C   UNL     1      -8.077   5.267   8.422  0.00  0.00    +0.166 C 
ATOM      5  H   UNL     1      -8.832   3.656   7.449  0.00  0.00    +0.163 HD
ATOM      6  H   UNL     1      -8.968   5.856  10.179  0.00  0.00    +0.159 HD
ATOM      7  H   UNL     1      -9.711   4.502   9.416  0.00  0.00    +0.159 HD
ATOM      8  H   UNL     1      -6.441   6.333   7.766  0.00  0.00    +0.159 HD
ATOM      9  H   UNL     1      -7.119   6.891   9.245  0.00  0.00    +0.159 HD
ENDROOT
BRANCH   1  10
ATOM     10  C   UNL     1      -7.225   4.402   6.266  0.00  0.00    +0.151 C 
BRANCH  10  11
ATOM     11  C   UNL     1      -6.508   3.082   6.180  0.00  0.00    -0.028 A 
ATOM     12  C   UNL     1      -5.145   3.033   5.856  0.00  0.00    +0.005 A 
ATOM     13  C   UNL     1      -7.186   1.879   6.427  0.00  0.00    +0.005 A 
ATOM     14  C   UNL     1      -4.471   1.810   5.805  0.00  0.00    +0.000 A 
ATOM     15  C   UNL     1      -6.510   0.660   6.375  0.00  0.00    +0.000 A 
ATOM     16  C   UNL     1      -5.152   0.626   6.066  0.00  0.00    +0.000 A 
ENDBRANCH  10  11
ENDBRANCH   1  10
TORSDOF 2
ENDMDL
MODEL 9
REMARK VINA RESULT:    -4.275     13.684     14.764
REMARK INTER + INTRA:          -4.911
REMARK INTER:                  -4.768
REMARK INTRA:                  -0.143
REMARK UNBOUND:                -0.137
REMARK  Name = 1550473
REMARK  2 active torsions:
REMARK  status: ('A' for Active; 'I' for Inactive)
REMARK    1  A    between atoms: N_1  and  C_4
REMARK    2  A    between atoms: C_4  and  C_5
REMARK                            x       y       z     vdW  Elec       q    Type
REMARK                         _______ _______ _______ _____ _____    ______ ____
ROOT
ATOM      1  N   UNL     1       0.542   1.756   7.262  0.00  0.00    -0.354 N 
ATOM      2  N   UNL     1       2.802   1.452   6.855  0.00  0.00    -0.372 N 
ATOM      3  N   UNL     1       1.820   0.301   8.581  0.00  0.00    -0.372 N 
ATOM      4  C   UNL     1       1.706   1.170   7.571  0.00  0.00    +0.166 C 
ATOM      5  H   UNL     1       0.528   2.429   6.504  0.00  0.00    +0.163 HD
ATOM      6  H   UNL     1       3.693   1.023   7.063  0.00  0.00    +0.159 HD
ATOM      7  H   UNL     1       2.775   2.090   6.069  0.00  0.00    +0.159 HD
ATOM      8  H   UNL     1       1.032   0.050   9.163  0.00  0.00    +0.159 HD
ATOM      9  H   UNL     1       2.707  -0.130   8.812  0.00  0.00    +0.159 HD
ENDROOT
BRANCH   1  10
ATOM     10  C   UNL     1      -0.721   1.477   7.944  0.00  0.00    +0.151 C 
BRANCH  10  11
ATOM     11  C   UNL     1      -1.746   1.059   6.927  0.00  0.00    -0.028 A 
ATOM     12  C   UNL     1      -2.995   1.696   6.871  0.00  0.00    +0.005 A 
ATOM     13  C   UNL     1      -1.474   0.029   6.013  0.00  0.00    +0.005 A 
ATOM     14  C   UNL     1      -3.936   1.328   5.907  0.00  0.00    +0.000 A 
ATOM     15  C   UNL     1      -2.418  -0.336   5.053  0.00  0.00    +0.000 A 
ATOM     16  C   UNL     1      -3.647   0.315   4.999  0.00  0.00    +0.000 A 
ENDBRANCH  10  11
ENDBRANCH   1  10
TORSDOF 2
ENDMDL
