MODEL 1
REMARK VINA RESULT:    -5.351      0.000      0.000
REMARK INTER + INTRA:          -6.122
REMARK INTER:                  -5.977
REMARK INTRA:                  -0.146
REMARK UNBOUND:                -0.146
REMARK  Name = 1550473
REMARK  2 active torsions:
REMARK  status: ('A' for Active; 'I' for Inactive)
REMARK    1  A    between atoms: N_1  and  C_4
REMARK    2  A    between atoms: C_4  and  C_5
REMARK                            x       y       z     vdW  Elec       q    Type
REMARK                         _______ _______ _______ _____ _____    ______ ____
ROOT
ATOM      1  N   UNL     1      -1.024   0.366  13.598  0.00  0.00    -0.354 N 
ATOM      2  N   UNL     1       0.061   0.137  11.565  0.00  0.00    -0.372 N 
ATOM      3  N   UNL     1       0.258  -1.537  13.122  0.00  0.00    -0.372 N 
ATOM      4  C   UNL     1      -0.241  -0.346  12.776  0.00  0.00    +0.166 C 
ATOM      5  H   UNL     1      -1.346   1.276  13.289  0.00  0.00    +0.163 HD
ATOM      6  H   UNL     1       0.647  -0.379  10.922  0.00  0.00    +0.159 HD
ATOM      7  H   UNL     1      -0.299   1.026  11.240  0.00  0.00    +0.159 HD
ATOM      8  H   UNL     1       0.072  -1.954  14.024  0.00  0.00    +0.159 HD
ATOM      9  H   UNL     1       0.855  -2.063  12.497  0.00  0.00    +0.159 HD
ENDROOT
BRANCH   1  10
ATOM     10  C   UNL     1      -1.457  -0.093  14.917  0.00  0.00    +0.151 C 
BRANCH  10  11
ATOM     11  C   UNL     1      -1.078   0.937  15.945  0.00  0.00    -0.028 A 
ATOM     12  C   UNL     1      -1.327   0.709  17.306  0.00  0.00    +0.005 A 
ATOM     13  C   UNL     1      -0.465   2.140  15.564  0.00  0.00    +0.005 A 
ATOM     14  C   UNL     1      -0.948   1.653  18.264  0.00  0.00    +0.000 A 
ATOM     15  C   UNL     1      -0.089   3.081  16.523  0.00  0.00    +0.000 A 
ATOM     16  C   UNL     1      -0.328   2.835  17.873  0.00  0.00    +0.000 A 
ENDBRANCH  10  11
ENDBRANCH   1  10
TORSDOF 2
ENDMDL
MODEL 2
REMARK VINA RESULT:    -5.339      0.547      1.550
REMARK INTER + INTRA:          -6.109
REMARK INTER:                  -5.970
REMARK INTRA:                  -0.139
REMARK UNBOUND:                -0.146
REMARK  Name = 1550473
REMARK  2 active torsions:
REMARK  status: ('A' for Active; 'I' for Inactive)
REMARK    1  A    between atoms: N_1  and  C_4
REMARK    2  A    between atoms: C_4  and  C_5
REMARK                            x       y       z     vdW  Elec       q    Type
REMARK                         _______ _______ _______ _____ _____    ______ ____
ROOT
ATOM      1  N   UNL     1      -0.829   0.187  13.214  0.00  0.00    -0.354 N 
ATOM      2  N   UNL     1       0.252   0.072  11.169  0.00  0.00    -0.372 N 
ATOM      3  N   UNL     1       0.123  -1.818  12.463  0.00  0.00    -0.372 N 
ATOM      4  C   UNL     1      -0.158  -0.522  12.297  0.00  0.00    +0.166 C 
ATOM      5  H   UNL     1      -0.984   1.174  13.042  0.00  0.00    +0.163 HD
ATOM      6  H   UNL     1       0.757  -0.438  10.457  0.00  0.00    +0.159 HD
ATOM      7  H   UNL     1       0.055   1.047  10.979  0.00  0.00    +0.159 HD
ATOM      8  H   UNL     1      -0.153  -2.323  13.295  0.00  0.00    +0.159 HD
ATOM      9  H   UNL     1       0.638  -2.343  11.767  0.00  0.00    +0.159 HD
ENDROOT
BRANCH   1  10
ATOM     10  C   UNL     1      -1.366  -0.377  14.451  0.00  0.00    +0.151 C 
BRANCH  10  11
ATOM     11  C   UNL     1      -1.097   0.576  15.583  0.00  0.00    -0.028 A 
ATOM     12  C   UNL     1      -0.498   1.820  15.339  0.00  0.00    +0.005 A 
ATOM     13  C   UNL     1      -1.444   0.243  16.901  0.00  0.00    +0.005 A 
ATOM     14  C   UNL     1      -0.275   2.718  16.386  0.00  0.00    +0.000 A 
ATOM     15  C   UNL     1      -1.220   1.142  17.944  0.00  0.00    +0.000 A 
ATOM     16  C   UNL     1      -0.637   2.380  17.685  0.00  0.00    +0.000 A 
ENDBRANCH  10  11
ENDBRANCH   1  10
TORSDOF 2
ENDMDL
MODEL 3
REMARK VINA RESULT:    -5.225     11.340     12.415
REMARK INTER + INTRA:          -5.981
REMARK INTER:                  -5.856
REMARK INTRA:                  -0.125
REMARK UNBOUND:                -0.146
REMARK  Name = 1550473
REMARK  2 active torsions:
REMARK  status: ('A' for Active; 'I' for Inactive)
REMARK    1  A    between atoms: N_1  and  C_4
REMARK    2  A    between atoms: C_4  and  C_5
REMARK                            x       y       z     vdW  Elec       q    Type
REMARK                         _______ _______ _______ _____ _____    ______ ____
ROOT
ATOM      1  N   UNL     1       7.396  -0.748   4.961  0.00  0.00    -0.354 N 
ATOM      2  N   UNL     1       9.135  -0.226   3.523  0.00  0.00    -0.372 N 
ATOM      3  N   UNL     1       8.668   1.197   5.262  0.00  0.00    -0.372 N 
ATOM      4  C   UNL     1       8.388   0.073   4.593  0.00  0.00    +0.166 C 
ATOM      5  H   UNL     1       7.216  -1.569   4.395  0.00  0.00    +0.163 HD
ATOM      6  H   UNL     1       9.893   0.373   3.223  0.00  0.00    +0.159 HD
ATOM      7  H   UNL     1       8.982  -1.070   2.986  0.00  0.00    +0.159 HD
ATOM      8  H   UNL     1       8.138   1.483   6.074  0.00  0.00    +0.159 HD
ATOM      9  H   UNL     1       9.415   1.815   4.970  0.00  0.00    +0.159 HD
ENDROOT
BRANCH   1  10
ATOM     10  C   UNL     1       6.560  -0.542   6.142  0.00  0.00    +0.151 C 
BRANCH  10  11
ATOM     11  C   UNL     1       6.838  -1.633   7.138  0.00  0.00    -0.028 A 
ATOM     12  C   UNL     1       5.793  -2.417   7.647  0.00  0.00    +0.005 A 
ATOM     13  C   UNL     1       8.147  -1.891   7.574  0.00  0.00    +0.005 A 
ATOM     14  C   UNL     1       6.055  -3.451   8.549  0.00  0.00    +0.000 A 
ATOM     15  C   UNL     1       8.404  -2.923   8.477  0.00  0.00    +0.000 A 
ATOM     16  C   UNL     1       7.358  -3.704   8.962  0.00  0.00    +0.000 A 
ENDBRANCH  10  11
ENDBRANCH   1  10
TORSDOF 2
ENDMDL
MODEL 4
REMARK VINA RESULT:    -5.184     13.035     14.221
REMARK INTER + INTRA:          -5.936
REMARK INTER:                  -5.785
REMARK INTRA:                  -0.151
REMARK UNBOUND:                -0.146
REMARK  Name = 1550473
REMARK  2 active torsions:
REMARK  status: ('A' for Active; 'I' for Inactive)
REMARK    1  A    between atoms: N_1  and  C_4
REMARK    2  A    between atoms: C_4  and  C_5
REMARK                            x       y       z     vdW  Elec       q    Type
REMARK                         _______ _______ _______ _____ _____    ______ ____
ROOT
ATOM      1  N   UNL     1       9.742  -1.405   4.984  0.00  0.00    -0.354 N 
ATOM      2  N   UNL     1       8.601   0.209   3.778  0.00  0.00    -0.372 N 
ATOM      3  N   UNL     1       7.401  -1.313   5.006  0.00  0.00    -0.372 N 
ATOM      4  C   UNL     1       8.586  -0.848   4.598  0.00  0.00    +0.166 C 
ATOM      5  H   UNL     1      10.606  -1.025   4.616  0.00  0.00    +0.163 HD
ATOM      6  H   UNL     1       7.745   0.652   3.472  0.00  0.00    +0.159 HD
ATOM      7  H   UNL     1       9.468   0.616   3.448  0.00  0.00    +0.159 HD
ATOM      8  H   UNL     1       7.321  -2.111   5.621  0.00  0.00    +0.159 HD
ATOM      9  H   UNL     1       6.533  -0.890   4.702  0.00  0.00    +0.159 HD
ENDROOT
BRANCH   1  10
ATOM     10  C   UNL     1       9.838  -2.526   5.918  0.00  0.00    +0.151 C 
BRANCH  10  11
ATOM     11  C   UNL     1      10.631  -2.096   7.122  0.00  0.00    -0.028 A 
ATOM     12  C   UNL     1      12.006  -2.361   7.200  0.00  0.00    +0.005 A 
ATOM     13  C   UNL     1      10.014  -1.419   8.184  0.00  0.00    +0.005 A 
ATOM     14  C   UNL     1      12.749  -1.935   8.304  0.00  0.00    +0.000 A 
ATOM     15  C   UNL     1      10.759  -0.996   9.285  0.00  0.00    +0.000 A 
ATOM     16  C   UNL     1      12.126  -1.252   9.344  0.00  0.00    +0.000 A 
ENDBRANCH  10  11
ENDBRANCH   1  10
TORSDOF 2
ENDMDL
MODEL 5
REMARK VINA RESULT:    -5.060      4.630      6.155
REMARK INTER + INTRA:          -5.798
REMARK INTER:                  -5.645
REMARK INTRA:                  -0.153
REMARK UNBOUND:                -0.146
REMARK  Name = 1550473
REMARK  2 active torsions:
REMARK  status: ('A' for Active; 'I' for Inactive)
REMARK    1  A    between atoms: N_1  and  C_4
REMARK    2  A    between atoms: C_4  and  C_5
REMARK                            x       y       z     vdW  Elec       q    Type
REMARK                         _______ _______ _______ _____ _____    ______ ____
ROOT
ATOM      1  N   UNL     1      -1.602   3.644  20.054  0.00  0.00    -0.354 N 
ATOM      2  N   UNL     1      -2.072   5.851  20.579  0.00  0.00    -0.372 N 
ATOM      3  N   UNL     1       0.082   5.092  20.801  0.00  0.00    -0.372 N 
ATOM      4  C   UNL     1      -1.192   4.848  20.476  0.00  0.00    +0.166 C 
ATOM      5  H   UNL     1      -2.587   3.515  19.852  0.00  0.00    +0.163 HD
ATOM      6  H   UNL     1      -1.791   6.771  20.891  0.00  0.00    +0.159 HD
ATOM      7  H   UNL     1      -3.047   5.731  20.333  0.00  0.00    +0.159 HD
ATOM      8  H   UNL     1       0.794   4.376  20.751  0.00  0.00    +0.159 HD
ATOM      9  H   UNL     1       0.381   6.003  21.127  0.00  0.00    +0.159 HD
ENDROOT
BRANCH   1  10
ATOM     10  C   UNL     1      -0.714   2.501  19.855  0.00  0.00    +0.151 C 
BRANCH  10  11
ATOM     11  C   UNL     1      -0.721   2.120  18.400  0.00  0.00    -0.028 A 
ATOM     12  C   UNL     1      -1.238   0.883  17.990  0.00  0.00    +0.005 A 
ATOM     13  C   UNL     1      -0.217   2.996  17.426  0.00  0.00    +0.005 A 
ATOM     14  C   UNL     1      -1.272   0.542  16.636  0.00  0.00    +0.000 A 
ATOM     15  C   UNL     1      -0.252   2.651  16.075  0.00  0.00    +0.000 A 
ATOM     16  C   UNL     1      -0.782   1.425  15.680  0.00  0.00    +0.000 A 
ENDBRANCH  10  11
ENDBRANCH   1  10
TORSDOF 2
ENDMDL
MODEL 6
REMARK VINA RESULT:    -5.016     12.368     13.537
REMARK INTER + INTRA:          -5.747
REMARK INTER:                  -5.591
REMARK INTRA:                  -0.157
REMARK UNBOUND:                -0.146
REMARK  Name = 1550473
REMARK  2 active torsions:
REMARK  status: ('A' for Active; 'I' for Inactive)
REMARK    1  A    between atoms: N_1  and  C_4
REMARK    2  A    between atoms: C_4  and  C_5
REMARK                            x       y       z     vdW  Elec       q    Type
REMARK                         _______ _______ _______ _____ _____    ______ ____
ROOT
ATOM      1  N   UNL     1      11.452  -0.973   7.207  0.00  0.00    -0.354 N 
ATOM      2  N   UNL     1      13.103  -1.983   5.934  0.00  0.00    -0.372 N 
ATOM      3  N   UNL     1      12.573  -2.882   7.977  0.00  0.00    -0.372 N 
ATOM      4  C   UNL     1      12.365  -1.941   7.050  0.00  0.00    +0.166 C 
ATOM      5  H   UNL     1      11.365  -0.272   6.480  0.00  0.00    +0.163 HD
ATOM      6  H   UNL     1      13.797  -2.703   5.786  0.00  0.00    +0.159 HD
ATOM      7  H   UNL     1      12.981  -1.307   5.189  0.00  0.00    +0.159 HD
ATOM      8  H   UNL     1      12.053  -2.903   8.844  0.00  0.00    +0.159 HD
ATOM      9  H   UNL     1      13.271  -3.604   7.852  0.00  0.00    +0.159 HD
ENDROOT
BRANCH   1  10
ATOM     10  C   UNL     1      10.561  -0.870   8.361  0.00  0.00    +0.151 C 
BRANCH  10  11
ATOM     11  C   UNL     1       9.146  -1.113   7.912  0.00  0.00    -0.028 A 
ATOM     12  C   UNL     1       8.509  -2.331   8.191  0.00  0.00    +0.005 A 
ATOM     13  C   UNL     1       8.435  -0.126   7.211  0.00  0.00    +0.005 A 
ATOM     14  C   UNL     1       7.185  -2.545   7.801  0.00  0.00    +0.000 A 
ATOM     15  C   UNL     1       7.113  -0.345   6.822  0.00  0.00    +0.000 A 
ATOM     16  C   UNL     1       6.488  -1.553   7.119  0.00  0.00    +0.000 A 
ENDBRANCH  10  11
ENDBRANCH   1  10
TORSDOF 2
ENDMDL
MODEL 7
REMARK VINA RESULT:    -4.951     12.572     13.945
REMARK INTER + INTRA:          -5.675
REMARK INTER:                  -5.520
REMARK INTRA:                  -0.155
REMARK UNBOUND:                -0.146
REMARK  Name = 1550473
REMARK  2 active torsions:
REMARK  status: ('A' for Active; 'I' for Inactive)
REMARK    1  A    between atoms: N_1  and  C_4
REMARK    2  A    between atoms: C_4  and  C_5
REMARK                            x       y       z     vdW  Elec       q    Type
REMARK                         _______ _______ _______ _____ _____    ______ ____
ROOT
ATOM      1  N   UNL     1      11.571  -1.925   6.301  0.00  0.00    -0.354 N 
ATOM      2  N   UNL     1      12.254  -2.352   4.129  0.00  0.00    -0.372 N 
ATOM      3  N   UNL     1      10.930  -3.891   5.198  0.00  0.00    -0.372 N 
ATOM      4  C   UNL     1      11.579  -2.723   5.224  0.00  0.00    +0.166 C 
ATOM      5  H   UNL     1      12.108  -1.066   6.267  0.00  0.00    +0.163 HD
ATOM      6  H   UNL     1      12.275  -2.931   3.301  0.00  0.00    +0.159 HD
ATOM      7  H   UNL     1      12.752  -1.472   4.082  0.00  0.00    +0.159 HD
ATOM      8  H   UNL     1      10.407  -4.231   5.995  0.00  0.00    +0.159 HD
ATOM      9  H   UNL     1      10.949  -4.491   4.383  0.00  0.00    +0.159 HD
ENDROOT
BRANCH   1  10
ATOM     10  C   UNL     1      10.824  -2.211   7.524  0.00  0.00    +0.151 C 
BRANCH  10  11
ATOM     11  C   UNL     1       9.434  -1.652   7.392  0.00  0.00    -0.028 A 
ATOM     12  C   UNL     1       9.235  -0.285   7.152  0.00  0.00    +0.005 A 
ATOM     13  C   UNL     1       8.310  -2.487   7.500  0.00  0.00    +0.005 A 
ATOM     14  C   UNL     1       7.945   0.229   6.999  0.00  0.00    +0.000 A 
ATOM     15  C   UNL     1       7.024  -1.970   7.348  0.00  0.00    +0.000 A 
ATOM     16  C   UNL     1       6.842  -0.612   7.095  0.00  0.00    +0.000 A 
ENDBRANCH  10  11
ENDBRANCH   1  10
TORSDOF 2
ENDMDL
MODEL 8
REMARK VINA RESULT:    -4.941     10.641     12.060
REMARK INTER + INTRA:          -5.665
REMARK INTER:                  -5.526
REMARK INTRA:                  -0.138
REMARK UNBOUND:                -0.146
REMARK  Name = 1550473
REMARK  2 active torsions:
REMARK  status: ('A' for Active; 'I' for Inactive)
REMARK    1  A    between atoms: N_1  and  C_4
REMARK    2  A    between atoms: C_4  and  C_5
REMARK                            x       y       z     vdW  Elec       q    Type
REMARK                         _______ _______ _______ _____ _____    ______ ____
ROOT
ATOM      1  N   UNL     1       8.108  -0.937   6.107  0.00  0.00    -0.354 N 
ATOM      2  N   UNL     1       8.652  -0.166   3.992  0.00  0.00    -0.372 N 
ATOM      3  N   UNL     1       9.901  -1.857   4.911  0.00  0.00    -0.372 N 
ATOM      4  C   UNL     1       8.886  -0.994   5.018  0.00  0.00    +0.166 C 
ATOM      5  H   UNL     1       7.374  -0.240   6.139  0.00  0.00    +0.163 HD
ATOM      6  H   UNL     1       9.220  -0.188   3.156  0.00  0.00    +0.159 HD
ATOM      7  H   UNL     1       7.888   0.499   4.008  0.00  0.00    +0.159 HD
ATOM      8  H   UNL     1      10.133  -2.505   5.652  0.00  0.00    +0.159 HD
ATOM      9  H   UNL     1      10.488  -1.886   4.086  0.00  0.00    +0.159 HD
ENDROOT
BRANCH   1  10
ATOM     10  C   UNL     1       8.245  -1.831   7.256  0.00  0.00    +0.151 C 
BRANCH  10  11
ATOM     11  C   UNL     1       6.886  -2.350   7.638  0.00  0.00    -0.028 A 
ATOM     12  C   UNL     1       6.761  -3.431   8.523  0.00  0.00    +0.005 A 
ATOM     13  C   UNL     1       5.721  -1.762   7.124  0.00  0.00    +0.005 A 
ATOM     14  C   UNL     1       5.498  -3.895   8.902  0.00  0.00    +0.000 A 
ATOM     15  C   UNL     1       4.462  -2.229   7.504  0.00  0.00    +0.000 A 
ATOM     16  C   UNL     1       4.352  -3.293   8.395  0.00  0.00    +0.000 A 
ENDBRANCH  10  11
ENDBRANCH   1  10
TORSDOF 2
ENDMDL
MODEL 9
REMARK VINA RESULT:    -4.930     11.787     13.186
REMARK INTER + INTRA:          -5.652
REMARK INTER:                  -5.523
REMARK INTRA:                  -0.129
REMARK UNBOUND:                -0.146
REMARK  Name = 1550473
REMARK  2 active torsions:
REMARK  status: ('A' for Active; 'I' for Inactive)
REMARK    1  A    between atoms: N_1  and  C_4
REMARK    2  A    between atoms: C_4  and  C_5
REMARK                            x       y       z     vdW  Elec       q    Type
REMARK                         _______ _______ _______ _____ _____    ______ ____
ROOT
ATOM      1  N   UNL     1      10.830  -1.611   7.552  0.00  0.00    -0.354 N 
ATOM      2  N   UNL     1      12.990  -2.014   8.286  0.00  0.00    -0.372 N 
ATOM      3  N   UNL     1      12.339   0.150   7.888  0.00  0.00    -0.372 N 
ATOM      4  C   UNL     1      12.039  -1.153   7.903  0.00  0.00    +0.166 C 
ATOM      5  H   UNL     1      10.675  -2.613   7.556  0.00  0.00    +0.163 HD
ATOM      6  H   UNL     1      13.910  -1.697   8.559  0.00  0.00    +0.159 HD
ATOM      7  H   UNL     1      12.818  -3.011   8.333  0.00  0.00    +0.159 HD
ATOM      8  H   UNL     1      11.667   0.851   7.604  0.00  0.00    +0.159 HD
ATOM      9  H   UNL     1      13.258   0.486   8.147  0.00  0.00    +0.159 HD
ENDROOT
BRANCH   1  10
ATOM     10  C   UNL     1       9.709  -0.753   7.172  0.00  0.00    +0.151 C 
BRANCH  10  11
ATOM     11  C   UNL     1       8.420  -1.463   7.482  0.00  0.00    -0.028 A 
ATOM     12  C   UNL     1       7.204  -0.989   6.968  0.00  0.00    +0.005 A 
ATOM     13  C   UNL     1       8.408  -2.615   8.284  0.00  0.00    +0.005 A 
ATOM     14  C   UNL     1       6.011  -1.665   7.230  0.00  0.00    +0.000 A 
ATOM     15  C   UNL     1       7.214  -3.287   8.544  0.00  0.00    +0.000 A 
ATOM     16  C   UNL     1       6.016  -2.813   8.015  0.00  0.00    +0.000 A 
ENDBRANCH  10  11
ENDBRANCH   1  10
TORSDOF 2
ENDMDL
