MODEL 1
REMARK VINA RESULT:    -5.857      0.000      0.000
REMARK INTER + INTRA:          -6.634
REMARK INTER:                  -6.542
REMARK INTRA:                  -0.092
REMARK UNBOUND:                -0.092
REMARK  Name = 1550473
REMARK  2 active torsions:
REMARK  status: ('A' for Active; 'I' for Inactive)
REMARK    1  A    between atoms: N_1  and  C_4
REMARK    2  A    between atoms: C_4  and  C_5
REMARK                            x       y       z     vdW  Elec       q    Type
REMARK                         _______ _______ _______ _____ _____    ______ ____
ROOT
ATOM      1  N   UNL     1      -1.409   9.029   4.420  0.00  0.00    -0.354 N 
ATOM      2  N   UNL     1      -3.001   9.780   5.925  0.00  0.00    -0.372 N 
ATOM      3  N   UNL     1      -3.527   8.031   4.536  0.00  0.00    -0.372 N 
ATOM      4  C   UNL     1      -2.637   8.940   4.949  0.00  0.00    +0.166 C 
ATOM      5  H   UNL     1      -0.792   9.759   4.756  0.00  0.00    +0.163 HD
ATOM      6  H   UNL     1      -3.919   9.735   6.346  0.00  0.00    +0.159 HD
ATOM      7  H   UNL     1      -2.366  10.480   6.291  0.00  0.00    +0.159 HD
ATOM      8  H   UNL     1      -3.316   7.372   3.799  0.00  0.00    +0.159 HD
ATOM      9  H   UNL     1      -4.455   7.978   4.937  0.00  0.00    +0.159 HD
ENDROOT
BRANCH   1  10
ATOM     10  C   UNL     1      -0.896   8.127   3.390  0.00  0.00    +0.151 C 
BRANCH  10  11
ATOM     11  C   UNL     1       0.554   8.441   3.141  0.00  0.00    -0.028 A 
ATOM     12  C   UNL     1       1.561   7.616   3.663  0.00  0.00    +0.005 A 
ATOM     13  C   UNL     1       0.927   9.559   2.379  0.00  0.00    +0.005 A 
ATOM     14  C   UNL     1       2.907   7.890   3.407  0.00  0.00    +0.000 A 
ATOM     15  C   UNL     1       2.271   9.830   2.126  0.00  0.00    +0.000 A 
ATOM     16  C   UNL     1       3.261   8.994   2.638  0.00  0.00    +0.000 A 
ENDBRANCH  10  11
ENDBRANCH   1  10
TORSDOF 2
ENDMDL
MODEL 2
REMARK VINA RESULT:    -5.788      0.878      1.852
REMARK INTER + INTRA:          -6.557
REMARK INTER:                  -6.388
REMARK INTRA:                  -0.169
REMARK UNBOUND:                -0.092
REMARK  Name = 1550473
REMARK  2 active torsions:
REMARK  status: ('A' for Active; 'I' for Inactive)
REMARK    1  A    between atoms: N_1  and  C_4
REMARK    2  A    between atoms: C_4  and  C_5
REMARK                            x       y       z     vdW  Elec       q    Type
REMARK                         _______ _______ _______ _____ _____    ______ ____
ROOT
ATOM      1  N   UNL     1      -1.613   9.401   4.075  0.00  0.00    -0.354 N 
ATOM      2  N   UNL     1      -2.927   9.730   5.953  0.00  0.00    -0.372 N 
ATOM      3  N   UNL     1      -3.283   7.866   4.663  0.00  0.00    -0.372 N 
ATOM      4  C   UNL     1      -2.600   8.994   4.884  0.00  0.00    +0.166 C 
ATOM      5  H   UNL     1      -1.154  10.281   4.280  0.00  0.00    +0.163 HD
ATOM      6  H   UNL     1      -3.666   9.447   6.583  0.00  0.00    +0.159 HD
ATOM      7  H   UNL     1      -2.436  10.585   6.182  0.00  0.00    +0.159 HD
ATOM      8  H   UNL     1      -3.090   7.270   3.870  0.00  0.00    +0.159 HD
ATOM      9  H   UNL     1      -4.034   7.572   5.275  0.00  0.00    +0.159 HD
ENDROOT
BRANCH   1  10
ATOM     10  C   UNL     1      -1.143   8.646   2.915  0.00  0.00    +0.151 C 
BRANCH  10  11
ATOM     11  C   UNL     1       0.190   8.029   3.236  0.00  0.00    -0.028 A 
ATOM     12  C   UNL     1       1.379   8.648   2.823  0.00  0.00    +0.005 A 
ATOM     13  C   UNL     1       0.272   6.829   3.959  0.00  0.00    +0.005 A 
ATOM     14  C   UNL     1       2.619   8.092   3.148  0.00  0.00    +0.000 A 
ATOM     15  C   UNL     1       1.511   6.276   4.280  0.00  0.00    +0.000 A 
ATOM     16  C   UNL     1       2.684   6.909   3.876  0.00  0.00    +0.000 A 
ENDBRANCH  10  11
ENDBRANCH   1  10
TORSDOF 2
ENDMDL
MODEL 3
REMARK VINA RESULT:    -5.571      3.587      5.272
REMARK INTER + INTRA:          -6.315
REMARK INTER:                  -6.131
REMARK INTRA:                  -0.184
REMARK UNBOUND:                -0.092
REMARK  Name = 1550473
REMARK  2 active torsions:
REMARK  status: ('A' for Active; 'I' for Inactive)
REMARK    1  A    between atoms: N_1  and  C_4
REMARK    2  A    between atoms: C_4  and  C_5
REMARK                            x       y       z     vdW  Elec       q    Type
REMARK                         _______ _______ _______ _____ _____    ______ ____
ROOT
ATOM      1  N   UNL     1       2.832   6.995   2.435  0.00  0.00    -0.354 N 
ATOM      2  N   UNL     1       3.804   4.892   2.430  0.00  0.00    -0.372 N 
ATOM      3  N   UNL     1       3.391   5.918   4.440  0.00  0.00    -0.372 N 
ATOM      4  C   UNL     1       3.336   5.949   3.105  0.00  0.00    +0.166 C 
ATOM      5  H   UNL     1       2.847   6.969   1.422  0.00  0.00    +0.163 HD
ATOM      6  H   UNL     1       4.186   4.087   2.908  0.00  0.00    +0.159 HD
ATOM      7  H   UNL     1       3.775   4.850   1.419  0.00  0.00    +0.159 HD
ATOM      8  H   UNL     1       3.060   6.687   5.008  0.00  0.00    +0.159 HD
ATOM      9  H   UNL     1       3.782   5.127   4.937  0.00  0.00    +0.159 HD
ENDROOT
BRANCH   1  10
ATOM     10  C   UNL     1       2.249   8.172   3.076  0.00  0.00    +0.151 C 
BRANCH  10  11
ATOM     11  C   UNL     1       0.750   8.047   3.062  0.00  0.00    -0.028 A 
ATOM     12  C   UNL     1       0.026   8.298   1.888  0.00  0.00    +0.005 A 
ATOM     13  C   UNL     1       0.049   7.671   4.219  0.00  0.00    +0.005 A 
ATOM     14  C   UNL     1      -1.364   8.152   1.866  0.00  0.00    +0.000 A 
ATOM     15  C   UNL     1      -1.338   7.528   4.193  0.00  0.00    +0.000 A 
ATOM     16  C   UNL     1      -2.043   7.766   3.017  0.00  0.00    +0.000 A 
ENDBRANCH  10  11
ENDBRANCH   1  10
TORSDOF 2
ENDMDL
MODEL 4
REMARK VINA RESULT:    -5.569      4.495      6.202
REMARK INTER + INTRA:          -6.312
REMARK INTER:                  -6.221
REMARK INTRA:                  -0.091
REMARK UNBOUND:                -0.092
REMARK  Name = 1550473
REMARK  2 active torsions:
REMARK  status: ('A' for Active; 'I' for Inactive)
REMARK    1  A    between atoms: N_1  and  C_4
REMARK    2  A    between atoms: C_4  and  C_5
REMARK                            x       y       z     vdW  Elec       q    Type
REMARK                         _______ _______ _______ _____ _____    ______ ____
ROOT
ATOM      1  N   UNL     1       3.851   7.851   0.345  0.00  0.00    -0.354 N 
ATOM      2  N   UNL     1       5.118   7.215  -1.486  0.00  0.00    -0.372 N 
ATOM      3  N   UNL     1       5.260   9.379  -0.737  0.00  0.00    -0.372 N 
ATOM      4  C   UNL     1       4.736   8.156  -0.614  0.00  0.00    +0.166 C 
ATOM      5  H   UNL     1       3.468   6.913   0.366  0.00  0.00    +0.163 HD
ATOM      6  H   UNL     1       5.787   7.414  -2.218  0.00  0.00    +0.159 HD
ATOM      7  H   UNL     1       4.768   6.266  -1.434  0.00  0.00    +0.159 HD
ATOM      8  H   UNL     1       5.008  10.135  -0.114  0.00  0.00    +0.159 HD
ATOM      9  H   UNL     1       5.922   9.601  -1.470  0.00  0.00    +0.159 HD
ENDROOT
BRANCH   1  10
ATOM     10  C   UNL     1       3.409   8.788   1.377  0.00  0.00    +0.151 C 
BRANCH  10  11
ATOM     11  C   UNL     1       2.363   8.123   2.228  0.00  0.00    -0.028 A 
ATOM     12  C   UNL     1       2.733   7.233   3.247  0.00  0.00    +0.005 A 
ATOM     13  C   UNL     1       0.999   8.384   2.025  0.00  0.00    +0.005 A 
ATOM     14  C   UNL     1       1.763   6.638   4.057  0.00  0.00    +0.000 A 
ATOM     15  C   UNL     1       0.033   7.787   2.836  0.00  0.00    +0.000 A 
ATOM     16  C   UNL     1       0.416   6.917   3.853  0.00  0.00    +0.000 A 
ENDBRANCH  10  11
ENDBRANCH   1  10
TORSDOF 2
ENDMDL
MODEL 5
REMARK VINA RESULT:    -4.962      1.871      2.645
REMARK INTER + INTRA:          -5.633
REMARK INTER:                  -5.530
REMARK INTRA:                  -0.104
REMARK UNBOUND:                -0.092
REMARK  Name = 1550473
REMARK  2 active torsions:
REMARK  status: ('A' for Active; 'I' for Inactive)
REMARK    1  A    between atoms: N_1  and  C_4
REMARK    2  A    between atoms: C_4  and  C_5
REMARK                            x       y       z     vdW  Elec       q    Type
REMARK                         _______ _______ _______ _____ _____    ______ ____
ROOT
ATOM      1  N   UNL     1      -1.213  10.573   2.828  0.00  0.00    -0.354 N 
ATOM      2  N   UNL     1      -3.478  10.094   2.870  0.00  0.00    -0.372 N 
ATOM      3  N   UNL     1      -2.423  10.288   0.841  0.00  0.00    -0.372 N 
ATOM      4  C   UNL     1      -2.356  10.322   2.177  0.00  0.00    +0.166 C 
ATOM      5  H   UNL     1      -1.235  10.615   3.840  0.00  0.00    +0.163 HD
ATOM      6  H   UNL     1      -4.355   9.898   2.406  0.00  0.00    +0.159 HD
ATOM      7  H   UNL     1      -3.488  10.091   3.882  0.00  0.00    +0.159 HD
ATOM      8  H   UNL     1      -1.613  10.458   0.260  0.00  0.00    +0.159 HD
ATOM      9  H   UNL     1      -3.294  10.106   0.359  0.00  0.00    +0.159 HD
ENDROOT
BRANCH   1  10
ATOM     10  C   UNL     1       0.075  10.782   2.168  0.00  0.00    +0.151 C 
BRANCH  10  11
ATOM     11  C   UNL     1       1.012   9.672   2.558  0.00  0.00    -0.028 A 
ATOM     12  C   UNL     1       2.399   9.830   2.422  0.00  0.00    +0.005 A 
ATOM     13  C   UNL     1       0.519   8.462   3.071  0.00  0.00    +0.005 A 
ATOM     14  C   UNL     1       3.271   8.811   2.812  0.00  0.00    +0.000 A 
ATOM     15  C   UNL     1       1.393   7.447   3.458  0.00  0.00    +0.000 A 
ATOM     16  C   UNL     1       2.769   7.622   3.331  0.00  0.00    +0.000 A 
ENDBRANCH  10  11
ENDBRANCH   1  10
TORSDOF 2
ENDMDL
MODEL 6
REMARK VINA RESULT:    -4.886      5.241      6.701
REMARK INTER + INTRA:          -5.549
REMARK INTER:                  -5.416
REMARK INTRA:                  -0.133
REMARK UNBOUND:                -0.092
REMARK  Name = 1550473
REMARK  2 active torsions:
REMARK  status: ('A' for Active; 'I' for Inactive)
REMARK    1  A    between atoms: N_1  and  C_4
REMARK    2  A    between atoms: C_4  and  C_5
REMARK                            x       y       z     vdW  Elec       q    Type
REMARK                         _______ _______ _______ _____ _____    ______ ____
ROOT
ATOM      1  N   UNL     1       3.521   7.978   0.555  0.00  0.00    -0.354 N 
ATOM      2  N   UNL     1       2.378   7.221   2.421  0.00  0.00    -0.372 N 
ATOM      3  N   UNL     1       3.536   9.197   2.556  0.00  0.00    -0.372 N 
ATOM      4  C   UNL     1       3.154   8.139   1.833  0.00  0.00    +0.166 C 
ATOM      5  H   UNL     1       3.223   7.139   0.070  0.00  0.00    +0.163 HD
ATOM      6  H   UNL     1       2.082   7.318   3.383  0.00  0.00    +0.159 HD
ATOM      7  H   UNL     1       2.044   6.406   1.921  0.00  0.00    +0.159 HD
ATOM      8  H   UNL     1       4.127   9.923   2.172  0.00  0.00    +0.159 HD
ATOM      9  H   UNL     1       3.260   9.306   3.523  0.00  0.00    +0.159 HD
ENDROOT
BRANCH   1  10
ATOM     10  C   UNL     1       4.320   8.946  -0.195  0.00  0.00    +0.151 C 
BRANCH  10  11
ATOM     11  C   UNL     1       5.264   8.206  -1.102  0.00  0.00    -0.028 A 
ATOM     12  C   UNL     1       5.120   6.826  -1.307  0.00  0.00    +0.005 A 
ATOM     13  C   UNL     1       6.302   8.880  -1.764  0.00  0.00    +0.005 A 
ATOM     14  C   UNL     1       5.978   6.144  -2.173  0.00  0.00    +0.000 A 
ATOM     15  C   UNL     1       7.157   8.195  -2.627  0.00  0.00    +0.000 A 
ATOM     16  C   UNL     1       6.994   6.828  -2.833  0.00  0.00    +0.000 A 
ENDBRANCH  10  11
ENDBRANCH   1  10
TORSDOF 2
ENDMDL
MODEL 7
REMARK VINA RESULT:    -4.875     14.619     15.399
REMARK INTER + INTRA:          -5.537
REMARK INTER:                  -5.413
REMARK INTRA:                  -0.124
REMARK UNBOUND:                -0.092
REMARK  Name = 1550473
REMARK  2 active torsions:
REMARK  status: ('A' for Active; 'I' for Inactive)
REMARK    1  A    between atoms: N_1  and  C_4
REMARK    2  A    between atoms: C_4  and  C_5
REMARK                            x       y       z     vdW  Elec       q    Type
REMARK                         _______ _______ _______ _____ _____    ______ ____
ROOT
ATOM      1  N   UNL     1       3.904  -0.675  -8.329  0.00  0.00    -0.354 N 
ATOM      2  N   UNL     1       6.052  -1.038  -9.117  0.00  0.00    -0.372 N 
ATOM      3  N   UNL     1       5.049  -2.661  -7.842  0.00  0.00    -0.372 N 
ATOM      4  C   UNL     1       4.987  -1.458  -8.422  0.00  0.00    +0.166 C 
ATOM      5  H   UNL     1       3.932   0.239  -8.766  0.00  0.00    +0.163 HD
ATOM      6  H   UNL     1       6.882  -1.608  -9.207  0.00  0.00    +0.159 HD
ATOM      7  H   UNL     1       6.059  -0.143  -9.591  0.00  0.00    +0.159 HD
ATOM      8  H   UNL     1       4.282  -3.034  -7.299  0.00  0.00    +0.159 HD
ATOM      9  H   UNL     1       5.876  -3.242  -7.912  0.00  0.00    +0.159 HD
ENDROOT
BRANCH   1  10
ATOM     10  C   UNL     1       2.673  -1.061  -7.642  0.00  0.00    +0.151 C 
BRANCH  10  11
ATOM     11  C   UNL     1       1.808   0.156  -7.463  0.00  0.00    -0.028 A 
ATOM     12  C   UNL     1       2.355   1.442  -7.583  0.00  0.00    +0.005 A 
ATOM     13  C   UNL     1       0.439   0.029  -7.180  0.00  0.00    +0.005 A 
ATOM     14  C   UNL     1       1.545   2.572  -7.446  0.00  0.00    +0.000 A 
ATOM     15  C   UNL     1      -0.365   1.161  -7.043  0.00  0.00    +0.000 A 
ATOM     16  C   UNL     1       0.188   2.432  -7.179  0.00  0.00    +0.000 A 
ENDBRANCH  10  11
ENDBRANCH   1  10
TORSDOF 2
ENDMDL
MODEL 8
REMARK VINA RESULT:    -4.857      4.971      6.526
REMARK INTER + INTRA:          -5.517
REMARK INTER:                  -5.370
REMARK INTRA:                  -0.147
REMARK UNBOUND:                -0.092
REMARK  Name = 1550473
REMARK  2 active torsions:
REMARK  status: ('A' for Active; 'I' for Inactive)
REMARK    1  A    between atoms: N_1  and  C_4
REMARK    2  A    between atoms: C_4  and  C_5
REMARK                            x       y       z     vdW  Elec       q    Type
REMARK                         _______ _______ _______ _____ _____    ______ ____
ROOT
ATOM      1  N   UNL     1       3.389   7.191   0.604  0.00  0.00    -0.354 N 
ATOM      2  N   UNL     1       1.637   7.998   1.886  0.00  0.00    -0.372 N 
ATOM      3  N   UNL     1       3.583   9.209   1.780  0.00  0.00    -0.372 N 
ATOM      4  C   UNL     1       2.883   8.130   1.415  0.00  0.00    +0.166 C 
ATOM      5  H   UNL     1       2.819   6.382   0.390  0.00  0.00    +0.163 HD
ATOM      6  H   UNL     1       1.227   8.691   2.497  0.00  0.00    +0.159 HD
ATOM      7  H   UNL     1       1.052   7.210   1.633  0.00  0.00    +0.159 HD
ATOM      8  H   UNL     1       4.531   9.365   1.464  0.00  0.00    +0.159 HD
ATOM      9  H   UNL     1       3.194   9.908   2.400  0.00  0.00    +0.159 HD
ENDROOT
BRANCH   1  10
ATOM     10  C   UNL     1       4.716   7.267  -0.005  0.00  0.00    +0.151 C 
BRANCH  10  11
ATOM     11  C   UNL     1       5.536   6.093   0.457  0.00  0.00    -0.028 A 
ATOM     12  C   UNL     1       4.937   5.041   1.165  0.00  0.00    +0.005 A 
ATOM     13  C   UNL     1       6.911   6.026   0.184  0.00  0.00    +0.005 A 
ATOM     14  C   UNL     1       5.692   3.937   1.568  0.00  0.00    +0.000 A 
ATOM     15  C   UNL     1       7.661   4.922   0.589  0.00  0.00    +0.000 A 
ATOM     16  C   UNL     1       7.051   3.877   1.278  0.00  0.00    +0.000 A 
ENDBRANCH  10  11
ENDBRANCH   1  10
TORSDOF 2
ENDMDL
MODEL 9
REMARK VINA RESULT:    -4.839     22.825     23.472
REMARK INTER + INTRA:          -5.497
REMARK INTER:                  -5.396
REMARK INTRA:                  -0.100
REMARK UNBOUND:                -0.092
REMARK  Name = 1550473
REMARK  2 active torsions:
REMARK  status: ('A' for Active; 'I' for Inactive)
REMARK    1  A    between atoms: N_1  and  C_4
REMARK    2  A    between atoms: C_4  and  C_5
REMARK                            x       y       z     vdW  Elec       q    Type
REMARK                         _______ _______ _______ _____ _____    ______ ____
ROOT
ATOM      1  N   UNL     1       6.228 -13.536   5.682  0.00  0.00    -0.354 N 
ATOM      2  N   UNL     1       7.491 -12.922   7.524  0.00  0.00    -0.372 N 
ATOM      3  N   UNL     1       5.846 -14.501   7.784  0.00  0.00    -0.372 N 
ATOM      4  C   UNL     1       6.511 -13.659   6.986  0.00  0.00    +0.166 C 
ATOM      5  H   UNL     1       6.748 -12.857   5.138  0.00  0.00    +0.163 HD
ATOM      6  H   UNL     1       7.730 -12.996   8.504  0.00  0.00    +0.159 HD
ATOM      7  H   UNL     1       8.041 -12.279   6.968  0.00  0.00    +0.159 HD
ATOM      8  H   UNL     1       5.092 -15.080   7.440  0.00  0.00    +0.159 HD
ATOM      9  H   UNL     1       6.063 -14.580   8.769  0.00  0.00    +0.159 HD
ENDROOT
BRANCH   1  10
ATOM     10  C   UNL     1       5.216 -14.330   4.987  0.00  0.00    +0.151 C 
BRANCH  10  11
ATOM     11  C   UNL     1       5.269 -14.015   3.518  0.00  0.00    -0.028 A 
ATOM     12  C   UNL     1       6.431 -14.270   2.776  0.00  0.00    +0.005 A 
ATOM     13  C   UNL     1       4.157 -13.466   2.860  0.00  0.00    +0.005 A 
ATOM     14  C   UNL     1       6.471 -14.006   1.405  0.00  0.00    +0.000 A 
ATOM     15  C   UNL     1       4.201 -13.202   1.491  0.00  0.00    +0.000 A 
ATOM     16  C   UNL     1       5.357 -13.475   0.763  0.00  0.00    +0.000 A 
ENDBRANCH  10  11
ENDBRANCH   1  10
TORSDOF 2
ENDMDL
