MODEL 1
REMARK VINA RESULT:    -5.609      0.000      0.000
REMARK INTER + INTRA:          -6.408
REMARK INTER:                  -6.265
REMARK INTRA:                  -0.143
REMARK UNBOUND:                -0.143
REMARK  Name = 1550473
REMARK  2 active torsions:
REMARK  status: ('A' for Active; 'I' for Inactive)
REMARK    1  A    between atoms: N_1  and  C_4
REMARK    2  A    between atoms: C_4  and  C_5
REMARK                            x       y       z     vdW  Elec       q    Type
REMARK                         _______ _______ _______ _____ _____    ______ ____
ROOT
ATOM      1  N   UNL     1      -5.179   1.610  -2.419  0.00  0.00    -0.354 N 
ATOM      2  N   UNL     1      -7.173   1.424  -3.582  0.00  0.00    -0.372 N 
ATOM      3  N   UNL     1      -6.911   3.156  -2.100  0.00  0.00    -0.372 N 
ATOM      4  C   UNL     1      -6.408   2.067  -2.691  0.00  0.00    +0.166 C 
ATOM      5  H   UNL     1      -4.868   0.762  -2.878  0.00  0.00    +0.163 HD
ATOM      6  H   UNL     1      -8.103   1.747  -3.810  0.00  0.00    +0.159 HD
ATOM      7  H   UNL     1      -6.842   0.603  -4.074  0.00  0.00    +0.159 HD
ATOM      8  H   UNL     1      -6.387   3.683  -1.414  0.00  0.00    +0.159 HD
ATOM      9  H   UNL     1      -7.844   3.488  -2.306  0.00  0.00    +0.159 HD
ENDROOT
BRANCH   1  10
ATOM     10  C   UNL     1      -4.246   2.267  -1.505  0.00  0.00    +0.151 C 
BRANCH  10  11
ATOM     11  C   UNL     1      -3.700   1.248  -0.543  0.00  0.00    -0.028 A 
ATOM     12  C   UNL     1      -3.968  -0.117  -0.725  0.00  0.00    +0.005 A 
ATOM     13  C   UNL     1      -2.910   1.640   0.548  0.00  0.00    +0.005 A 
ATOM     14  C   UNL     1      -3.437  -1.067   0.151  0.00  0.00    +0.000 A 
ATOM     15  C   UNL     1      -2.382   0.688   1.421  0.00  0.00    +0.000 A 
ATOM     16  C   UNL     1      -2.643  -0.665   1.220  0.00  0.00    +0.000 A 
ENDBRANCH  10  11
ENDBRANCH   1  10
TORSDOF 2
ENDMDL
MODEL 2
REMARK VINA RESULT:    -5.191      2.778      5.417
REMARK INTER + INTRA:          -5.942
REMARK INTER:                  -5.849
REMARK INTRA:                  -0.092
REMARK UNBOUND:                -0.143
REMARK  Name = 1550473
REMARK  2 active torsions:
REMARK  status: ('A' for Active; 'I' for Inactive)
REMARK    1  A    between atoms: N_1  and  C_4
REMARK    2  A    between atoms: C_4  and  C_5
REMARK                            x       y       z     vdW  Elec       q    Type
REMARK                         _______ _______ _______ _____ _____    ______ ____
ROOT
ATOM      1  N   UNL     1      -4.649   1.900  -1.009  0.00  0.00    -0.354 N 
ATOM      2  N   UNL     1      -4.764  -0.342  -0.442  0.00  0.00    -0.372 N 
ATOM      3  N   UNL     1      -2.831   0.814  -0.004  0.00  0.00    -0.372 N 
ATOM      4  C   UNL     1      -4.078   0.806  -0.488  0.00  0.00    +0.166 C 
ATOM      5  H   UNL     1      -5.586   1.821  -1.386  0.00  0.00    +0.163 HD
ATOM      6  H   UNL     1      -4.361  -1.184  -0.052  0.00  0.00    +0.159 HD
ATOM      7  H   UNL     1      -5.717  -0.408  -0.779  0.00  0.00    +0.159 HD
ATOM      8  H   UNL     1      -2.258   1.648  -0.015  0.00  0.00    +0.159 HD
ATOM      9  H   UNL     1      -2.406  -0.020   0.379  0.00  0.00    +0.159 HD
ENDROOT
BRANCH   1  10
ATOM     10  C   UNL     1      -4.007   3.213  -1.057  0.00  0.00    +0.151 C 
BRANCH  10  11
ATOM     11  C   UNL     1      -4.777   4.102  -1.995  0.00  0.00    -0.028 A 
ATOM     12  C   UNL     1      -5.953   4.737  -1.570  0.00  0.00    +0.005 A 
ATOM     13  C   UNL     1      -4.331   4.317  -3.308  0.00  0.00    +0.005 A 
ATOM     14  C   UNL     1      -6.651   5.586  -2.432  0.00  0.00    +0.000 A 
ATOM     15  C   UNL     1      -5.032   5.165  -4.166  0.00  0.00    +0.000 A 
ATOM     16  C   UNL     1      -6.190   5.801  -3.727  0.00  0.00    +0.000 A 
ENDBRANCH  10  11
ENDBRANCH   1  10
TORSDOF 2
ENDMDL
MODEL 3
REMARK VINA RESULT:    -5.134      1.876      2.624
REMARK INTER + INTRA:          -5.878
REMARK INTER:                  -5.701
REMARK INTRA:                  -0.177
REMARK UNBOUND:                -0.143
REMARK  Name = 1550473
REMARK  2 active torsions:
REMARK  status: ('A' for Active; 'I' for Inactive)
REMARK    1  A    between atoms: N_1  and  C_4
REMARK    2  A    between atoms: C_4  and  C_5
REMARK                            x       y       z     vdW  Elec       q    Type
REMARK                         _______ _______ _______ _____ _____    ______ ____
ROOT
ATOM      1  N   UNL     1      -5.331   2.007  -3.855  0.00  0.00    -0.354 N 
ATOM      2  N   UNL     1      -4.504   2.521  -5.956  0.00  0.00    -0.372 N 
ATOM      3  N   UNL     1      -4.839   4.219  -4.450  0.00  0.00    -0.372 N 
ATOM      4  C   UNL     1      -4.897   2.915  -4.739  0.00  0.00    +0.166 C 
ATOM      5  H   UNL     1      -5.380   1.037  -4.146  0.00  0.00    +0.163 HD
ATOM      6  H   UNL     1      -4.168   3.182  -6.643  0.00  0.00    +0.159 HD
ATOM      7  H   UNL     1      -4.510   1.545  -6.228  0.00  0.00    +0.159 HD
ATOM      8  H   UNL     1      -5.127   4.582  -3.551  0.00  0.00    +0.159 HD
ATOM      9  H   UNL     1      -4.517   4.898  -5.128  0.00  0.00    +0.159 HD
ENDROOT
BRANCH   1  10
ATOM     10  C   UNL     1      -5.731   2.325  -2.485  0.00  0.00    +0.151 C 
BRANCH  10  11
ATOM     11  C   UNL     1      -4.657   1.861  -1.540  0.00  0.00    -0.028 A 
ATOM     12  C   UNL     1      -3.717   2.769  -1.031  0.00  0.00    +0.005 A 
ATOM     13  C   UNL     1      -4.579   0.517  -1.145  0.00  0.00    +0.005 A 
ATOM     14  C   UNL     1      -2.738   2.345  -0.129  0.00  0.00    +0.000 A 
ATOM     15  C   UNL     1      -3.599   0.098  -0.245  0.00  0.00    +0.000 A 
ATOM     16  C   UNL     1      -2.680   1.012   0.265  0.00  0.00    +0.000 A 
ENDBRANCH  10  11
ENDBRANCH   1  10
TORSDOF 2
ENDMDL
MODEL 4
REMARK VINA RESULT:    -4.799     12.415     13.626
REMARK INTER + INTRA:          -5.503
REMARK INTER:                  -5.333
REMARK INTRA:                  -0.171
REMARK UNBOUND:                -0.143
REMARK  Name = 1550473
REMARK  2 active torsions:
REMARK  status: ('A' for Active; 'I' for Inactive)
REMARK    1  A    between atoms: N_1  and  C_4
REMARK    2  A    between atoms: C_4  and  C_5
REMARK                            x       y       z     vdW  Elec       q    Type
REMARK                         _______ _______ _______ _____ _____    ______ ____
ROOT
ATOM      1  N   UNL     1      -4.319  -8.880   6.069  0.00  0.00    -0.354 N 
ATOM      2  N   UNL     1      -6.195 -10.021   5.332  0.00  0.00    -0.372 N 
ATOM      3  N   UNL     1      -6.192  -9.145   7.452  0.00  0.00    -0.372 N 
ATOM      4  C   UNL     1      -5.557  -9.341   6.292  0.00  0.00    +0.166 C 
ATOM      5  H   UNL     1      -3.881  -9.087   5.178  0.00  0.00    +0.163 HD
ATOM      6  H   UNL     1      -7.131 -10.378   5.470  0.00  0.00    +0.159 HD
ATOM      7  H   UNL     1      -5.773 -10.187   4.426  0.00  0.00    +0.159 HD
ATOM      8  H   UNL     1      -5.763  -8.645   8.219  0.00  0.00    +0.159 HD
ATOM      9  H   UNL     1      -7.124  -9.505   7.614  0.00  0.00    +0.159 HD
ENDROOT
BRANCH   1  10
ATOM     10  C   UNL     1      -3.559  -8.081   7.028  0.00  0.00    +0.151 C 
BRANCH  10  11
ATOM     11  C   UNL     1      -2.512  -8.950   7.669  0.00  0.00    -0.028 A 
ATOM     12  C   UNL     1      -1.205  -8.982   7.162  0.00  0.00    +0.005 A 
ATOM     13  C   UNL     1      -2.819  -9.740   8.788  0.00  0.00    +0.005 A 
ATOM     14  C   UNL     1      -0.224  -9.765   7.776  0.00  0.00    +0.000 A 
ATOM     15  C   UNL     1      -1.838 -10.522   9.397  0.00  0.00    +0.000 A 
ATOM     16  C   UNL     1      -0.540 -10.532   8.892  0.00  0.00    +0.000 A 
ENDBRANCH  10  11
ENDBRANCH   1  10
TORSDOF 2
ENDMDL
MODEL 5
REMARK VINA RESULT:    -4.750     15.498     16.394
REMARK INTER + INTRA:          -5.449
REMARK INTER:                  -5.283
REMARK INTRA:                  -0.166
REMARK UNBOUND:                -0.143
REMARK  Name = 1550473
REMARK  2 active torsions:
REMARK  status: ('A' for Active; 'I' for Inactive)
REMARK    1  A    between atoms: N_1  and  C_4
REMARK    2  A    between atoms: C_4  and  C_5
REMARK                            x       y       z     vdW  Elec       q    Type
REMARK                         _______ _______ _______ _____ _____    ______ ____
ROOT
ATOM      1  N   UNL     1      -0.440 -13.820  -4.701  0.00  0.00    -0.354 N 
ATOM      2  N   UNL     1       1.256 -14.776  -5.955  0.00  0.00    -0.372 N 
ATOM      3  N   UNL     1      -0.656 -15.984  -5.572  0.00  0.00    -0.372 N 
ATOM      4  C   UNL     1       0.040 -14.856  -5.401  0.00  0.00    +0.166 C 
ATOM      5  H   UNL     1       0.150 -13.004  -4.582  0.00  0.00    +0.163 HD
ATOM      6  H   UNL     1       1.644 -15.540  -6.491  0.00  0.00    +0.159 HD
ATOM      7  H   UNL     1       1.825 -13.942  -5.873  0.00  0.00    +0.159 HD
ATOM      8  H   UNL     1      -1.578 -16.110  -5.175  0.00  0.00    +0.159 HD
ATOM      9  H   UNL     1      -0.281 -16.765  -6.096  0.00  0.00    +0.159 HD
ENDROOT
BRANCH   1  10
ATOM     10  C   UNL     1      -1.774 -13.785  -4.104  0.00  0.00    +0.151 C 
BRANCH  10  11
ATOM     11  C   UNL     1      -1.658 -14.051  -2.628  0.00  0.00    -0.028 A 
ATOM     12  C   UNL     1      -0.595 -13.514  -1.889  0.00  0.00    +0.005 A 
ATOM     13  C   UNL     1      -2.612 -14.836  -1.963  0.00  0.00    +0.005 A 
ATOM     14  C   UNL     1      -0.503 -13.737  -0.513  0.00  0.00    +0.000 A 
ATOM     15  C   UNL     1      -2.517 -15.057  -0.589  0.00  0.00    +0.000 A 
ATOM     16  C   UNL     1      -1.464 -14.505   0.136  0.00  0.00    +0.000 A 
ENDBRANCH  10  11
ENDBRANCH   1  10
TORSDOF 2
ENDMDL
MODEL 6
REMARK VINA RESULT:    -4.713     14.628     15.405
REMARK INTER + INTRA:          -5.407
REMARK INTER:                  -5.266
REMARK INTRA:                  -0.142
REMARK UNBOUND:                -0.143
REMARK  Name = 1550473
REMARK  2 active torsions:
REMARK  status: ('A' for Active; 'I' for Inactive)
REMARK    1  A    between atoms: N_1  and  C_4
REMARK    2  A    between atoms: C_4  and  C_5
REMARK                            x       y       z     vdW  Elec       q    Type
REMARK                         _______ _______ _______ _____ _____    ______ ____
ROOT
ATOM      1  N   UNL     1      -1.367 -12.626  -4.475  0.00  0.00    -0.354 N 
ATOM      2  N   UNL     1      -0.210 -11.031  -5.692  0.00  0.00    -0.372 N 
ATOM      3  N   UNL     1       0.223 -13.251  -6.078  0.00  0.00    -0.372 N 
ATOM      4  C   UNL     1      -0.458 -12.316  -5.408  0.00  0.00    +0.166 C 
ATOM      5  H   UNL     1      -1.828 -11.870  -3.981  0.00  0.00    +0.163 HD
ATOM      6  H   UNL     1       0.469 -10.767  -6.393  0.00  0.00    +0.159 HD
ATOM      7  H   UNL     1      -0.704 -10.278  -5.229  0.00  0.00    +0.159 HD
ATOM      8  H   UNL     1       0.087 -14.239  -5.907  0.00  0.00    +0.159 HD
ATOM      9  H   UNL     1       0.915 -13.006  -6.776  0.00  0.00    +0.159 HD
ENDROOT
BRANCH   1  10
ATOM     10  C   UNL     1      -1.750 -13.994  -4.129  0.00  0.00    +0.151 C 
BRANCH  10  11
ATOM     11  C   UNL     1      -1.687 -14.159  -2.636  0.00  0.00    -0.028 A 
ATOM     12  C   UNL     1      -2.677 -14.884  -1.957  0.00  0.00    +0.005 A 
ATOM     13  C   UNL     1      -0.636 -13.597  -1.894  0.00  0.00    +0.005 A 
ATOM     14  C   UNL     1      -2.602 -15.063  -0.573  0.00  0.00    +0.000 A 
ATOM     15  C   UNL     1      -0.565 -13.778  -0.513  0.00  0.00    +0.000 A 
ATOM     16  C   UNL     1      -1.547 -14.513   0.147  0.00  0.00    +0.000 A 
ENDBRANCH  10  11
ENDBRANCH   1  10
TORSDOF 2
ENDMDL
MODEL 7
REMARK VINA RESULT:    -4.613     12.796     13.619
REMARK INTER + INTRA:          -5.296
REMARK INTER:                  -5.125
REMARK INTRA:                  -0.171
REMARK UNBOUND:                -0.143
REMARK  Name = 1550473
REMARK  2 active torsions:
REMARK  status: ('A' for Active; 'I' for Inactive)
REMARK    1  A    between atoms: N_1  and  C_4
REMARK    2  A    between atoms: C_4  and  C_5
REMARK                            x       y       z     vdW  Elec       q    Type
REMARK                         _______ _______ _______ _____ _____    ______ ____
ROOT
ATOM      1  N   UNL     1      -5.921  -8.655   7.505  0.00  0.00    -0.354 N 
ATOM      2  N   UNL     1      -7.712 -10.002   8.091  0.00  0.00    -0.372 N 
ATOM      3  N   UNL     1      -6.438  -9.065   9.754  0.00  0.00    -0.372 N 
ATOM      4  C   UNL     1      -6.678  -9.231   8.449  0.00  0.00    +0.166 C 
ATOM      5  H   UNL     1      -6.137  -8.845   6.533  0.00  0.00    +0.163 HD
ATOM      6  H   UNL     1      -8.303 -10.446   8.781  0.00  0.00    +0.159 HD
ATOM      7  H   UNL     1      -7.953 -10.153   7.119  0.00  0.00    +0.159 HD
ATOM      8  H   UNL     1      -5.669  -8.501  10.090  0.00  0.00    +0.159 HD
ATOM      9  H   UNL     1      -7.011  -9.511  10.459  0.00  0.00    +0.159 HD
ENDROOT
BRANCH   1  10
ATOM     10  C   UNL     1      -4.805  -7.756   7.789  0.00  0.00    +0.151 C 
BRANCH  10  11
ATOM     11  C   UNL     1      -3.512  -8.486   7.551  0.00  0.00    -0.028 A 
ATOM     12  C   UNL     1      -3.238  -9.060   6.301  0.00  0.00    +0.005 A 
ATOM     13  C   UNL     1      -2.555  -8.604   8.571  0.00  0.00    +0.005 A 
ATOM     14  C   UNL     1      -2.025  -9.713   6.071  0.00  0.00    +0.000 A 
ATOM     15  C   UNL     1      -1.345  -9.258   8.337  0.00  0.00    +0.000 A 
ATOM     16  C   UNL     1      -1.079  -9.810   7.086  0.00  0.00    +0.000 A 
ENDBRANCH  10  11
ENDBRANCH   1  10
TORSDOF 2
ENDMDL
MODEL 8
REMARK VINA RESULT:    -4.588      4.242      6.268
REMARK INTER + INTRA:          -5.268
REMARK INTER:                  -5.149
REMARK INTRA:                  -0.119
REMARK UNBOUND:                -0.143
REMARK  Name = 1550473
REMARK  2 active torsions:
REMARK  status: ('A' for Active; 'I' for Inactive)
REMARK    1  A    between atoms: N_1  and  C_4
REMARK    2  A    between atoms: C_4  and  C_5
REMARK                            x       y       z     vdW  Elec       q    Type
REMARK                         _______ _______ _______ _____ _____    ______ ____
ROOT
ATOM      1  N   UNL     1      -7.108   3.292  -3.245  0.00  0.00    -0.354 N 
ATOM      2  N   UNL     1      -7.723   1.149  -3.875  0.00  0.00    -0.372 N 
ATOM      3  N   UNL     1      -6.131   1.411  -2.244  0.00  0.00    -0.372 N 
ATOM      4  C   UNL     1      -6.981   1.964  -3.116  0.00  0.00    +0.166 C 
ATOM      5  H   UNL     1      -7.748   3.648  -3.946  0.00  0.00    +0.163 HD
ATOM      6  H   UNL     1      -7.652   0.144  -3.797  0.00  0.00    +0.159 HD
ATOM      7  H   UNL     1      -8.396   1.508  -4.542  0.00  0.00    +0.159 HD
ATOM      8  H   UNL     1      -5.538   1.971  -1.646  0.00  0.00    +0.159 HD
ATOM      9  H   UNL     1      -6.037   0.407  -2.160  0.00  0.00    +0.159 HD
ENDROOT
BRANCH   1  10
ATOM     10  C   UNL     1      -6.386   4.265  -2.428  0.00  0.00    +0.151 C 
BRANCH  10  11
ATOM     11  C   UNL     1      -5.890   5.377  -3.312  0.00  0.00    -0.028 A 
ATOM     12  C   UNL     1      -6.605   6.580  -3.412  0.00  0.00    +0.005 A 
ATOM     13  C   UNL     1      -4.704   5.235  -4.049  0.00  0.00    +0.005 A 
ATOM     14  C   UNL     1      -6.129   7.623  -4.209  0.00  0.00    +0.000 A 
ATOM     15  C   UNL     1      -4.233   6.279  -4.844  0.00  0.00    +0.000 A 
ATOM     16  C   UNL     1      -4.945   7.474  -4.922  0.00  0.00    +0.000 A 
ENDBRANCH  10  11
ENDBRANCH   1  10
TORSDOF 2
ENDMDL
MODEL 9
REMARK VINA RESULT:    -4.555     13.182     14.048
REMARK INTER + INTRA:          -5.231
REMARK INTER:                  -5.107
REMARK INTRA:                  -0.124
REMARK UNBOUND:                -0.143
REMARK  Name = 1550473
REMARK  2 active torsions:
REMARK  status: ('A' for Active; 'I' for Inactive)
REMARK    1  A    between atoms: N_1  and  C_4
REMARK    2  A    between atoms: C_4  and  C_5
REMARK                            x       y       z     vdW  Elec       q    Type
REMARK                         _______ _______ _______ _____ _____    ______ ____
ROOT
ATOM      1  N   UNL     1      -4.362  -8.739   8.736  0.00  0.00    -0.354 N 
ATOM      2  N   UNL     1      -5.010  -8.554  10.952  0.00  0.00    -0.372 N 
ATOM      3  N   UNL     1      -3.844  -6.828   9.989  0.00  0.00    -0.372 N 
ATOM      4  C   UNL     1      -4.399  -8.039   9.878  0.00  0.00    +0.166 C 
ATOM      5  H   UNL     1      -4.775  -9.665   8.725  0.00  0.00    +0.163 HD
ATOM      6  H   UNL     1      -5.057  -8.047  11.826  0.00  0.00    +0.159 HD
ATOM      7  H   UNL     1      -5.463  -9.459  10.925  0.00  0.00    +0.159 HD
ATOM      8  H   UNL     1      -3.362  -6.386   9.217  0.00  0.00    +0.159 HD
ATOM      9  H   UNL     1      -3.870  -6.310  10.859  0.00  0.00    +0.159 HD
ENDROOT
BRANCH   1  10
ATOM     10  C   UNL     1      -3.768  -8.247   7.494  0.00  0.00    +0.151 C 
BRANCH  10  11
ATOM     11  C   UNL     1      -2.478  -8.977   7.243  0.00  0.00    -0.028 A 
ATOM     12  C   UNL     1      -1.397  -8.837   8.126  0.00  0.00    +0.005 A 
ATOM     13  C   UNL     1      -2.332  -9.816   6.127  0.00  0.00    +0.005 A 
ATOM     14  C   UNL     1      -0.208  -9.538   7.909  0.00  0.00    +0.000 A 
ATOM     15  C   UNL     1      -1.143 -10.513   5.914  0.00  0.00    +0.000 A 
ATOM     16  C   UNL     1      -0.082 -10.376   6.806  0.00  0.00    +0.000 A 
ENDBRANCH  10  11
ENDBRANCH   1  10
TORSDOF 2
ENDMDL
