MODEL 1
REMARK VINA RESULT:    -6.090      0.000      0.000
REMARK INTER + INTRA:          -6.965
REMARK INTER:                  -6.802
REMARK INTRA:                  -0.163
REMARK UNBOUND:                -0.163
REMARK  Name = 1550473
REMARK  2 active torsions:
REMARK  status: ('A' for Active; 'I' for Inactive)
REMARK    1  A    between atoms: N_1  and  C_4
REMARK    2  A    between atoms: C_4  and  C_5
REMARK                            x       y       z     vdW  Elec       q    Type
REMARK                         _______ _______ _______ _____ _____    ______ ____
ROOT
ATOM      1  N   UNL     1       2.753  -0.873   5.326  0.00  0.00    -0.354 N 
ATOM      2  N   UNL     1       3.641  -0.765   3.189  0.00  0.00    -0.372 N 
ATOM      3  N   UNL     1       1.663   0.313   3.624  0.00  0.00    -0.372 N 
ATOM      4  C   UNL     1       2.677  -0.441   4.060  0.00  0.00    +0.166 C 
ATOM      5  H   UNL     1       3.532  -1.467   5.586  0.00  0.00    +0.163 HD
ATOM      6  H   UNL     1       3.613  -0.450   2.229  0.00  0.00    +0.159 HD
ATOM      7  H   UNL     1       4.443  -1.320   3.464  0.00  0.00    +0.159 HD
ATOM      8  H   UNL     1       0.900   0.587   4.229  0.00  0.00    +0.159 HD
ATOM      9  H   UNL     1       1.611   0.628   2.663  0.00  0.00    +0.159 HD
ENDROOT
BRANCH   1  10
ATOM     10  C   UNL     1       1.784  -0.532   6.365  0.00  0.00    +0.151 C 
BRANCH  10  11
ATOM     11  C   UNL     1       1.113  -1.790   6.843  0.00  0.00    -0.028 A 
ATOM     12  C   UNL     1       0.180  -2.452   6.032  0.00  0.00    +0.005 A 
ATOM     13  C   UNL     1       1.411  -2.329   8.105  0.00  0.00    +0.005 A 
ATOM     14  C   UNL     1      -0.421  -3.637   6.464  0.00  0.00    +0.000 A 
ATOM     15  C   UNL     1       0.809  -3.512   8.532  0.00  0.00    +0.000 A 
ATOM     16  C   UNL     1      -0.105  -4.167   7.710  0.00  0.00    +0.000 A 
ENDBRANCH  10  11
ENDBRANCH   1  10
TORSDOF 2
ENDMDL
MODEL 2
REMARK VINA RESULT:    -5.795      1.411      1.980
REMARK INTER + INTRA:          -6.636
REMARK INTER:                  -6.490
REMARK INTRA:                  -0.146
REMARK UNBOUND:                -0.163
REMARK  Name = 1550473
REMARK  2 active torsions:
REMARK  status: ('A' for Active; 'I' for Inactive)
REMARK    1  A    between atoms: N_1  and  C_4
REMARK    2  A    between atoms: C_4  and  C_5
REMARK                            x       y       z     vdW  Elec       q    Type
REMARK                         _______ _______ _______ _____ _____    ______ ____
ROOT
ATOM      1  N   UNL     1       0.696  -0.492   6.770  0.00  0.00    -0.354 N 
ATOM      2  N   UNL     1       0.687   0.389   4.629  0.00  0.00    -0.372 N 
ATOM      3  N   UNL     1       2.698  -0.109   5.614  0.00  0.00    -0.372 N 
ATOM      4  C   UNL     1       1.363  -0.076   5.685  0.00  0.00    +0.166 C 
ATOM      5  H   UNL     1      -0.314  -0.413   6.774  0.00  0.00    +0.163 HD
ATOM      6  H   UNL     1       1.163   0.707   3.795  0.00  0.00    +0.159 HD
ATOM      7  H   UNL     1      -0.325   0.424   4.617  0.00  0.00    +0.159 HD
ATOM      8  H   UNL     1       3.268  -0.444   6.380  0.00  0.00    +0.159 HD
ATOM      9  H   UNL     1       3.193   0.215   4.792  0.00  0.00    +0.159 HD
ENDROOT
BRANCH   1  10
ATOM     10  C   UNL     1       1.336  -1.066   7.953  0.00  0.00    +0.151 C 
BRANCH  10  11
ATOM     11  C   UNL     1       1.134  -2.556   7.946  0.00  0.00    -0.028 A 
ATOM     12  C   UNL     1       0.066  -3.127   7.237  0.00  0.00    +0.005 A 
ATOM     13  C   UNL     1       2.011  -3.404   8.640  0.00  0.00    +0.005 A 
ATOM     14  C   UNL     1      -0.104  -4.513   7.205  0.00  0.00    +0.000 A 
ATOM     15  C   UNL     1       1.837  -4.787   8.606  0.00  0.00    +0.000 A 
ATOM     16  C   UNL     1       0.781  -5.342   7.887  0.00  0.00    +0.000 A 
ENDBRANCH  10  11
ENDBRANCH   1  10
TORSDOF 2
ENDMDL
MODEL 3
REMARK VINA RESULT:    -5.689      3.990      5.492
REMARK INTER + INTRA:          -6.517
REMARK INTER:                  -6.396
REMARK INTRA:                  -0.121
REMARK UNBOUND:                -0.163
REMARK  Name = 1550473
REMARK  2 active torsions:
REMARK  status: ('A' for Active; 'I' for Inactive)
REMARK    1  A    between atoms: N_1  and  C_4
REMARK    2  A    between atoms: C_4  and  C_5
REMARK                            x       y       z     vdW  Elec       q    Type
REMARK                         _______ _______ _______ _____ _____    ______ ____
ROOT
ATOM      1  N   UNL     1      -1.554  -3.338   8.407  0.00  0.00    -0.354 N 
ATOM      2  N   UNL     1      -2.870  -4.006  10.192  0.00  0.00    -0.372 N 
ATOM      3  N   UNL     1      -3.632  -4.363   8.057  0.00  0.00    -0.372 N 
ATOM      4  C   UNL     1      -2.678  -3.898   8.872  0.00  0.00    +0.166 C 
ATOM      5  H   UNL     1      -0.883  -2.978   9.077  0.00  0.00    +0.163 HD
ATOM      6  H   UNL     1      -3.707  -4.427  10.572  0.00  0.00    +0.159 HD
ATOM      7  H   UNL     1      -2.178  -3.687  10.859  0.00  0.00    +0.159 HD
ATOM      8  H   UNL     1      -3.551  -4.307   7.051  0.00  0.00    +0.159 HD
ATOM      9  H   UNL     1      -4.482  -4.777   8.419  0.00  0.00    +0.159 HD
ENDROOT
BRANCH   1  10
ATOM     10  C   UNL     1      -1.224  -3.222   6.988  0.00  0.00    +0.151 C 
BRANCH  10  11
ATOM     11  C   UNL     1      -0.155  -2.178   6.816  0.00  0.00    -0.028 A 
ATOM     12  C   UNL     1       0.030  -1.546   5.577  0.00  0.00    +0.005 A 
ATOM     13  C   UNL     1       0.672  -1.812   7.889  0.00  0.00    +0.005 A 
ATOM     14  C   UNL     1       1.002  -0.555   5.425  0.00  0.00    +0.000 A 
ATOM     15  C   UNL     1       1.642  -0.822   7.732  0.00  0.00    +0.000 A 
ATOM     16  C   UNL     1       1.805  -0.192   6.501  0.00  0.00    +0.000 A 
ENDBRANCH  10  11
ENDBRANCH   1  10
TORSDOF 2
ENDMDL
MODEL 4
REMARK VINA RESULT:    -5.408      4.181      5.817
REMARK INTER + INTRA:          -6.203
REMARK INTER:                  -6.097
REMARK INTRA:                  -0.106
REMARK UNBOUND:                -0.163
REMARK  Name = 1550473
REMARK  2 active torsions:
REMARK  status: ('A' for Active; 'I' for Inactive)
REMARK    1  A    between atoms: N_1  and  C_4
REMARK    2  A    between atoms: C_4  and  C_5
REMARK                            x       y       z     vdW  Elec       q    Type
REMARK                         _______ _______ _______ _____ _____    ______ ____
ROOT
ATOM      1  N   UNL     1       0.225  -4.619   9.811  0.00  0.00    -0.354 N 
ATOM      2  N   UNL     1      -0.429  -5.079  11.985  0.00  0.00    -0.372 N 
ATOM      3  N   UNL     1       1.696  -5.636  11.324  0.00  0.00    -0.372 N 
ATOM      4  C   UNL     1       0.504  -5.109  11.026  0.00  0.00    +0.166 C 
ATOM      5  H   UNL     1      -0.708  -4.260   9.639  0.00  0.00    +0.163 HD
ATOM      6  H   UNL     1      -0.246  -5.438  12.912  0.00  0.00    +0.159 HD
ATOM      7  H   UNL     1      -1.345  -4.678  11.824  0.00  0.00    +0.159 HD
ATOM      8  H   UNL     1       2.442  -5.695  10.644  0.00  0.00    +0.159 HD
ATOM      9  H   UNL     1       1.895  -6.012  12.243  0.00  0.00    +0.159 HD
ENDROOT
BRANCH   1  10
ATOM     10  C   UNL     1       1.188  -4.556   8.713  0.00  0.00    +0.151 C 
BRANCH  10  11
ATOM     11  C   UNL     1       0.936  -3.310   7.910  0.00  0.00    -0.028 A 
ATOM     12  C   UNL     1       0.079  -3.339   6.800  0.00  0.00    +0.005 A 
ATOM     13  C   UNL     1       1.547  -2.095   8.256  0.00  0.00    +0.005 A 
ATOM     14  C   UNL     1      -0.179  -2.176   6.071  0.00  0.00    +0.000 A 
ATOM     15  C   UNL     1       1.288  -0.935   7.526  0.00  0.00    +0.000 A 
ATOM     16  C   UNL     1       0.423  -0.976   6.435  0.00  0.00    +0.000 A 
ENDBRANCH  10  11
ENDBRANCH   1  10
TORSDOF 2
ENDMDL
MODEL 5
REMARK VINA RESULT:    -5.241     26.589     27.928
REMARK INTER + INTRA:          -6.017
REMARK INTER:                  -5.908
REMARK INTRA:                  -0.109
REMARK UNBOUND:                -0.163
REMARK  Name = 1550473
REMARK  2 active torsions:
REMARK  status: ('A' for Active; 'I' for Inactive)
REMARK    1  A    between atoms: N_1  and  C_4
REMARK    2  A    between atoms: C_4  and  C_5
REMARK                            x       y       z     vdW  Elec       q    Type
REMARK                         _______ _______ _______ _____ _____    ______ ____
ROOT
ATOM      1  N   UNL     1      -6.513  -2.033 -19.613  0.00  0.00    -0.354 N 
ATOM      2  N   UNL     1      -6.718  -0.193 -18.222  0.00  0.00    -0.372 N 
ATOM      3  N   UNL     1      -7.921  -0.246 -20.176  0.00  0.00    -0.372 N 
ATOM      4  C   UNL     1      -7.051  -0.835 -19.349  0.00  0.00    +0.166 C 
ATOM      5  H   UNL     1      -5.837  -2.412 -18.960  0.00  0.00    +0.163 HD
ATOM      6  H   UNL     1      -7.110   0.711 -17.994  0.00  0.00    +0.159 HD
ATOM      7  H   UNL     1      -6.077  -0.595 -17.549  0.00  0.00    +0.159 HD
ATOM      8  H   UNL     1      -8.208  -0.676 -21.045  0.00  0.00    +0.159 HD
ATOM      9  H   UNL     1      -8.315   0.663 -19.971  0.00  0.00    +0.159 HD
ENDROOT
BRANCH   1  10
ATOM     10  C   UNL     1      -6.850  -2.840 -20.785  0.00  0.00    +0.151 C 
BRANCH  10  11
ATOM     11  C   UNL     1      -5.632  -3.608 -21.219  0.00  0.00    -0.028 A 
ATOM     12  C   UNL     1      -5.197  -3.559 -22.552  0.00  0.00    +0.005 A 
ATOM     13  C   UNL     1      -4.905  -4.382 -20.301  0.00  0.00    +0.005 A 
ATOM     14  C   UNL     1      -4.048  -4.248 -22.949  0.00  0.00    +0.000 A 
ATOM     15  C   UNL     1      -3.760  -5.069 -20.702  0.00  0.00    +0.000 A 
ATOM     16  C   UNL     1      -3.330  -5.000 -22.025  0.00  0.00    +0.000 A 
ENDBRANCH  10  11
ENDBRANCH   1  10
TORSDOF 2
ENDMDL
MODEL 6
REMARK VINA RESULT:    -5.021     18.262     19.417
REMARK INTER + INTRA:          -5.772
REMARK INTER:                  -5.603
REMARK INTRA:                  -0.168
REMARK UNBOUND:                -0.163
REMARK  Name = 1550473
REMARK  2 active torsions:
REMARK  status: ('A' for Active; 'I' for Inactive)
REMARK    1  A    between atoms: N_1  and  C_4
REMARK    2  A    between atoms: C_4  and  C_5
REMARK                            x       y       z     vdW  Elec       q    Type
REMARK                         _______ _______ _______ _____ _____    ______ ____
ROOT
ATOM      1  N   UNL     1      14.013   2.874  18.349  0.00  0.00    -0.354 N 
ATOM      2  N   UNL     1      16.270   2.454  18.047  0.00  0.00    -0.372 N 
ATOM      3  N   UNL     1      15.585   4.612  18.417  0.00  0.00    -0.372 N 
ATOM      4  C   UNL     1      15.275   3.319  18.273  0.00  0.00    +0.166 C 
ATOM      5  H   UNL     1      13.841   1.887  18.201  0.00  0.00    +0.163 HD
ATOM      6  H   UNL     1      17.233   2.759  17.988  0.00  0.00    +0.159 HD
ATOM      7  H   UNL     1      16.101   1.460  17.945  0.00  0.00    +0.159 HD
ATOM      8  H   UNL     1      14.879   5.316  18.584  0.00  0.00    +0.159 HD
ATOM      9  H   UNL     1      16.540   4.938  18.350  0.00  0.00    +0.159 HD
ENDROOT
BRANCH   1  10
ATOM     10  C   UNL     1      12.863   3.726  18.645  0.00  0.00    +0.151 C 
BRANCH  10  11
ATOM     11  C   UNL     1      12.603   3.704  20.126  0.00  0.00    -0.028 A 
ATOM     12  C   UNL     1      12.586   2.490  20.828  0.00  0.00    +0.005 A 
ATOM     13  C   UNL     1      12.379   4.894  20.835  0.00  0.00    +0.005 A 
ATOM     14  C   UNL     1      12.375   2.471  22.209  0.00  0.00    +0.000 A 
ATOM     15  C   UNL     1      12.168   4.871  22.214  0.00  0.00    +0.000 A 
ATOM     16  C   UNL     1      12.168   3.660  22.900  0.00  0.00    +0.000 A 
ENDBRANCH  10  11
ENDBRANCH   1  10
TORSDOF 2
ENDMDL
MODEL 7
REMARK VINA RESULT:    -5.011      1.698      2.608
REMARK INTER + INTRA:          -5.760
REMARK INTER:                  -5.661
REMARK INTRA:                  -0.099
REMARK UNBOUND:                -0.163
REMARK  Name = 1550473
REMARK  2 active torsions:
REMARK  status: ('A' for Active; 'I' for Inactive)
REMARK    1  A    between atoms: N_1  and  C_4
REMARK    2  A    between atoms: C_4  and  C_5
REMARK                            x       y       z     vdW  Elec       q    Type
REMARK                         _______ _______ _______ _____ _____    ______ ____
ROOT
ATOM      1  N   UNL     1       0.564  -1.060   6.012  0.00  0.00    -0.354 N 
ATOM      2  N   UNL     1       0.914   0.888   4.810  0.00  0.00    -0.372 N 
ATOM      3  N   UNL     1       2.725  -0.214   5.689  0.00  0.00    -0.372 N 
ATOM      4  C   UNL     1       1.401  -0.142   5.512  0.00  0.00    +0.166 C 
ATOM      5  H   UNL     1      -0.432  -0.932   5.869  0.00  0.00    +0.163 HD
ATOM      6  H   UNL     1       1.522   1.594   4.417  0.00  0.00    +0.159 HD
ATOM      7  H   UNL     1      -0.077   0.988   4.629  0.00  0.00    +0.159 HD
ATOM      8  H   UNL     1       3.155  -0.963   6.214  0.00  0.00    +0.159 HD
ATOM      9  H   UNL     1       3.349   0.490   5.314  0.00  0.00    +0.159 HD
ENDROOT
BRANCH   1  10
ATOM     10  C   UNL     1       0.996  -2.248   6.746  0.00  0.00    +0.151 C 
BRANCH  10  11
ATOM     11  C   UNL     1      -0.212  -2.945   7.309  0.00  0.00    -0.028 A 
ATOM     12  C   UNL     1      -0.990  -2.331   8.301  0.00  0.00    +0.005 A 
ATOM     13  C   UNL     1      -0.587  -4.217   6.850  0.00  0.00    +0.005 A 
ATOM     14  C   UNL     1      -2.130  -2.965   8.802  0.00  0.00    +0.000 A 
ATOM     15  C   UNL     1      -1.724  -4.847   7.354  0.00  0.00    +0.000 A 
ATOM     16  C   UNL     1      -2.497  -4.220   8.328  0.00  0.00    +0.000 A 
ENDBRANCH  10  11
ENDBRANCH   1  10
TORSDOF 2
ENDMDL
MODEL 8
REMARK VINA RESULT:    -4.920     11.568     12.141
REMARK INTER + INTRA:          -5.658
REMARK INTER:                  -5.536
REMARK INTRA:                  -0.122
REMARK UNBOUND:                -0.163
REMARK  Name = 1550473
REMARK  2 active torsions:
REMARK  status: ('A' for Active; 'I' for Inactive)
REMARK    1  A    between atoms: N_1  and  C_4
REMARK    2  A    between atoms: C_4  and  C_5
REMARK                            x       y       z     vdW  Elec       q    Type
REMARK                         _______ _______ _______ _____ _____    ______ ____
ROOT
ATOM      1  N   UNL     1      -5.967   6.694   0.776  0.00  0.00    -0.354 N 
ATOM      2  N   UNL     1      -4.191   7.650  -0.362  0.00  0.00    -0.372 N 
ATOM      3  N   UNL     1      -4.803   5.497  -0.868  0.00  0.00    -0.372 N 
ATOM      4  C   UNL     1      -4.999   6.604  -0.145  0.00  0.00    +0.166 C 
ATOM      5  H   UNL     1      -6.044   7.551   1.312  0.00  0.00    +0.163 HD
ATOM      6  H   UNL     1      -3.454   7.613  -1.053  0.00  0.00    +0.159 HD
ATOM      7  H   UNL     1      -4.300   8.521   0.142  0.00  0.00    +0.159 HD
ATOM      8  H   UNL     1      -5.375   4.671  -0.748  0.00  0.00    +0.159 HD
ATOM      9  H   UNL     1      -4.063   5.437  -1.556  0.00  0.00    +0.159 HD
ENDROOT
BRANCH   1  10
ATOM     10  C   UNL     1      -6.934   5.632   1.052  0.00  0.00    +0.151 C 
BRANCH  10  11
ATOM     11  C   UNL     1      -7.381   5.735   2.484  0.00  0.00    -0.028 A 
ATOM     12  C   UNL     1      -7.836   4.600   3.171  0.00  0.00    +0.005 A 
ATOM     13  C   UNL     1      -7.346   6.964   3.162  0.00  0.00    +0.005 A 
ATOM     14  C   UNL     1      -8.223   4.689   4.510  0.00  0.00    +0.000 A 
ATOM     15  C   UNL     1      -7.734   7.048   4.499  0.00  0.00    +0.000 A 
ATOM     16  C   UNL     1      -8.170   5.911   5.173  0.00  0.00    +0.000 A 
ENDBRANCH  10  11
ENDBRANCH   1  10
TORSDOF 2
ENDMDL
MODEL 9
REMARK VINA RESULT:    -4.890     19.346     20.108
REMARK INTER + INTRA:          -5.625
REMARK INTER:                  -5.513
REMARK INTRA:                  -0.112
REMARK UNBOUND:                -0.163
REMARK  Name = 1550473
REMARK  2 active torsions:
REMARK  status: ('A' for Active; 'I' for Inactive)
REMARK    1  A    between atoms: N_1  and  C_4
REMARK    2  A    between atoms: C_4  and  C_5
REMARK                            x       y       z     vdW  Elec       q    Type
REMARK                         _______ _______ _______ _____ _____    ______ ____
ROOT
ATOM      1  N   UNL     1     -18.079  -2.648   8.485  0.00  0.00    -0.354 N 
ATOM      2  N   UNL     1     -16.862  -4.255   9.625  0.00  0.00    -0.372 N 
ATOM      3  N   UNL     1     -18.022  -4.871   7.744  0.00  0.00    -0.372 N 
ATOM      4  C   UNL     1     -17.664  -3.916   8.609  0.00  0.00    +0.166 C 
ATOM      5  H   UNL     1     -17.797  -1.978   9.191  0.00  0.00    +0.163 HD
ATOM      6  H   UNL     1     -16.530  -5.203   9.743  0.00  0.00    +0.159 HD
ATOM      7  H   UNL     1     -16.544  -3.574  10.303  0.00  0.00    +0.159 HD
ATOM      8  H   UNL     1     -18.630  -4.681   6.958  0.00  0.00    +0.159 HD
ATOM      9  H   UNL     1     -17.710  -5.828   7.851  0.00  0.00    +0.159 HD
ENDROOT
BRANCH   1  10
ATOM     10  C   UNL     1     -18.910  -2.164   7.384  0.00  0.00    +0.151 C 
BRANCH  10  11
ATOM     11  C   UNL     1     -18.545  -0.736   7.084  0.00  0.00    -0.028 A 
ATOM     12  C   UNL     1     -18.378   0.190   8.125  0.00  0.00    +0.005 A 
ATOM     13  C   UNL     1     -18.358  -0.304   5.762  0.00  0.00    +0.005 A 
ATOM     14  C   UNL     1     -18.009   1.509   7.849  0.00  0.00    +0.000 A 
ATOM     15  C   UNL     1     -17.990   1.014   5.491  0.00  0.00    +0.000 A 
ATOM     16  C   UNL     1     -17.814   1.919   6.534  0.00  0.00    +0.000 A 
ENDBRANCH  10  11
ENDBRANCH   1  10
TORSDOF 2
ENDMDL
