MODEL 1
REMARK VINA RESULT:    -7.262      0.000      0.000
REMARK INTER + INTRA:          -8.246
REMARK INTER:                  -8.111
REMARK INTRA:                  -0.135
REMARK UNBOUND:                -0.135
REMARK  Name = 1550473
REMARK  2 active torsions:
REMARK  status: ('A' for Active; 'I' for Inactive)
REMARK    1  A    between atoms: N_1  and  C_4
REMARK    2  A    between atoms: C_4  and  C_5
REMARK                            x       y       z     vdW  Elec       q    Type
REMARK                         _______ _______ _______ _____ _____    ______ ____
ROOT
ATOM      1  N   UNL     1       1.731   5.344   2.218  0.00  0.00    -0.354 N 
ATOM      2  N   UNL     1       1.538   7.044   3.780  0.00  0.00    -0.372 N 
ATOM      3  N   UNL     1       2.650   7.462   1.817  0.00  0.00    -0.372 N 
ATOM      4  C   UNL     1       1.976   6.607   2.593  0.00  0.00    +0.166 C 
ATOM      5  H   UNL     1       1.241   4.737   2.865  0.00  0.00    +0.163 HD
ATOM      6  H   UNL     1       1.705   7.992   4.088  0.00  0.00    +0.159 HD
ATOM      7  H   UNL     1       1.008   6.448   4.404  0.00  0.00    +0.159 HD
ATOM      8  H   UNL     1       3.013   7.193   0.913  0.00  0.00    +0.159 HD
ATOM      9  H   UNL     1       2.837   8.412   2.113  0.00  0.00    +0.159 HD
ENDROOT
BRANCH   1  10
ATOM     10  C   UNL     1       2.118   4.786   0.924  0.00  0.00    +0.151 C 
BRANCH  10  11
ATOM     11  C   UNL     1       2.812   3.470   1.144  0.00  0.00    -0.028 A 
ATOM     12  C   UNL     1       4.120   3.431   1.650  0.00  0.00    +0.005 A 
ATOM     13  C   UNL     1       2.166   2.259   0.855  0.00  0.00    +0.005 A 
ATOM     14  C   UNL     1       4.754   2.208   1.883  0.00  0.00    +0.000 A 
ATOM     15  C   UNL     1       2.803   1.040   1.088  0.00  0.00    +0.000 A 
ATOM     16  C   UNL     1       4.096   1.015   1.605  0.00  0.00    +0.000 A 
ENDBRANCH  10  11
ENDBRANCH   1  10
TORSDOF 2
ENDMDL
MODEL 2
REMARK VINA RESULT:    -6.951      3.743      5.481
REMARK INTER + INTRA:          -7.899
REMARK INTER:                  -7.788
REMARK INTRA:                  -0.111
REMARK UNBOUND:                -0.135
REMARK  Name = 1550473
REMARK  2 active torsions:
REMARK  status: ('A' for Active; 'I' for Inactive)
REMARK    1  A    between atoms: N_1  and  C_4
REMARK    2  A    between atoms: C_4  and  C_5
REMARK                            x       y       z     vdW  Elec       q    Type
REMARK                         _______ _______ _______ _____ _____    ______ ____
ROOT
ATOM      1  N   UNL     1       0.886   6.394   2.645  0.00  0.00    -0.354 N 
ATOM      2  N   UNL     1       2.366   8.043   1.970  0.00  0.00    -0.372 N 
ATOM      3  N   UNL     1       3.055   5.854   1.940  0.00  0.00    -0.372 N 
ATOM      4  C   UNL     1       2.094   6.750   2.189  0.00  0.00    +0.166 C 
ATOM      5  H   UNL     1       0.211   7.124   2.843  0.00  0.00    +0.163 HD
ATOM      6  H   UNL     1       3.267   8.342   1.623  0.00  0.00    +0.159 HD
ATOM      7  H   UNL     1       1.674   8.766   2.125  0.00  0.00    +0.159 HD
ATOM      8  H   UNL     1       2.916   4.864   2.091  0.00  0.00    +0.159 HD
ATOM      9  H   UNL     1       3.968   6.135   1.604  0.00  0.00    +0.159 HD
ENDROOT
BRANCH   1  10
ATOM     10  C   UNL     1       0.471   5.009   2.865  0.00  0.00    +0.151 C 
BRANCH  10  11
ATOM     11  C   UNL     1      -0.959   4.993   3.330  0.00  0.00    -0.028 A 
ATOM     12  C   UNL     1      -1.839   3.994   2.889  0.00  0.00    +0.005 A 
ATOM     13  C   UNL     1      -1.438   5.970   4.216  0.00  0.00    +0.005 A 
ATOM     14  C   UNL     1      -3.160   3.961   3.344  0.00  0.00    +0.000 A 
ATOM     15  C   UNL     1      -2.757   5.934   4.667  0.00  0.00    +0.000 A 
ATOM     16  C   UNL     1      -3.617   4.929   4.233  0.00  0.00    +0.000 A 
ENDBRANCH  10  11
ENDBRANCH   1  10
TORSDOF 2
ENDMDL
MODEL 3
REMARK VINA RESULT:    -5.029      8.999     10.471
REMARK INTER + INTRA:          -5.752
REMARK INTER:                  -5.612
REMARK INTRA:                  -0.140
REMARK UNBOUND:                -0.135
REMARK  Name = 1550473
REMARK  2 active torsions:
REMARK  status: ('A' for Active; 'I' for Inactive)
REMARK    1  A    between atoms: N_1  and  C_4
REMARK    2  A    between atoms: C_4  and  C_5
REMARK                            x       y       z     vdW  Elec       q    Type
REMARK                         _______ _______ _______ _____ _____    ______ ____
ROOT
ATOM      1  N   UNL     1      -1.405  -5.847   0.195  0.00  0.00    -0.354 N 
ATOM      2  N   UNL     1      -3.232  -5.413  -1.160  0.00  0.00    -0.372 N 
ATOM      3  N   UNL     1      -3.571  -6.442   0.863  0.00  0.00    -0.372 N 
ATOM      4  C   UNL     1      -2.725  -5.905  -0.023  0.00  0.00    +0.166 C 
ATOM      5  H   UNL     1      -0.814  -5.455  -0.529  0.00  0.00    +0.163 HD
ATOM      6  H   UNL     1      -4.224  -5.439  -1.351  0.00  0.00    +0.159 HD
ATOM      7  H   UNL     1      -2.644  -4.980  -1.862  0.00  0.00    +0.159 HD
ATOM      8  H   UNL     1      -3.251  -6.836   1.737  0.00  0.00    +0.159 HD
ATOM      9  H   UNL     1      -4.566  -6.488   0.684  0.00  0.00    +0.159 HD
ENDROOT
BRANCH   1  10
ATOM     10  C   UNL     1      -0.758  -6.306   1.424  0.00  0.00    +0.151 C 
BRANCH  10  11
ATOM     11  C   UNL     1       0.155  -5.224   1.932  0.00  0.00    -0.028 A 
ATOM     12  C   UNL     1       1.435  -5.540   2.410  0.00  0.00    +0.005 A 
ATOM     13  C   UNL     1      -0.252  -3.881   1.932  0.00  0.00    +0.005 A 
ATOM     14  C   UNL     1       2.295  -4.532   2.854  0.00  0.00    +0.000 A 
ATOM     15  C   UNL     1       0.609  -2.878   2.377  0.00  0.00    +0.000 A 
ATOM     16  C   UNL     1       1.883  -3.204   2.835  0.00  0.00    +0.000 A 
ENDBRANCH  10  11
ENDBRANCH   1  10
TORSDOF 2
ENDMDL
MODEL 4
REMARK VINA RESULT:    -5.019      9.319     11.114
REMARK INTER + INTRA:          -5.741
REMARK INTER:                  -5.609
REMARK INTRA:                  -0.132
REMARK UNBOUND:                -0.135
REMARK  Name = 1550473
REMARK  2 active torsions:
REMARK  status: ('A' for Active; 'I' for Inactive)
REMARK    1  A    between atoms: N_1  and  C_4
REMARK    2  A    between atoms: C_4  and  C_5
REMARK                            x       y       z     vdW  Elec       q    Type
REMARK                         _______ _______ _______ _____ _____    ______ ____
ROOT
ATOM      1  N   UNL     1       0.521  -5.348   1.848  0.00  0.00    -0.354 N 
ATOM      2  N   UNL     1       2.318  -5.565   3.293  0.00  0.00    -0.372 N 
ATOM      3  N   UNL     1       0.970  -3.717   3.470  0.00  0.00    -0.372 N 
ATOM      4  C   UNL     1       1.257  -4.873   2.862  0.00  0.00    +0.166 C 
ATOM      5  H   UNL     1       0.809  -6.215   1.409  0.00  0.00    +0.163 HD
ATOM      6  H   UNL     1       2.890  -5.234   4.058  0.00  0.00    +0.159 HD
ATOM      7  H   UNL     1       2.576  -6.455   2.883  0.00  0.00    +0.159 HD
ATOM      8  H   UNL     1       0.186  -3.144   3.189  0.00  0.00    +0.159 HD
ATOM      9  H   UNL     1       1.537  -3.363   4.230  0.00  0.00    +0.159 HD
ENDROOT
BRANCH   1  10
ATOM     10  C   UNL     1      -0.685  -4.698   1.338  0.00  0.00    +0.151 C 
BRANCH  10  11
ATOM     11  C   UNL     1      -1.638  -5.750   0.842  0.00  0.00    -0.028 A 
ATOM     12  C   UNL     1      -1.278  -7.105   0.868  0.00  0.00    +0.005 A 
ATOM     13  C   UNL     1      -2.904  -5.399   0.349  0.00  0.00    +0.005 A 
ATOM     14  C   UNL     1      -2.174  -8.086   0.435  0.00  0.00    +0.000 A 
ATOM     15  C   UNL     1      -3.795  -6.380  -0.083  0.00  0.00    +0.000 A 
ATOM     16  C   UNL     1      -3.431  -7.724  -0.038  0.00  0.00    +0.000 A 
ENDBRANCH  10  11
ENDBRANCH   1  10
TORSDOF 2
ENDMDL
MODEL 5
REMARK VINA RESULT:    -4.972     12.343     13.708
REMARK INTER + INTRA:          -5.689
REMARK INTER:                  -5.519
REMARK INTRA:                  -0.170
REMARK UNBOUND:                -0.135
REMARK  Name = 1550473
REMARK  2 active torsions:
REMARK  status: ('A' for Active; 'I' for Inactive)
REMARK    1  A    between atoms: N_1  and  C_4
REMARK    2  A    between atoms: C_4  and  C_5
REMARK                            x       y       z     vdW  Elec       q    Type
REMARK                         _______ _______ _______ _____ _____    ______ ____
ROOT
ATOM      1  N   UNL     1      -4.053  -8.716   0.331  0.00  0.00    -0.354 N 
ATOM      2  N   UNL     1      -4.781  -8.501   2.519  0.00  0.00    -0.372 N 
ATOM      3  N   UNL     1      -2.676  -7.768   1.974  0.00  0.00    -0.372 N 
ATOM      4  C   UNL     1      -3.829  -8.329   1.594  0.00  0.00    +0.166 C 
ATOM      5  H   UNL     1      -4.936  -9.162   0.113  0.00  0.00    +0.163 HD
ATOM      6  H   UNL     1      -4.643  -8.216   3.479  0.00  0.00    +0.159 HD
ATOM      7  H   UNL     1      -5.681  -8.905   2.289  0.00  0.00    +0.159 HD
ATOM      8  H   UNL     1      -1.916  -7.616   1.326  0.00  0.00    +0.159 HD
ATOM      9  H   UNL     1      -2.514  -7.487   2.933  0.00  0.00    +0.159 HD
ENDROOT
BRANCH   1  10
ATOM     10  C   UNL     1      -3.102  -8.524  -0.763  0.00  0.00    +0.151 C 
BRANCH  10  11
ATOM     11  C   UNL     1      -3.437  -7.248  -1.486  0.00  0.00    -0.028 A 
ATOM     12  C   UNL     1      -2.425  -6.340  -1.832  0.00  0.00    +0.005 A 
ATOM     13  C   UNL     1      -4.762  -6.945  -1.834  0.00  0.00    +0.005 A 
ATOM     14  C   UNL     1      -2.732  -5.169  -2.530  0.00  0.00    +0.000 A 
ATOM     15  C   UNL     1      -5.064  -5.775  -2.530  0.00  0.00    +0.000 A 
ATOM     16  C   UNL     1      -4.048  -4.889  -2.880  0.00  0.00    +0.000 A 
ENDBRANCH  10  11
ENDBRANCH   1  10
TORSDOF 2
ENDMDL
MODEL 6
REMARK VINA RESULT:    -4.910     12.931     14.331
REMARK INTER + INTRA:          -5.619
REMARK INTER:                  -5.491
REMARK INTRA:                  -0.128
REMARK UNBOUND:                -0.135
REMARK  Name = 1550473
REMARK  2 active torsions:
REMARK  status: ('A' for Active; 'I' for Inactive)
REMARK    1  A    between atoms: N_1  and  C_4
REMARK    2  A    between atoms: C_4  and  C_5
REMARK                            x       y       z     vdW  Elec       q    Type
REMARK                         _______ _______ _______ _____ _____    ______ ____
ROOT
ATOM      1  N   UNL     1      -0.597  -9.255  -2.665  0.00  0.00    -0.354 N 
ATOM      2  N   UNL     1       0.107 -10.870  -4.168  0.00  0.00    -0.372 N 
ATOM      3  N   UNL     1       1.301  -8.919  -3.998  0.00  0.00    -0.372 N 
ATOM      4  C   UNL     1       0.267  -9.669  -3.601  0.00  0.00    +0.166 C 
ATOM      5  H   UNL     1      -1.377  -9.858  -2.430  0.00  0.00    +0.163 HD
ATOM      6  H   UNL     1       0.745 -11.211  -4.874  0.00  0.00    +0.159 HD
ATOM      7  H   UNL     1      -0.648 -11.490  -3.898  0.00  0.00    +0.159 HD
ATOM      8  H   UNL     1       1.474  -7.999  -3.613  0.00  0.00    +0.159 HD
ATOM      9  H   UNL     1       1.944  -9.237  -4.712  0.00  0.00    +0.159 HD
ENDROOT
BRANCH   1  10
ATOM     10  C   UNL     1      -0.481  -7.986  -1.948  0.00  0.00    +0.151 C 
BRANCH  10  11
ATOM     11  C   UNL     1      -1.836  -7.338  -1.872  0.00  0.00    -0.028 A 
ATOM     12  C   UNL     1      -2.995  -8.122  -1.769  0.00  0.00    +0.005 A 
ATOM     13  C   UNL     1      -1.967  -5.941  -1.898  0.00  0.00    +0.005 A 
ATOM     14  C   UNL     1      -4.251  -7.520  -1.668  0.00  0.00    +0.000 A 
ATOM     15  C   UNL     1      -3.224  -5.344  -1.798  0.00  0.00    +0.000 A 
ATOM     16  C   UNL     1      -4.365  -6.134  -1.681  0.00  0.00    +0.000 A 
ENDBRANCH  10  11
ENDBRANCH   1  10
TORSDOF 2
ENDMDL
MODEL 7
REMARK VINA RESULT:    -4.730     17.762     18.822
REMARK INTER + INTRA:          -5.418
REMARK INTER:                  -5.325
REMARK INTRA:                  -0.093
REMARK UNBOUND:                -0.135
REMARK  Name = 1550473
REMARK  2 active torsions:
REMARK  status: ('A' for Active; 'I' for Inactive)
REMARK    1  A    between atoms: N_1  and  C_4
REMARK    2  A    between atoms: C_4  and  C_5
REMARK                            x       y       z     vdW  Elec       q    Type
REMARK                         _______ _______ _______ _____ _____    ______ ____
ROOT
ATOM      1  N   UNL     1       8.842  -0.271  17.132  0.00  0.00    -0.354 N 
ATOM      2  N   UNL     1       7.042   0.835  16.182  0.00  0.00    -0.372 N 
ATOM      3  N   UNL     1       7.643  -1.220  15.356  0.00  0.00    -0.372 N 
ATOM      4  C   UNL     1       7.854  -0.228  16.228  0.00  0.00    +0.166 C 
ATOM      5  H   UNL     1       8.969   0.526  17.745  0.00  0.00    +0.163 HD
ATOM      6  H   UNL     1       6.286   0.893  15.514  0.00  0.00    +0.159 HD
ATOM      7  H   UNL     1       7.142   1.610  16.827  0.00  0.00    +0.159 HD
ATOM      8  H   UNL     1       8.224  -2.047  15.335  0.00  0.00    +0.159 HD
ATOM      9  H   UNL     1       6.899  -1.174  14.672  0.00  0.00    +0.159 HD
ENDROOT
BRANCH   1  10
ATOM     10  C   UNL     1       9.748  -1.406  17.300  0.00  0.00    +0.151 C 
BRANCH  10  11
ATOM     11  C   UNL     1      10.627  -1.160  18.496  0.00  0.00    -0.028 A 
ATOM     12  C   UNL     1      11.684  -0.242  18.425  0.00  0.00    +0.005 A 
ATOM     13  C   UNL     1      10.404  -1.838  19.704  0.00  0.00    +0.005 A 
ATOM     14  C   UNL     1      12.482   0.009  19.544  0.00  0.00    +0.000 A 
ATOM     15  C   UNL     1      11.203  -1.586  20.818  0.00  0.00    +0.000 A 
ATOM     16  C   UNL     1      12.241  -0.660  20.739  0.00  0.00    +0.000 A 
ENDBRANCH  10  11
ENDBRANCH   1  10
TORSDOF 2
ENDMDL
MODEL 8
REMARK VINA RESULT:    -4.681     12.570     14.169
REMARK INTER + INTRA:          -5.364
REMARK INTER:                  -5.249
REMARK INTRA:                  -0.114
REMARK UNBOUND:                -0.135
REMARK  Name = 1550473
REMARK  2 active torsions:
REMARK  status: ('A' for Active; 'I' for Inactive)
REMARK    1  A    between atoms: N_1  and  C_4
REMARK    2  A    between atoms: C_4  and  C_5
REMARK                            x       y       z     vdW  Elec       q    Type
REMARK                         _______ _______ _______ _____ _____    ______ ____
ROOT
ATOM      1  N   UNL     1      -0.478  -8.679  -2.800  0.00  0.00    -0.354 N 
ATOM      2  N   UNL     1       1.488  -8.995  -3.984  0.00  0.00    -0.372 N 
ATOM      3  N   UNL     1      -0.327 -10.309  -4.477  0.00  0.00    -0.372 N 
ATOM      4  C   UNL     1       0.213  -9.328  -3.747  0.00  0.00    +0.166 C 
ATOM      5  H   UNL     1      -0.001  -7.965  -2.261  0.00  0.00    +0.163 HD
ATOM      6  H   UNL     1       2.033  -9.464  -4.694  0.00  0.00    +0.159 HD
ATOM      7  H   UNL     1       1.947  -8.249  -3.475  0.00  0.00    +0.159 HD
ATOM      8  H   UNL     1      -1.283 -10.612  -4.343  0.00  0.00    +0.159 HD
ATOM      9  H   UNL     1       0.206 -10.799  -5.184  0.00  0.00    +0.159 HD
ENDROOT
BRANCH   1  10
ATOM     10  C   UNL     1      -1.887  -8.928  -2.501  0.00  0.00    +0.151 C 
BRANCH  10  11
ATOM     11  C   UNL     1      -2.384  -7.865  -1.560  0.00  0.00    -0.028 A 
ATOM     12  C   UNL     1      -1.983  -6.530  -1.718  0.00  0.00    +0.005 A 
ATOM     13  C   UNL     1      -3.261  -8.185  -0.513  0.00  0.00    +0.005 A 
ATOM     14  C   UNL     1      -2.469  -5.538  -0.864  0.00  0.00    +0.000 A 
ATOM     15  C   UNL     1      -3.743  -7.192   0.339  0.00  0.00    +0.000 A 
ATOM     16  C   UNL     1      -3.349  -5.868   0.162  0.00  0.00    +0.000 A 
ENDBRANCH  10  11
ENDBRANCH   1  10
TORSDOF 2
ENDMDL
MODEL 9
REMARK VINA RESULT:    -4.634     12.866     14.556
REMARK INTER + INTRA:          -5.311
REMARK INTER:                  -5.217
REMARK INTRA:                  -0.094
REMARK UNBOUND:                -0.135
REMARK  Name = 1550473
REMARK  2 active torsions:
REMARK  status: ('A' for Active; 'I' for Inactive)
REMARK    1  A    between atoms: N_1  and  C_4
REMARK    2  A    between atoms: C_4  and  C_5
REMARK                            x       y       z     vdW  Elec       q    Type
REMARK                         _______ _______ _______ _____ _____    ______ ____
ROOT
ATOM      1  N   UNL     1      -4.080  -9.008  -0.117  0.00  0.00    -0.354 N 
ATOM      2  N   UNL     1      -5.569 -10.773  -0.296  0.00  0.00    -0.372 N 
ATOM      3  N   UNL     1      -3.700 -10.759  -1.628  0.00  0.00    -0.372 N 
ATOM      4  C   UNL     1      -4.438 -10.169  -0.681  0.00  0.00    +0.166 C 
ATOM      5  H   UNL     1      -4.698  -8.598   0.573  0.00  0.00    +0.163 HD
ATOM      6  H   UNL     1      -5.863 -11.652  -0.702  0.00  0.00    +0.159 HD
ATOM      7  H   UNL     1      -6.161 -10.384   0.427  0.00  0.00    +0.159 HD
ATOM      8  H   UNL     1      -2.839 -10.351  -1.967  0.00  0.00    +0.159 HD
ATOM      9  H   UNL     1      -3.984 -11.632  -2.054  0.00  0.00    +0.159 HD
ENDROOT
BRANCH   1  10
ATOM     10  C   UNL     1      -2.842  -8.296  -0.427  0.00  0.00    +0.151 C 
BRANCH  10  11
ATOM     11  C   UNL     1      -3.165  -7.089  -1.264  0.00  0.00    -0.028 A 
ATOM     12  C   UNL     1      -2.144  -6.236  -1.708  0.00  0.00    +0.005 A 
ATOM     13  C   UNL     1      -4.490  -6.796  -1.621  0.00  0.00    +0.005 A 
ATOM     14  C   UNL     1      -2.440  -5.132  -2.510  0.00  0.00    +0.000 A 
ATOM     15  C   UNL     1      -4.782  -5.692  -2.422  0.00  0.00    +0.000 A 
ATOM     16  C   UNL     1      -3.757  -4.862  -2.868  0.00  0.00    +0.000 A 
ENDBRANCH  10  11
ENDBRANCH   1  10
TORSDOF 2
ENDMDL
