MODEL 1
REMARK VINA RESULT:    -5.501      0.000      0.000
REMARK INTER + INTRA:          -6.252
REMARK INTER:                  -6.144
REMARK INTRA:                  -0.108
REMARK UNBOUND:                -0.108
REMARK  Name = 1550473
REMARK  2 active torsions:
REMARK  status: ('A' for Active; 'I' for Inactive)
REMARK    1  A    between atoms: N_1  and  C_4
REMARK    2  A    between atoms: C_4  and  C_5
REMARK                            x       y       z     vdW  Elec       q    Type
REMARK                         _______ _______ _______ _____ _____    ______ ____
ROOT
ATOM      1  N   UNL     1      19.387   1.713  10.282  0.00  0.00    -0.354 N 
ATOM      2  N   UNL     1      20.271  -0.392  10.669  0.00  0.00    -0.372 N 
ATOM      3  N   UNL     1      21.135   1.401  11.812  0.00  0.00    -0.372 N 
ATOM      4  C   UNL     1      20.260   0.923  10.920  0.00  0.00    +0.166 C 
ATOM      5  H   UNL     1      18.771   1.294   9.595  0.00  0.00    +0.163 HD
ATOM      6  H   UNL     1      20.916  -1.014  11.138  0.00  0.00    +0.159 HD
ATOM      7  H   UNL     1      19.623  -0.815  10.016  0.00  0.00    +0.159 HD
ATOM      8  H   UNL     1      21.182   2.385  12.041  0.00  0.00    +0.159 HD
ATOM      9  H   UNL     1      21.796   0.796  12.283  0.00  0.00    +0.159 HD
ENDROOT
BRANCH   1  10
ATOM     10  C   UNL     1      19.257   3.149  10.522  0.00  0.00    +0.151 C 
BRANCH  10  11
ATOM     11  C   UNL     1      19.034   3.849   9.210  0.00  0.00    -0.028 A 
ATOM     12  C   UNL     1      20.072   4.570   8.601  0.00  0.00    +0.005 A 
ATOM     13  C   UNL     1      17.788   3.790   8.567  0.00  0.00    +0.005 A 
ATOM     14  C   UNL     1      19.874   5.194   7.368  0.00  0.00    +0.000 A 
ATOM     15  C   UNL     1      17.594   4.416   7.335  0.00  0.00    +0.000 A 
ATOM     16  C   UNL     1      18.638   5.116   6.735  0.00  0.00    +0.000 A 
ENDBRANCH  10  11
ENDBRANCH   1  10
TORSDOF 2
ENDMDL
MODEL 2
REMARK VINA RESULT:    -5.102     16.506     18.078
REMARK INTER + INTRA:          -5.806
REMARK INTER:                  -5.669
REMARK INTRA:                  -0.137
REMARK UNBOUND:                -0.108
REMARK  Name = 1550473
REMARK  2 active torsions:
REMARK  status: ('A' for Active; 'I' for Inactive)
REMARK    1  A    between atoms: N_1  and  C_4
REMARK    2  A    between atoms: C_4  and  C_5
REMARK                            x       y       z     vdW  Elec       q    Type
REMARK                         _______ _______ _______ _____ _____    ______ ____
ROOT
ATOM      1  N   UNL     1       8.286  -0.987  21.059  0.00  0.00    -0.354 N 
ATOM      2  N   UNL     1       9.709   0.566  20.096  0.00  0.00    -0.372 N 
ATOM      3  N   UNL     1       9.442   0.569  22.375  0.00  0.00    -0.372 N 
ATOM      4  C   UNL     1       9.136   0.040  21.186  0.00  0.00    +0.166 C 
ATOM      5  H   UNL     1       8.072  -1.323  20.127  0.00  0.00    +0.163 HD
ATOM      6  H   UNL     1      10.357   1.339  20.161  0.00  0.00    +0.159 HD
ATOM      7  H   UNL     1       9.529   0.199  19.170  0.00  0.00    +0.159 HD
ATOM      8  H   UNL     1       9.039   0.221  23.235  0.00  0.00    +0.159 HD
ATOM      9  H   UNL     1      10.079   1.351  22.460  0.00  0.00    +0.159 HD
ENDROOT
BRANCH   1  10
ATOM     10  C   UNL     1       7.651  -1.667  22.186  0.00  0.00    +0.151 C 
BRANCH  10  11
ATOM     11  C   UNL     1       8.012  -3.126  22.147  0.00  0.00    -0.028 A 
ATOM     12  C   UNL     1       8.369  -3.803  23.322  0.00  0.00    +0.005 A 
ATOM     13  C   UNL     1       7.993  -3.839  20.938  0.00  0.00    +0.005 A 
ATOM     14  C   UNL     1       8.675  -5.166  23.291  0.00  0.00    +0.000 A 
ATOM     15  C   UNL     1       8.300  -5.199  20.911  0.00  0.00    +0.000 A 
ATOM     16  C   UNL     1       8.639  -5.863  22.088  0.00  0.00    +0.000 A 
ENDBRANCH  10  11
ENDBRANCH   1  10
TORSDOF 2
ENDMDL
MODEL 3
REMARK VINA RESULT:    -4.907     19.503     20.976
REMARK INTER + INTRA:          -5.588
REMARK INTER:                  -5.493
REMARK INTRA:                  -0.095
REMARK UNBOUND:                -0.108
REMARK  Name = 1550473
REMARK  2 active torsions:
REMARK  status: ('A' for Active; 'I' for Inactive)
REMARK    1  A    between atoms: N_1  and  C_4
REMARK    2  A    between atoms: C_4  and  C_5
REMARK                            x       y       z     vdW  Elec       q    Type
REMARK                         _______ _______ _______ _____ _____    ______ ____
ROOT
ATOM      1  N   UNL     1       4.747  -3.422  23.492  0.00  0.00    -0.354 N 
ATOM      2  N   UNL     1       2.593  -3.938  24.169  0.00  0.00    -0.372 N 
ATOM      3  N   UNL     1       3.018  -3.671  21.930  0.00  0.00    -0.372 N 
ATOM      4  C   UNL     1       3.466  -3.673  23.189  0.00  0.00    +0.166 C 
ATOM      5  H   UNL     1       5.017  -3.409  24.469  0.00  0.00    +0.163 HD
ATOM      6  H   UNL     1       1.621  -4.135  23.971  0.00  0.00    +0.159 HD
ATOM      7  H   UNL     1       2.875  -3.969  25.141  0.00  0.00    +0.159 HD
ATOM      8  H   UNL     1       3.625  -3.473  21.146  0.00  0.00    +0.159 HD
ATOM      9  H   UNL     1       2.046  -3.855  21.712  0.00  0.00    +0.159 HD
ENDROOT
BRANCH   1  10
ATOM     10  C   UNL     1       5.789  -3.176  22.497  0.00  0.00    +0.151 C 
BRANCH  10  11
ATOM     11  C   UNL     1       6.692  -4.376  22.423  0.00  0.00    -0.028 A 
ATOM     12  C   UNL     1       6.463  -5.490  23.244  0.00  0.00    +0.005 A 
ATOM     13  C   UNL     1       7.775  -4.407  21.531  0.00  0.00    +0.005 A 
ATOM     14  C   UNL     1       7.283  -6.617  23.154  0.00  0.00    +0.000 A 
ATOM     15  C   UNL     1       8.592  -5.534  21.446  0.00  0.00    +0.000 A 
ATOM     16  C   UNL     1       8.344  -6.640  22.256  0.00  0.00    +0.000 A 
ENDBRANCH  10  11
ENDBRANCH   1  10
TORSDOF 2
ENDMDL
MODEL 4
REMARK VINA RESULT:    -4.831     29.668     30.607
REMARK INTER + INTRA:          -5.503
REMARK INTER:                  -5.337
REMARK INTRA:                  -0.167
REMARK UNBOUND:                -0.108
REMARK  Name = 1550473
REMARK  2 active torsions:
REMARK  status: ('A' for Active; 'I' for Inactive)
REMARK    1  A    between atoms: N_1  and  C_4
REMARK    2  A    between atoms: C_4  and  C_5
REMARK                            x       y       z     vdW  Elec       q    Type
REMARK                         _______ _______ _______ _____ _____    ______ ____
ROOT
ATOM      1  N   UNL     1       0.564   7.376  30.403  0.00  0.00    -0.354 N 
ATOM      2  N   UNL     1       2.286   6.030  31.167  0.00  0.00    -0.372 N 
ATOM      3  N   UNL     1       0.159   5.173  31.089  0.00  0.00    -0.372 N 
ATOM      4  C   UNL     1       0.990   6.200  30.882  0.00  0.00    +0.166 C 
ATOM      5  H   UNL     1       1.238   8.126  30.296  0.00  0.00    +0.163 HD
ATOM      6  H   UNL     1       2.637   5.153  31.526  0.00  0.00    +0.159 HD
ATOM      7  H   UNL     1       2.966   6.766  31.016  0.00  0.00    +0.159 HD
ATOM      8  H   UNL     1      -0.832   5.238  30.899  0.00  0.00    +0.159 HD
ATOM      9  H   UNL     1       0.490   4.290  31.459  0.00  0.00    +0.159 HD
ENDROOT
BRANCH   1  10
ATOM     10  C   UNL     1      -0.818   7.647  30.010  0.00  0.00    +0.151 C 
BRANCH  10  11
ATOM     11  C   UNL     1      -1.488   8.451  31.091  0.00  0.00    -0.028 A 
ATOM     12  C   UNL     1      -2.819   8.193  31.448  0.00  0.00    +0.005 A 
ATOM     13  C   UNL     1      -0.794   9.467  31.765  0.00  0.00    +0.005 A 
ATOM     14  C   UNL     1      -3.432   8.918  32.473  0.00  0.00    +0.000 A 
ATOM     15  C   UNL     1      -1.410  10.190  32.787  0.00  0.00    +0.000 A 
ATOM     16  C   UNL     1      -2.728   9.913  33.142  0.00  0.00    +0.000 A 
ENDBRANCH  10  11
ENDBRANCH   1  10
TORSDOF 2
ENDMDL
MODEL 5
REMARK VINA RESULT:    -4.785     24.710     25.926
REMARK INTER + INTRA:          -5.452
REMARK INTER:                  -5.343
REMARK INTRA:                  -0.110
REMARK UNBOUND:                -0.108
REMARK  Name = 1550473
REMARK  2 active torsions:
REMARK  status: ('A' for Active; 'I' for Inactive)
REMARK    1  A    between atoms: N_1  and  C_4
REMARK    2  A    between atoms: C_4  and  C_5
REMARK                            x       y       z     vdW  Elec       q    Type
REMARK                         _______ _______ _______ _____ _____    ______ ____
ROOT
ATOM      1  N   UNL     1       5.777  22.921   9.753  0.00  0.00    -0.354 N 
ATOM      2  N   UNL     1       8.064  23.277   9.819  0.00  0.00    -0.372 N 
ATOM      3  N   UNL     1       6.806  23.799  11.666  0.00  0.00    -0.372 N 
ATOM      4  C   UNL     1       6.867  23.331  10.415  0.00  0.00    +0.166 C 
ATOM      5  H   UNL     1       5.885  22.605   8.796  0.00  0.00    +0.163 HD
ATOM      6  H   UNL     1       8.905  23.577  10.294  0.00  0.00    +0.159 HD
ATOM      7  H   UNL     1       8.176  22.918   8.879  0.00  0.00    +0.159 HD
ATOM      8  H   UNL     1       5.932  23.871  12.169  0.00  0.00    +0.159 HD
ATOM      9  H   UNL     1       7.635  24.115  12.154  0.00  0.00    +0.159 HD
ENDROOT
BRANCH   1  10
ATOM     10  C   UNL     1       4.434  22.888  10.330  0.00  0.00    +0.151 C 
BRANCH  10  11
ATOM     11  C   UNL     1       3.551  23.842   9.573  0.00  0.00    -0.028 A 
ATOM     12  C   UNL     1       2.166  23.632   9.509  0.00  0.00    +0.005 A 
ATOM     13  C   UNL     1       4.093  24.961   8.922  0.00  0.00    +0.005 A 
ATOM     14  C   UNL     1       1.341  24.534   8.832  0.00  0.00    +0.000 A 
ATOM     15  C   UNL     1       3.267  25.859   8.246  0.00  0.00    +0.000 A 
ATOM     16  C   UNL     1       1.891  25.646   8.204  0.00  0.00    +0.000 A 
ENDBRANCH  10  11
ENDBRANCH   1  10
TORSDOF 2
ENDMDL
MODEL 6
REMARK VINA RESULT:    -4.737     25.103     26.330
REMARK INTER + INTRA:          -5.398
REMARK INTER:                  -5.284
REMARK INTRA:                  -0.114
REMARK UNBOUND:                -0.108
REMARK  Name = 1550473
REMARK  2 active torsions:
REMARK  status: ('A' for Active; 'I' for Inactive)
REMARK    1  A    between atoms: N_1  and  C_4
REMARK    2  A    between atoms: C_4  and  C_5
REMARK                            x       y       z     vdW  Elec       q    Type
REMARK                         _______ _______ _______ _____ _____    ______ ____
ROOT
ATOM      1  N   UNL     1       4.286  22.448   8.886  0.00  0.00    -0.354 N 
ATOM      2  N   UNL     1       5.821  21.052   7.857  0.00  0.00    -0.372 N 
ATOM      3  N   UNL     1       6.586  22.703   9.255  0.00  0.00    -0.372 N 
ATOM      4  C   UNL     1       5.556  22.079   8.674  0.00  0.00    +0.166 C 
ATOM      5  H   UNL     1       3.552  21.954   8.392  0.00  0.00    +0.163 HD
ATOM      6  H   UNL     1       6.769  20.748   7.681  0.00  0.00    +0.159 HD
ATOM      7  H   UNL     1       5.083  20.530   7.400  0.00  0.00    +0.159 HD
ATOM      8  H   UNL     1       6.454  23.488   9.878  0.00  0.00    +0.159 HD
ATOM      9  H   UNL     1       7.543  22.421   9.082  0.00  0.00    +0.159 HD
ENDROOT
BRANCH   1  10
ATOM     10  C   UNL     1       3.887  23.519   9.798  0.00  0.00    +0.151 C 
BRANCH  10  11
ATOM     11  C   UNL     1       2.824  24.354   9.141  0.00  0.00    -0.028 A 
ATOM     12  C   UNL     1       3.163  25.534   8.463  0.00  0.00    +0.005 A 
ATOM     13  C   UNL     1       1.475  23.968   9.188  0.00  0.00    +0.005 A 
ATOM     14  C   UNL     1       2.179  26.294   7.826  0.00  0.00    +0.000 A 
ATOM     15  C   UNL     1       0.496  24.731   8.552  0.00  0.00    +0.000 A 
ATOM     16  C   UNL     1       0.848  25.892   7.869  0.00  0.00    +0.000 A 
ENDBRANCH  10  11
ENDBRANCH   1  10
TORSDOF 2
ENDMDL
MODEL 7
REMARK VINA RESULT:    -4.730     16.611     17.107
REMARK INTER + INTRA:          -5.391
REMARK INTER:                  -5.268
REMARK INTRA:                  -0.123
REMARK UNBOUND:                -0.108
REMARK  Name = 1550473
REMARK  2 active torsions:
REMARK  status: ('A' for Active; 'I' for Inactive)
REMARK    1  A    between atoms: N_1  and  C_4
REMARK    2  A    between atoms: C_4  and  C_5
REMARK                            x       y       z     vdW  Elec       q    Type
REMARK                         _______ _______ _______ _____ _____    ______ ____
ROOT
ATOM      1  N   UNL     1       4.136  -3.719   7.572  0.00  0.00    -0.354 N 
ATOM      2  N   UNL     1       4.574  -5.260   9.245  0.00  0.00    -0.372 N 
ATOM      3  N   UNL     1       4.067  -6.022   7.140  0.00  0.00    -0.372 N 
ATOM      4  C   UNL     1       4.255  -4.992   7.973  0.00  0.00    +0.166 C 
ATOM      5  H   UNL     1       4.261  -2.985   8.259  0.00  0.00    +0.163 HD
ATOM      6  H   UNL     1       4.675  -6.211   9.575  0.00  0.00    +0.159 HD
ATOM      7  H   UNL     1       4.744  -4.523   9.918  0.00  0.00    +0.159 HD
ATOM      8  H   UNL     1       3.819  -5.887   6.169  0.00  0.00    +0.159 HD
ATOM      9  H   UNL     1       4.152  -6.980   7.455  0.00  0.00    +0.159 HD
ENDROOT
BRANCH   1  10
ATOM     10  C   UNL     1       3.845  -3.319   6.197  0.00  0.00    +0.151 C 
BRANCH  10  11
ATOM     11  C   UNL     1       3.382  -1.888   6.189  0.00  0.00    -0.028 A 
ATOM     12  C   UNL     1       2.756  -1.348   5.056  0.00  0.00    +0.005 A 
ATOM     13  C   UNL     1       3.561  -1.069   7.314  0.00  0.00    +0.005 A 
ATOM     14  C   UNL     1       2.299  -0.028   5.059  0.00  0.00    +0.000 A 
ATOM     15  C   UNL     1       3.104   0.249   7.313  0.00  0.00    +0.000 A 
ATOM     16  C   UNL     1       2.471   0.768   6.186  0.00  0.00    +0.000 A 
ENDBRANCH  10  11
ENDBRANCH   1  10
TORSDOF 2
ENDMDL
MODEL 8
REMARK VINA RESULT:    -4.603     45.280     46.579
REMARK INTER + INTRA:          -5.248
REMARK INTER:                  -5.110
REMARK INTRA:                  -0.139
REMARK UNBOUND:                -0.108
REMARK  Name = 1550473
REMARK  2 active torsions:
REMARK  status: ('A' for Active; 'I' for Inactive)
REMARK    1  A    between atoms: N_1  and  C_4
REMARK    2  A    between atoms: C_4  and  C_5
REMARK                            x       y       z     vdW  Elec       q    Type
REMARK                         _______ _______ _______ _____ _____    ______ ____
ROOT
ATOM      1  N   UNL     1      -2.454   2.420 -32.969  0.00  0.00    -0.354 N 
ATOM      2  N   UNL     1      -0.630   1.736 -34.221  0.00  0.00    -0.372 N 
ATOM      3  N   UNL     1      -2.165   0.168 -33.551  0.00  0.00    -0.372 N 
ATOM      4  C   UNL     1      -1.763   1.443 -33.571  0.00  0.00    +0.166 C 
ATOM      5  H   UNL     1      -2.080   3.362 -32.996  0.00  0.00    +0.163 HD
ATOM      6  H   UNL     1      -0.088   1.021 -34.687  0.00  0.00    +0.159 HD
ATOM      7  H   UNL     1      -0.282   2.685 -34.284  0.00  0.00    +0.159 HD
ATOM      8  H   UNL     1      -3.009  -0.119 -33.073  0.00  0.00    +0.159 HD
ATOM      9  H   UNL     1      -1.631  -0.564 -34.002  0.00  0.00    +0.159 HD
ENDROOT
BRANCH   1  10
ATOM     10  C   UNL     1      -3.728   2.216 -32.282  0.00  0.00    +0.151 C 
BRANCH  10  11
ATOM     11  C   UNL     1      -3.723   2.996 -30.996  0.00  0.00    -0.028 A 
ATOM     12  C   UNL     1      -2.514   3.311 -30.359  0.00  0.00    +0.005 A 
ATOM     13  C   UNL     1      -4.925   3.429 -30.413  0.00  0.00    +0.005 A 
ATOM     14  C   UNL     1      -2.508   4.062 -29.181  0.00  0.00    +0.000 A 
ATOM     15  C   UNL     1      -4.914   4.178 -29.237  0.00  0.00    +0.000 A 
ATOM     16  C   UNL     1      -3.705   4.496 -28.622  0.00  0.00    +0.000 A 
ENDBRANCH  10  11
ENDBRANCH   1  10
TORSDOF 2
ENDMDL
MODEL 9
REMARK VINA RESULT:    -4.517     19.383     20.541
REMARK INTER + INTRA:          -5.152
REMARK INTER:                  -5.085
REMARK INTRA:                  -0.067
REMARK UNBOUND:                -0.108
REMARK  Name = 1550473
REMARK  2 active torsions:
REMARK  status: ('A' for Active; 'I' for Inactive)
REMARK    1  A    between atoms: N_1  and  C_4
REMARK    2  A    between atoms: C_4  and  C_5
REMARK                            x       y       z     vdW  Elec       q    Type
REMARK                         _______ _______ _______ _____ _____    ______ ____
ROOT
ATOM      1  N   UNL     1       4.449  -4.202  23.859  0.00  0.00    -0.354 N 
ATOM      2  N   UNL     1       2.267  -3.519  24.223  0.00  0.00    -0.372 N 
ATOM      3  N   UNL     1       2.999  -3.788  22.065  0.00  0.00    -0.372 N 
ATOM      4  C   UNL     1       3.253  -3.840  23.377  0.00  0.00    +0.166 C 
ATOM      5  H   UNL     1       4.587  -4.193  24.863  0.00  0.00    +0.163 HD
ATOM      6  H   UNL     1       1.352  -3.245  23.889  0.00  0.00    +0.159 HD
ATOM      7  H   UNL     1       2.393  -3.554  25.227  0.00  0.00    +0.159 HD
ATOM      8  H   UNL     1       3.703  -4.013  21.375  0.00  0.00    +0.159 HD
ATOM      9  H   UNL     1       2.094  -3.505  21.711  0.00  0.00    +0.159 HD
ENDROOT
BRANCH   1  10
ATOM     10  C   UNL     1       5.574  -4.623  23.025  0.00  0.00    +0.151 C 
BRANCH  10  11
ATOM     11  C   UNL     1       6.398  -3.417  22.667  0.00  0.00    -0.028 A 
ATOM     12  C   UNL     1       6.411  -2.290  23.501  0.00  0.00    +0.005 A 
ATOM     13  C   UNL     1       7.173  -3.398  21.497  0.00  0.00    +0.005 A 
ATOM     14  C   UNL     1       7.200  -1.181  23.184  0.00  0.00    +0.000 A 
ATOM     15  C   UNL     1       7.959  -2.289  21.184  0.00  0.00    +0.000 A 
ATOM     16  C   UNL     1       7.974  -1.182  22.029  0.00  0.00    +0.000 A 
ENDBRANCH  10  11
ENDBRANCH   1  10
TORSDOF 2
ENDMDL
