MODEL 1
REMARK VINA RESULT:    -6.325      0.000      0.000
REMARK INTER + INTRA:          -7.171
REMARK INTER:                  -7.064
REMARK INTRA:                  -0.107
REMARK UNBOUND:                -0.107
REMARK  Name = 1550473
REMARK  2 active torsions:
REMARK  status: ('A' for Active; 'I' for Inactive)
REMARK    1  A    between atoms: N_1  and  C_4
REMARK    2  A    between atoms: C_4  and  C_5
REMARK                            x       y       z     vdW  Elec       q    Type
REMARK                         _______ _______ _______ _____ _____    ______ ____
ROOT
ATOM      1  N   UNL     1      -3.057   0.946  -4.127  0.00  0.00    -0.354 N 
ATOM      2  N   UNL     1      -2.352   1.404  -1.968  0.00  0.00    -0.372 N 
ATOM      3  N   UNL     1      -3.768   2.880  -3.009  0.00  0.00    -0.372 N 
ATOM      4  C   UNL     1      -3.065   1.743  -3.049  0.00  0.00    +0.166 C 
ATOM      5  H   UNL     1      -2.480   0.113  -4.105  0.00  0.00    +0.163 HD
ATOM      6  H   UNL     1      -2.341   1.983  -1.140  0.00  0.00    +0.159 HD
ATOM      7  H   UNL     1      -1.812   0.548  -1.933  0.00  0.00    +0.159 HD
ATOM      8  H   UNL     1      -4.322   3.195  -3.794  0.00  0.00    +0.159 HD
ATOM      9  H   UNL     1      -3.760   3.479  -2.193  0.00  0.00    +0.159 HD
ENDROOT
BRANCH   1  10
ATOM     10  C   UNL     1      -3.841   1.197  -5.335  0.00  0.00    +0.151 C 
BRANCH  10  11
ATOM     11  C   UNL     1      -3.916  -0.069  -6.143  0.00  0.00    -0.028 A 
ATOM     12  C   UNL     1      -3.423  -0.105  -7.456  0.00  0.00    +0.005 A 
ATOM     13  C   UNL     1      -4.472  -1.237  -5.600  0.00  0.00    +0.005 A 
ATOM     14  C   UNL     1      -3.465  -1.289  -8.197  0.00  0.00    +0.000 A 
ATOM     15  C   UNL     1      -4.513  -2.417  -6.343  0.00  0.00    +0.000 A 
ATOM     16  C   UNL     1      -4.007  -2.443  -7.641  0.00  0.00    +0.000 A 
ENDBRANCH  10  11
ENDBRANCH   1  10
TORSDOF 2
ENDMDL
MODEL 2
REMARK VINA RESULT:    -5.757      3.674      5.432
REMARK INTER + INTRA:          -6.537
REMARK INTER:                  -6.414
REMARK INTRA:                  -0.122
REMARK UNBOUND:                -0.107
REMARK  Name = 1550473
REMARK  2 active torsions:
REMARK  status: ('A' for Active; 'I' for Inactive)
REMARK    1  A    between atoms: N_1  and  C_4
REMARK    2  A    between atoms: C_4  and  C_5
REMARK                            x       y       z     vdW  Elec       q    Type
REMARK                         _______ _______ _______ _____ _____    ______ ____
ROOT
ATOM      1  N   UNL     1       0.269  -0.928  -3.319  0.00  0.00    -0.354 N 
ATOM      2  N   UNL     1       1.844  -2.254  -4.380  0.00  0.00    -0.372 N 
ATOM      3  N   UNL     1       0.915  -2.992  -2.416  0.00  0.00    -0.372 N 
ATOM      4  C   UNL     1       0.998  -2.051  -3.363  0.00  0.00    +0.166 C 
ATOM      5  H   UNL     1       0.401  -0.240  -4.052  0.00  0.00    +0.163 HD
ATOM      6  H   UNL     1       2.404  -3.093  -4.442  0.00  0.00    +0.159 HD
ATOM      7  H   UNL     1       1.939  -1.586  -5.135  0.00  0.00    +0.159 HD
ATOM      8  H   UNL     1       0.301  -2.896  -1.619  0.00  0.00    +0.159 HD
ATOM      9  H   UNL     1       1.477  -3.833  -2.454  0.00  0.00    +0.159 HD
ENDROOT
BRANCH   1  10
ATOM     10  C   UNL     1      -0.719  -0.635  -2.283  0.00  0.00    +0.151 C 
BRANCH  10  11
ATOM     11  C   UNL     1      -1.703   0.372  -2.813  0.00  0.00    -0.028 A 
ATOM     12  C   UNL     1      -2.253   1.345  -1.965  0.00  0.00    +0.005 A 
ATOM     13  C   UNL     1      -2.084   0.363  -4.163  0.00  0.00    +0.005 A 
ATOM     14  C   UNL     1      -3.143   2.299  -2.463  0.00  0.00    +0.000 A 
ATOM     15  C   UNL     1      -2.974   1.317  -4.657  0.00  0.00    +0.000 A 
ATOM     16  C   UNL     1      -3.501   2.286  -3.807  0.00  0.00    +0.000 A 
ENDBRANCH  10  11
ENDBRANCH   1  10
TORSDOF 2
ENDMDL
MODEL 3
REMARK VINA RESULT:    -5.566      3.849      4.787
REMARK INTER + INTRA:          -6.324
REMARK INTER:                  -6.227
REMARK INTRA:                  -0.097
REMARK UNBOUND:                -0.107
REMARK  Name = 1550473
REMARK  2 active torsions:
REMARK  status: ('A' for Active; 'I' for Inactive)
REMARK    1  A    between atoms: N_1  and  C_4
REMARK    2  A    between atoms: C_4  and  C_5
REMARK                            x       y       z     vdW  Elec       q    Type
REMARK                         _______ _______ _______ _____ _____    ______ ____
ROOT
ATOM      1  N   UNL     1      -2.069   0.853  -3.531  0.00  0.00    -0.354 N 
ATOM      2  N   UNL     1      -3.138   2.447  -4.828  0.00  0.00    -0.372 N 
ATOM      3  N   UNL     1      -3.173   2.669  -2.544  0.00  0.00    -0.372 N 
ATOM      4  C   UNL     1      -2.787   1.980  -3.623  0.00  0.00    +0.166 C 
ATOM      5  H   UNL     1      -1.834   0.361  -4.385  0.00  0.00    +0.163 HD
ATOM      6  H   UNL     1      -3.677   3.296  -4.929  0.00  0.00    +0.159 HD
ATOM      7  H   UNL     1      -2.862   1.978  -5.682  0.00  0.00    +0.159 HD
ATOM      8  H   UNL     1      -2.946   2.367  -1.606  0.00  0.00    +0.159 HD
ATOM      9  H   UNL     1      -3.723   3.516  -2.624  0.00  0.00    +0.159 HD
ENDROOT
BRANCH   1  10
ATOM     10  C   UNL     1      -1.591   0.289  -2.270  0.00  0.00    +0.151 C 
BRANCH  10  11
ATOM     11  C   UNL     1      -0.723  -0.904  -2.563  0.00  0.00    -0.028 A 
ATOM     12  C   UNL     1      -1.146  -2.195  -2.215  0.00  0.00    +0.005 A 
ATOM     13  C   UNL     1       0.521  -0.750  -3.195  0.00  0.00    +0.005 A 
ATOM     14  C   UNL     1      -0.354  -3.306  -2.514  0.00  0.00    +0.000 A 
ATOM     15  C   UNL     1       1.309  -1.862  -3.491  0.00  0.00    +0.000 A 
ATOM     16  C   UNL     1       0.870  -3.140  -3.152  0.00  0.00    +0.000 A 
ENDBRANCH  10  11
ENDBRANCH   1  10
TORSDOF 2
ENDMDL
MODEL 4
REMARK VINA RESULT:    -4.891     18.365     19.500
REMARK INTER + INTRA:          -5.570
REMARK INTER:                  -5.454
REMARK INTRA:                  -0.116
REMARK UNBOUND:                -0.107
REMARK  Name = 1550473
REMARK  2 active torsions:
REMARK  status: ('A' for Active; 'I' for Inactive)
REMARK    1  A    between atoms: N_1  and  C_4
REMARK    2  A    between atoms: C_4  and  C_5
REMARK                            x       y       z     vdW  Elec       q    Type
REMARK                         _______ _______ _______ _____ _____    ______ ____
ROOT
ATOM      1  N   UNL     1      11.417   4.440   7.740  0.00  0.00    -0.354 N 
ATOM      2  N   UNL     1      10.818   4.266   9.971  0.00  0.00    -0.372 N 
ATOM      3  N   UNL     1      10.441   6.245   8.872  0.00  0.00    -0.372 N 
ATOM      4  C   UNL     1      10.895   4.987   8.846  0.00  0.00    +0.166 C 
ATOM      5  H   UNL     1      11.772   3.492   7.794  0.00  0.00    +0.163 HD
ATOM      6  H   UNL     1      10.426   4.651  10.819  0.00  0.00    +0.159 HD
ATOM      7  H   UNL     1      11.131   3.303  10.009  0.00  0.00    +0.159 HD
ATOM      8  H   UNL     1      10.476   6.844   8.058  0.00  0.00    +0.159 HD
ATOM      9  H   UNL     1      10.056   6.652   9.715  0.00  0.00    +0.159 HD
ENDROOT
BRANCH   1  10
ATOM     10  C   UNL     1      11.498   5.122   6.450  0.00  0.00    +0.151 C 
BRANCH  10  11
ATOM     11  C   UNL     1      11.715   4.101   5.367  0.00  0.00    -0.028 A 
ATOM     12  C   UNL     1      12.430   2.923   5.632  0.00  0.00    +0.005 A 
ATOM     13  C   UNL     1      11.204   4.303   4.076  0.00  0.00    +0.005 A 
ATOM     14  C   UNL     1      12.605   1.961   4.635  0.00  0.00    +0.000 A 
ATOM     15  C   UNL     1      11.382   3.340   3.083  0.00  0.00    +0.000 A 
ATOM     16  C   UNL     1      12.081   2.168   3.363  0.00  0.00    +0.000 A 
ENDBRANCH  10  11
ENDBRANCH   1  10
TORSDOF 2
ENDMDL
MODEL 5
REMARK VINA RESULT:    -4.637     16.863     17.683
REMARK INTER + INTRA:          -5.286
REMARK INTER:                  -5.189
REMARK INTRA:                  -0.097
REMARK UNBOUND:                -0.107
REMARK  Name = 1550473
REMARK  2 active torsions:
REMARK  status: ('A' for Active; 'I' for Inactive)
REMARK    1  A    between atoms: N_1  and  C_4
REMARK    2  A    between atoms: C_4  and  C_5
REMARK                            x       y       z     vdW  Elec       q    Type
REMARK                         _______ _______ _______ _____ _____    ______ ____
ROOT
ATOM      1  N   UNL     1       9.217  -6.947   3.578  0.00  0.00    -0.354 N 
ATOM      2  N   UNL     1      10.674  -5.236   4.139  0.00  0.00    -0.372 N 
ATOM      3  N   UNL     1      10.354  -5.740   1.923  0.00  0.00    -0.372 N 
ATOM      4  C   UNL     1      10.072  -5.986   3.207  0.00  0.00    +0.166 C 
ATOM      5  H   UNL     1       9.069  -7.104   4.569  0.00  0.00    +0.163 HD
ATOM      6  H   UNL     1      11.322  -4.501   3.889  0.00  0.00    +0.159 HD
ATOM      7  H   UNL     1      10.489  -5.365   5.126  0.00  0.00    +0.159 HD
ATOM      8  H   UNL     1       9.938  -6.274   1.172  0.00  0.00    +0.159 HD
ATOM      9  H   UNL     1      11.009  -5.016   1.653  0.00  0.00    +0.159 HD
ENDROOT
BRANCH   1  10
ATOM     10  C   UNL     1       8.468  -7.783   2.641  0.00  0.00    +0.151 C 
BRANCH  10  11
ATOM     11  C   UNL     1       8.145  -9.094   3.302  0.00  0.00    -0.028 A 
ATOM     12  C   UNL     1       7.004  -9.222   4.109  0.00  0.00    +0.005 A 
ATOM     13  C   UNL     1       8.971 -10.214   3.122  0.00  0.00    +0.005 A 
ATOM     14  C   UNL     1       6.687 -10.448   4.699  0.00  0.00    +0.000 A 
ATOM     15  C   UNL     1       8.651 -11.436   3.713  0.00  0.00    +0.000 A 
ATOM     16  C   UNL     1       7.508 -11.553   4.500  0.00  0.00    +0.000 A 
ENDBRANCH  10  11
ENDBRANCH   1  10
TORSDOF 2
ENDMDL
MODEL 6
REMARK VINA RESULT:    -4.628     18.554     19.808
REMARK INTER + INTRA:          -5.276
REMARK INTER:                  -5.184
REMARK INTRA:                  -0.092
REMARK UNBOUND:                -0.107
REMARK  Name = 1550473
REMARK  2 active torsions:
REMARK  status: ('A' for Active; 'I' for Inactive)
REMARK    1  A    between atoms: N_1  and  C_4
REMARK    2  A    between atoms: C_4  and  C_5
REMARK                            x       y       z     vdW  Elec       q    Type
REMARK                         _______ _______ _______ _____ _____    ______ ____
ROOT
ATOM      1  N   UNL     1      12.519   6.120   6.450  0.00  0.00    -0.354 N 
ATOM      2  N   UNL     1      13.548   8.086   7.114  0.00  0.00    -0.372 N 
ATOM      3  N   UNL     1      11.489   7.563   7.982  0.00  0.00    -0.372 N 
ATOM      4  C   UNL     1      12.510   7.244   7.179  0.00  0.00    +0.166 C 
ATOM      5  H   UNL     1      13.309   5.950   5.837  0.00  0.00    +0.163 HD
ATOM      6  H   UNL     1      13.570   8.940   7.655  0.00  0.00    +0.159 HD
ATOM      7  H   UNL     1      14.357   7.891   6.536  0.00  0.00    +0.159 HD
ATOM      8  H   UNL     1      10.673   6.973   8.072  0.00  0.00    +0.159 HD
ATOM      9  H   UNL     1      11.488   8.419   8.523  0.00  0.00    +0.159 HD
ENDROOT
BRANCH   1  10
ATOM     10  C   UNL     1      11.463   5.110   6.490  0.00  0.00    +0.151 C 
BRANCH  10  11
ATOM     11  C   UNL     1      11.705   4.102   5.400  0.00  0.00    -0.028 A 
ATOM     12  C   UNL     1      12.390   2.909   5.673  0.00  0.00    +0.005 A 
ATOM     13  C   UNL     1      11.247   4.332   4.094  0.00  0.00    +0.005 A 
ATOM     14  C   UNL     1      12.589   1.959   4.668  0.00  0.00    +0.000 A 
ATOM     15  C   UNL     1      11.449   3.381   3.093  0.00  0.00    +0.000 A 
ATOM     16  C   UNL     1      12.117   2.194   3.381  0.00  0.00    +0.000 A 
ENDBRANCH  10  11
ENDBRANCH   1  10
TORSDOF 2
ENDMDL
MODEL 7
REMARK VINA RESULT:    -4.615     15.758     17.018
REMARK INTER + INTRA:          -5.262
REMARK INTER:                  -5.099
REMARK INTRA:                  -0.162
REMARK UNBOUND:                -0.107
REMARK  Name = 1550473
REMARK  2 active torsions:
REMARK  status: ('A' for Active; 'I' for Inactive)
REMARK    1  A    between atoms: N_1  and  C_4
REMARK    2  A    between atoms: C_4  and  C_5
REMARK                            x       y       z     vdW  Elec       q    Type
REMARK                         _______ _______ _______ _____ _____    ______ ____
ROOT
ATOM      1  N   UNL     1       4.885  14.767   1.277  0.00  0.00    -0.354 N 
ATOM      2  N   UNL     1       4.680  14.041   3.467  0.00  0.00    -0.372 N 
ATOM      3  N   UNL     1       5.423  12.566   1.874  0.00  0.00    -0.372 N 
ATOM      4  C   UNL     1       4.998  13.794   2.190  0.00  0.00    +0.166 C 
ATOM      5  H   UNL     1       4.528  15.668   1.576  0.00  0.00    +0.163 HD
ATOM      6  H   UNL     1       4.759  13.327   4.179  0.00  0.00    +0.159 HD
ATOM      7  H   UNL     1       4.368  14.955   3.771  0.00  0.00    +0.159 HD
ATOM      8  H   UNL     1       5.674  12.313   0.927  0.00  0.00    +0.159 HD
ATOM      9  H   UNL     1       5.498  11.835   2.570  0.00  0.00    +0.159 HD
ENDROOT
BRANCH   1  10
ATOM     10  C   UNL     1       5.257  14.617  -0.129  0.00  0.00    +0.151 C 
BRANCH  10  11
ATOM     11  C   UNL     1       4.007  14.502  -0.957  0.00  0.00    -0.028 A 
ATOM     12  C   UNL     1       2.858  15.230  -0.617  0.00  0.00    +0.005 A 
ATOM     13  C   UNL     1       3.968  13.670  -2.087  0.00  0.00    +0.005 A 
ATOM     14  C   UNL     1       1.706  15.146  -1.404  0.00  0.00    +0.000 A 
ATOM     15  C   UNL     1       2.816  13.588  -2.869  0.00  0.00    +0.000 A 
ATOM     16  C   UNL     1       1.686  14.328  -2.529  0.00  0.00    +0.000 A 
ENDBRANCH  10  11
ENDBRANCH   1  10
TORSDOF 2
ENDMDL
MODEL 8
REMARK VINA RESULT:    -4.359     17.431     18.310
REMARK INTER + INTRA:          -4.976
REMARK INTER:                  -4.869
REMARK INTRA:                  -0.107
REMARK UNBOUND:                -0.107
REMARK  Name = 1550473
REMARK  2 active torsions:
REMARK  status: ('A' for Active; 'I' for Inactive)
REMARK    1  A    between atoms: N_1  and  C_4
REMARK    2  A    between atoms: C_4  and  C_5
REMARK                            x       y       z     vdW  Elec       q    Type
REMARK                         _______ _______ _______ _____ _____    ______ ____
ROOT
ATOM      1  N   UNL     1       4.846  14.868   3.410  0.00  0.00    -0.354 N 
ATOM      2  N   UNL     1       5.991  16.050   5.039  0.00  0.00    -0.372 N 
ATOM      3  N   UNL     1       6.647  13.904   4.558  0.00  0.00    -0.372 N 
ATOM      4  C   UNL     1       5.822  14.930   4.325  0.00  0.00    +0.166 C 
ATOM      5  H   UNL     1       4.235  15.669   3.302  0.00  0.00    +0.163 HD
ATOM      6  H   UNL     1       6.721  16.128   5.735  0.00  0.00    +0.159 HD
ATOM      7  H   UNL     1       5.408  16.866   4.898  0.00  0.00    +0.159 HD
ATOM      8  H   UNL     1       6.568  13.029   4.057  0.00  0.00    +0.159 HD
ATOM      9  H   UNL     1       7.377  13.959   5.258  0.00  0.00    +0.159 HD
ENDROOT
BRANCH   1  10
ATOM     10  C   UNL     1       4.611  13.715   2.542  0.00  0.00    +0.151 C 
BRANCH  10  11
ATOM     11  C   UNL     1       4.094  14.197   1.215  0.00  0.00    -0.028 A 
ATOM     12  C   UNL     1       4.713  13.795   0.021  0.00  0.00    +0.005 A 
ATOM     13  C   UNL     1       2.983  15.050   1.143  0.00  0.00    +0.005 A 
ATOM     14  C   UNL     1       4.215  14.218  -1.213  0.00  0.00    +0.000 A 
ATOM     15  C   UNL     1       2.489  15.471  -0.092  0.00  0.00    +0.000 A 
ATOM     16  C   UNL     1       3.103  15.053  -1.270  0.00  0.00    +0.000 A 
ENDBRANCH  10  11
ENDBRANCH   1  10
TORSDOF 2
ENDMDL
MODEL 9
REMARK VINA RESULT:    -4.206     17.446     18.553
REMARK INTER + INTRA:          -4.805
REMARK INTER:                  -4.634
REMARK INTRA:                  -0.171
REMARK UNBOUND:                -0.107
REMARK  Name = 1550473
REMARK  2 active torsions:
REMARK  status: ('A' for Active; 'I' for Inactive)
REMARK    1  A    between atoms: N_1  and  C_4
REMARK    2  A    between atoms: C_4  and  C_5
REMARK                            x       y       z     vdW  Elec       q    Type
REMARK                         _______ _______ _______ _____ _____    ______ ____
ROOT
ATOM      1  N   UNL     1      10.116  -7.237   6.223  0.00  0.00    -0.354 N 
ATOM      2  N   UNL     1      10.240  -5.519   7.771  0.00  0.00    -0.372 N 
ATOM      3  N   UNL     1      12.164  -6.218   6.734  0.00  0.00    -0.372 N 
ATOM      4  C   UNL     1      10.842  -6.336   6.899  0.00  0.00    +0.166 C 
ATOM      5  H   UNL     1       9.123  -7.296   6.415  0.00  0.00    +0.163 HD
ATOM      6  H   UNL     1      10.761  -4.827   8.293  0.00  0.00    +0.159 HD
ATOM      7  H   UNL     1       9.240  -5.549   7.928  0.00  0.00    +0.159 HD
ATOM      8  H   UNL     1      12.679  -6.809   6.095  0.00  0.00    +0.159 HD
ATOM      9  H   UNL     1      12.704  -5.539   7.256  0.00  0.00    +0.159 HD
ENDROOT
BRANCH   1  10
ATOM     10  C   UNL     1      10.666  -8.137   5.211  0.00  0.00    +0.151 C 
BRANCH  10  11
ATOM     11  C   UNL     1      10.322  -7.609   3.845  0.00  0.00    -0.028 A 
ATOM     12  C   UNL     1       9.168  -8.049   3.182  0.00  0.00    +0.005 A 
ATOM     13  C   UNL     1      11.144  -6.665   3.212  0.00  0.00    +0.005 A 
ATOM     14  C   UNL     1       8.832  -7.537   1.926  0.00  0.00    +0.000 A 
ATOM     15  C   UNL     1      10.806  -6.157   1.957  0.00  0.00    +0.000 A 
ATOM     16  C   UNL     1       9.649  -6.591   1.316  0.00  0.00    +0.000 A 
ENDBRANCH  10  11
ENDBRANCH   1  10
TORSDOF 2
ENDMDL
