MODEL 1
REMARK VINA RESULT:    -4.640      0.000      0.000
REMARK INTER + INTRA:          -5.343
REMARK INTER:                  -5.182
REMARK INTRA:                  -0.161
REMARK UNBOUND:                -0.161
REMARK  Name = 1550473
REMARK  2 active torsions:
REMARK  status: ('A' for Active; 'I' for Inactive)
REMARK    1  A    between atoms: N_1  and  C_4
REMARK    2  A    between atoms: C_4  and  C_5
REMARK                            x       y       z     vdW  Elec       q    Type
REMARK                         _______ _______ _______ _____ _____    ______ ____
ROOT
ATOM      1  N   UNL     1      11.270   3.963  10.877  0.00  0.00    -0.354 N 
ATOM      2  N   UNL     1      11.513   3.015   8.778  0.00  0.00    -0.372 N 
ATOM      3  N   UNL     1      12.610   4.976   9.242  0.00  0.00    -0.372 N 
ATOM      4  C   UNL     1      11.797   3.993   9.646  0.00  0.00    +0.166 C 
ATOM      5  H   UNL     1      10.637   3.207  11.111  0.00  0.00    +0.163 HD
ATOM      6  H   UNL     1      11.899   3.009   7.843  0.00  0.00    +0.159 HD
ATOM      7  H   UNL     1      10.917   2.236   9.030  0.00  0.00    +0.159 HD
ATOM      8  H   UNL     1      12.859   5.747   9.847  0.00  0.00    +0.159 HD
ATOM      9  H   UNL     1      12.997   4.993   8.307  0.00  0.00    +0.159 HD
ENDROOT
BRANCH   1  10
ATOM     10  C   UNL     1      11.559   4.952  11.914  0.00  0.00    +0.151 C 
BRANCH  10  11
ATOM     11  C   UNL     1      10.357   5.837  12.098  0.00  0.00    -0.028 A 
ATOM     12  C   UNL     1      10.078   6.859  11.178  0.00  0.00    +0.005 A 
ATOM     13  C   UNL     1       9.490   5.655  13.186  0.00  0.00    +0.005 A 
ATOM     14  C   UNL     1       8.945   7.662  11.332  0.00  0.00    +0.000 A 
ATOM     15  C   UNL     1       8.361   6.460  13.337  0.00  0.00    +0.000 A 
ATOM     16  C   UNL     1       8.087   7.461  12.408  0.00  0.00    +0.000 A 
ENDBRANCH  10  11
ENDBRANCH   1  10
TORSDOF 2
ENDMDL
MODEL 2
REMARK VINA RESULT:    -4.611     30.540     31.636
REMARK INTER + INTRA:          -5.311
REMARK INTER:                  -5.215
REMARK INTRA:                  -0.096
REMARK UNBOUND:                -0.161
REMARK  Name = 1550473
REMARK  2 active torsions:
REMARK  status: ('A' for Active; 'I' for Inactive)
REMARK    1  A    between atoms: N_1  and  C_4
REMARK    2  A    between atoms: C_4  and  C_5
REMARK                            x       y       z     vdW  Elec       q    Type
REMARK                         _______ _______ _______ _____ _____    ______ ____
ROOT
ATOM      1  N   UNL     1      -2.627  -2.020 -16.645  0.00  0.00    -0.354 N 
ATOM      2  N   UNL     1      -3.747  -0.004 -16.430  0.00  0.00    -0.372 N 
ATOM      3  N   UNL     1      -4.720  -1.689 -17.646  0.00  0.00    -0.372 N 
ATOM      4  C   UNL     1      -3.692  -1.252 -16.910  0.00  0.00    +0.166 C 
ATOM      5  H   UNL     1      -1.867  -1.619 -16.107  0.00  0.00    +0.163 HD
ATOM      6  H   UNL     1      -4.540   0.597 -16.610  0.00  0.00    +0.159 HD
ATOM      7  H   UNL     1      -3.007   0.378 -15.853  0.00  0.00    +0.159 HD
ATOM      8  H   UNL     1      -4.737  -2.619 -18.043  0.00  0.00    +0.159 HD
ATOM      9  H   UNL     1      -5.516  -1.098 -17.848  0.00  0.00    +0.159 HD
ENDROOT
BRANCH   1  10
ATOM     10  C   UNL     1      -2.493  -3.410 -17.076  0.00  0.00    +0.151 C 
BRANCH  10  11
ATOM     11  C   UNL     1      -1.428  -4.079 -16.252  0.00  0.00    -0.028 A 
ATOM     12  C   UNL     1      -1.759  -5.118 -15.368  0.00  0.00    +0.005 A 
ATOM     13  C   UNL     1      -0.086  -3.684 -16.353  0.00  0.00    +0.005 A 
ATOM     14  C   UNL     1      -0.766  -5.760 -14.625  0.00  0.00    +0.000 A 
ATOM     15  C   UNL     1       0.903  -4.327 -15.609  0.00  0.00    +0.000 A 
ATOM     16  C   UNL     1       0.563  -5.367 -14.746  0.00  0.00    +0.000 A 
ENDBRANCH  10  11
ENDBRANCH   1  10
TORSDOF 2
ENDMDL
MODEL 3
REMARK VINA RESULT:    -4.551     30.941     31.888
REMARK INTER + INTRA:          -5.244
REMARK INTER:                  -5.082
REMARK INTRA:                  -0.162
REMARK UNBOUND:                -0.161
REMARK  Name = 1550473
REMARK  2 active torsions:
REMARK  status: ('A' for Active; 'I' for Inactive)
REMARK    1  A    between atoms: N_1  and  C_4
REMARK    2  A    between atoms: C_4  and  C_5
REMARK                            x       y       z     vdW  Elec       q    Type
REMARK                         _______ _______ _______ _____ _____    ______ ____
ROOT
ATOM      1  N   UNL     1      -3.074   0.111 -17.424  0.00  0.00    -0.354 N 
ATOM      2  N   UNL     1      -4.639   0.052 -19.130  0.00  0.00    -0.372 N 
ATOM      3  N   UNL     1      -4.861  -1.404 -17.371  0.00  0.00    -0.372 N 
ATOM      4  C   UNL     1      -4.182  -0.416 -17.962  0.00  0.00    +0.166 C 
ATOM      5  H   UNL     1      -2.588   0.837 -17.937  0.00  0.00    +0.163 HD
ATOM      6  H   UNL     1      -5.475  -0.323 -19.558  0.00  0.00    +0.159 HD
ATOM      7  H   UNL     1      -4.177   0.810 -19.618  0.00  0.00    +0.159 HD
ATOM      8  H   UNL     1      -4.565  -1.806 -16.491  0.00  0.00    +0.159 HD
ATOM      9  H   UNL     1      -5.693  -1.801 -17.790  0.00  0.00    +0.159 HD
ENDROOT
BRANCH   1  10
ATOM     10  C   UNL     1      -2.523  -0.291 -16.131  0.00  0.00    +0.151 C 
BRANCH  10  11
ATOM     11  C   UNL     1      -1.372  -1.232 -16.358  0.00  0.00    -0.028 A 
ATOM     12  C   UNL     1      -0.063  -0.741 -16.476  0.00  0.00    +0.005 A 
ATOM     13  C   UNL     1      -1.582  -2.616 -16.450  0.00  0.00    +0.005 A 
ATOM     14  C   UNL     1       1.010  -1.617 -16.657  0.00  0.00    +0.000 A 
ATOM     15  C   UNL     1      -0.509  -3.487 -16.631  0.00  0.00    +0.000 A 
ATOM     16  C   UNL     1       0.788  -2.988 -16.732  0.00  0.00    +0.000 A 
ENDBRANCH  10  11
ENDBRANCH   1  10
TORSDOF 2
ENDMDL
MODEL 4
REMARK VINA RESULT:    -4.245      3.210      3.965
REMARK INTER + INTRA:          -4.902
REMARK INTER:                  -4.771
REMARK INTRA:                  -0.131
REMARK UNBOUND:                -0.161
REMARK  Name = 1550473
REMARK  2 active torsions:
REMARK  status: ('A' for Active; 'I' for Inactive)
REMARK    1  A    between atoms: N_1  and  C_4
REMARK    2  A    between atoms: C_4  and  C_5
REMARK                            x       y       z     vdW  Elec       q    Type
REMARK                         _______ _______ _______ _____ _____    ______ ____
ROOT
ATOM      1  N   UNL     1      10.007   2.212  14.403  0.00  0.00    -0.354 N 
ATOM      2  N   UNL     1       9.183   0.236  15.287  0.00  0.00    -0.372 N 
ATOM      3  N   UNL     1      10.201   0.191  13.231  0.00  0.00    -0.372 N 
ATOM      4  C   UNL     1       9.803   0.892  14.298  0.00  0.00    +0.166 C 
ATOM      5  H   UNL     1       9.655   2.690  15.224  0.00  0.00    +0.163 HD
ATOM      6  H   UNL     1       9.018  -0.761  15.238  0.00  0.00    +0.159 HD
ATOM      7  H   UNL     1       8.873   0.708  16.127  0.00  0.00    +0.159 HD
ATOM      8  H   UNL     1      10.669   0.628  12.448  0.00  0.00    +0.159 HD
ATOM      9  H   UNL     1      10.034  -0.805  13.158  0.00  0.00    +0.159 HD
ENDROOT
BRANCH   1  10
ATOM     10  C   UNL     1      10.720   3.010  13.407  0.00  0.00    +0.151 C 
BRANCH  10  11
ATOM     11  C   UNL     1       9.974   4.297  13.185  0.00  0.00    -0.028 A 
ATOM     12  C   UNL     1      10.084   4.982  11.965  0.00  0.00    +0.005 A 
ATOM     13  C   UNL     1       9.152   4.834  14.187  0.00  0.00    +0.005 A 
ATOM     14  C   UNL     1       9.369   6.162  11.747  0.00  0.00    +0.000 A 
ATOM     15  C   UNL     1       8.440   6.013  13.966  0.00  0.00    +0.000 A 
ATOM     16  C   UNL     1       8.547   6.675  12.745  0.00  0.00    +0.000 A 
ENDBRANCH  10  11
ENDBRANCH   1  10
TORSDOF 2
ENDMDL
MODEL 5
REMARK VINA RESULT:    -4.205     23.809     24.834
REMARK INTER + INTRA:          -4.858
REMARK INTER:                  -4.753
REMARK INTRA:                  -0.105
REMARK UNBOUND:                -0.161
REMARK  Name = 1550473
REMARK  2 active torsions:
REMARK  status: ('A' for Active; 'I' for Inactive)
REMARK    1  A    between atoms: N_1  and  C_4
REMARK    2  A    between atoms: C_4  and  C_5
REMARK                            x       y       z     vdW  Elec       q    Type
REMARK                         _______ _______ _______ _____ _____    ______ ____
ROOT
ATOM      1  N   UNL     1      10.072   4.291 -13.383  0.00  0.00    -0.354 N 
ATOM      2  N   UNL     1       9.416   6.424 -14.006  0.00  0.00    -0.372 N 
ATOM      3  N   UNL     1      11.510   6.122 -13.116  0.00  0.00    -0.372 N 
ATOM      4  C   UNL     1      10.339   5.599 -13.497  0.00  0.00    +0.166 C 
ATOM      5  H   UNL     1       9.154   3.962 -13.661  0.00  0.00    +0.163 HD
ATOM      6  H   UNL     1       9.591   7.415 -14.107  0.00  0.00    +0.159 HD
ATOM      7  H   UNL     1       8.517   6.085 -14.325  0.00  0.00    +0.159 HD
ATOM      8  H   UNL     1      12.246   5.555 -12.719  0.00  0.00    +0.159 HD
ATOM      9  H   UNL     1      11.699   7.113 -13.199  0.00  0.00    +0.159 HD
ENDROOT
BRANCH   1  10
ATOM     10  C   UNL     1      11.028   3.301 -12.892  0.00  0.00    +0.151 C 
BRANCH  10  11
ATOM     11  C   UNL     1      10.352   1.959 -12.821  0.00  0.00    -0.028 A 
ATOM     12  C   UNL     1      10.423   1.187 -11.652  0.00  0.00    +0.005 A 
ATOM     13  C   UNL     1       9.634   1.457 -13.917  0.00  0.00    +0.005 A 
ATOM     14  C   UNL     1       9.770  -0.046 -11.575  0.00  0.00    +0.000 A 
ATOM     15  C   UNL     1       8.984   0.225 -13.837  0.00  0.00    +0.000 A 
ATOM     16  C   UNL     1       9.050  -0.524 -12.665  0.00  0.00    +0.000 A 
ENDBRANCH  10  11
ENDBRANCH   1  10
TORSDOF 2
ENDMDL
MODEL 6
REMARK VINA RESULT:    -4.189     31.165     32.307
REMARK INTER + INTRA:          -4.840
REMARK INTER:                  -4.742
REMARK INTRA:                  -0.098
REMARK UNBOUND:                -0.161
REMARK  Name = 1550473
REMARK  2 active torsions:
REMARK  status: ('A' for Active; 'I' for Inactive)
REMARK    1  A    between atoms: N_1  and  C_4
REMARK    2  A    between atoms: C_4  and  C_5
REMARK                            x       y       z     vdW  Elec       q    Type
REMARK                         _______ _______ _______ _____ _____    ______ ____
ROOT
ATOM      1  N   UNL     1      -3.023  -2.091 -16.816  0.00  0.00    -0.354 N 
ATOM      2  N   UNL     1      -4.533  -0.382 -17.221  0.00  0.00    -0.372 N 
ATOM      3  N   UNL     1      -2.370   0.155 -16.673  0.00  0.00    -0.372 N 
ATOM      4  C   UNL     1      -3.296  -0.782 -16.900  0.00  0.00    +0.166 C 
ATOM      5  H   UNL     1      -3.776  -2.751 -16.971  0.00  0.00    +0.163 HD
ATOM      6  H   UNL     1      -4.768   0.598 -17.295  0.00  0.00    +0.159 HD
ATOM      7  H   UNL     1      -5.272  -1.045 -17.420  0.00  0.00    +0.159 HD
ATOM      8  H   UNL     1      -1.420  -0.081 -16.421  0.00  0.00    +0.159 HD
ATOM      9  H   UNL     1      -2.590   1.142 -16.730  0.00  0.00    +0.159 HD
ENDROOT
BRANCH   1  10
ATOM     10  C   UNL     1      -1.696  -2.632 -16.527  0.00  0.00    +0.151 C 
BRANCH  10  11
ATOM     11  C   UNL     1      -1.769  -4.134 -16.516  0.00  0.00    -0.028 A 
ATOM     12  C   UNL     1      -2.113  -4.838 -17.679  0.00  0.00    +0.005 A 
ATOM     13  C   UNL     1      -1.491  -4.859 -15.347  0.00  0.00    +0.005 A 
ATOM     14  C   UNL     1      -2.152  -6.235 -17.677  0.00  0.00    +0.000 A 
ATOM     15  C   UNL     1      -1.532  -6.253 -15.349  0.00  0.00    +0.000 A 
ATOM     16  C   UNL     1      -1.860  -6.940 -16.515  0.00  0.00    +0.000 A 
ENDBRANCH  10  11
ENDBRANCH   1  10
TORSDOF 2
ENDMDL
MODEL 7
REMARK VINA RESULT:    -4.111     28.172     29.805
REMARK INTER + INTRA:          -4.753
REMARK INTER:                  -4.600
REMARK INTRA:                  -0.153
REMARK UNBOUND:                -0.161
REMARK  Name = 1550473
REMARK  2 active torsions:
REMARK  status: ('A' for Active; 'I' for Inactive)
REMARK    1  A    between atoms: N_1  and  C_4
REMARK    2  A    between atoms: C_4  and  C_5
REMARK                            x       y       z     vdW  Elec       q    Type
REMARK                         _______ _______ _______ _____ _____    ______ ____
ROOT
ATOM      1  N   UNL     1       2.316  -2.244 -15.526  0.00  0.00    -0.354 N 
ATOM      2  N   UNL     1       3.475  -3.307 -13.826  0.00  0.00    -0.372 N 
ATOM      3  N   UNL     1       2.768  -1.148 -13.505  0.00  0.00    -0.372 N 
ATOM      4  C   UNL     1       2.845  -2.224 -14.296  0.00  0.00    +0.166 C 
ATOM      5  H   UNL     1       2.435  -3.079 -16.088  0.00  0.00    +0.163 HD
ATOM      6  H   UNL     1       3.882  -3.323 -12.901  0.00  0.00    +0.159 HD
ATOM      7  H   UNL     1       3.553  -4.157 -14.372  0.00  0.00    +0.159 HD
ATOM      8  H   UNL     1       2.310  -0.297 -13.802  0.00  0.00    +0.159 HD
ATOM      9  H   UNL     1       3.178  -1.140 -12.579  0.00  0.00    +0.159 HD
ENDROOT
BRANCH   1  10
ATOM     10  C   UNL     1       1.563  -1.136 -16.111  0.00  0.00    +0.151 C 
BRANCH  10  11
ATOM     11  C   UNL     1       0.136  -1.564 -16.312  0.00  0.00    -0.028 A 
ATOM     12  C   UNL     1      -0.186  -2.920 -16.469  0.00  0.00    +0.005 A 
ATOM     13  C   UNL     1      -0.901  -0.619 -16.341  0.00  0.00    +0.005 A 
ATOM     14  C   UNL     1      -1.515  -3.321 -16.626  0.00  0.00    +0.000 A 
ATOM     15  C   UNL     1      -2.227  -1.023 -16.499  0.00  0.00    +0.000 A 
ATOM     16  C   UNL     1      -2.533  -2.374 -16.639  0.00  0.00    +0.000 A 
ENDBRANCH  10  11
ENDBRANCH   1  10
TORSDOF 2
ENDMDL
MODEL 8
REMARK VINA RESULT:    -3.981     19.578     20.270
REMARK INTER + INTRA:          -4.607
REMARK INTER:                  -4.481
REMARK INTRA:                  -0.126
REMARK UNBOUND:                -0.161
REMARK  Name = 1550473
REMARK  2 active torsions:
REMARK  status: ('A' for Active; 'I' for Inactive)
REMARK    1  A    between atoms: N_1  and  C_4
REMARK    2  A    between atoms: C_4  and  C_5
REMARK                            x       y       z     vdW  Elec       q    Type
REMARK                         _______ _______ _______ _____ _____    ______ ____
ROOT
ATOM      1  N   UNL     1      -7.343  -3.830   5.361  0.00  0.00    -0.354 N 
ATOM      2  N   UNL     1      -8.466  -5.818   5.749  0.00  0.00    -0.372 N 
ATOM      3  N   UNL     1      -6.835  -5.160   7.222  0.00  0.00    -0.372 N 
ATOM      4  C   UNL     1      -7.539  -4.923   6.110  0.00  0.00    +0.166 C 
ATOM      5  H   UNL     1      -7.888  -3.724   4.513  0.00  0.00    +0.163 HD
ATOM      6  H   UNL     1      -8.639  -6.650   6.297  0.00  0.00    +0.159 HD
ATOM      7  H   UNL     1      -9.042  -5.686   4.926  0.00  0.00    +0.159 HD
ATOM      8  H   UNL     1      -6.116  -4.526   7.546  0.00  0.00    +0.159 HD
ATOM      9  H   UNL     1      -6.985  -5.993   7.777  0.00  0.00    +0.159 HD
ENDROOT
BRANCH   1  10
ATOM     10  C   UNL     1      -6.395  -2.768   5.695  0.00  0.00    +0.151 C 
BRANCH  10  11
ATOM     11  C   UNL     1      -6.008  -2.041   4.437  0.00  0.00    -0.028 A 
ATOM     12  C   UNL     1      -6.046  -2.695   3.197  0.00  0.00    +0.005 A 
ATOM     13  C   UNL     1      -5.608  -0.697   4.478  0.00  0.00    +0.005 A 
ATOM     14  C   UNL     1      -5.716  -2.011   2.024  0.00  0.00    +0.000 A 
ATOM     15  C   UNL     1      -5.278  -0.018   3.305  0.00  0.00    +0.000 A 
ATOM     16  C   UNL     1      -5.334  -0.675   2.078  0.00  0.00    +0.000 A 
ENDBRANCH  10  11
ENDBRANCH   1  10
TORSDOF 2
ENDMDL
MODEL 9
REMARK VINA RESULT:    -3.963     10.838     11.920
REMARK INTER + INTRA:          -4.587
REMARK INTER:                  -4.412
REMARK INTRA:                  -0.175
REMARK UNBOUND:                -0.161
REMARK  Name = 1550473
REMARK  2 active torsions:
REMARK  status: ('A' for Active; 'I' for Inactive)
REMARK    1  A    between atoms: N_1  and  C_4
REMARK    2  A    between atoms: C_4  and  C_5
REMARK                            x       y       z     vdW  Elec       q    Type
REMARK                         _______ _______ _______ _____ _____    ______ ____
ROOT
ATOM      1  N   UNL     1       4.395  13.952   9.134  0.00  0.00    -0.354 N 
ATOM      2  N   UNL     1       6.611  14.563   8.853  0.00  0.00    -0.372 N 
ATOM      3  N   UNL     1       4.967  15.981   8.109  0.00  0.00    -0.372 N 
ATOM      4  C   UNL     1       5.309  14.830   8.699  0.00  0.00    +0.166 C 
ATOM      5  H   UNL     1       4.718  13.084   9.545  0.00  0.00    +0.163 HD
ATOM      6  H   UNL     1       7.323  15.208   8.539  0.00  0.00    +0.159 HD
ATOM      7  H   UNL     1       6.931  13.716   9.307  0.00  0.00    +0.159 HD
ATOM      8  H   UNL     1       4.002  16.239   7.957  0.00  0.00    +0.159 HD
ATOM      9  H   UNL     1       5.666  16.633   7.777  0.00  0.00    +0.159 HD
ENDROOT
BRANCH   1  10
ATOM     10  C   UNL     1       2.951  14.172   9.062  0.00  0.00    +0.151 C 
BRANCH  10  11
ATOM     11  C   UNL     1       2.402  13.446   7.865  0.00  0.00    -0.028 A 
ATOM     12  C   UNL     1       1.592  14.115   6.936  0.00  0.00    +0.005 A 
ATOM     13  C   UNL     1       2.694  12.090   7.650  0.00  0.00    +0.005 A 
ATOM     14  C   UNL     1       1.106  13.449   5.808  0.00  0.00    +0.000 A 
ATOM     15  C   UNL     1       2.207  11.429   6.523  0.00  0.00    +0.000 A 
ATOM     16  C   UNL     1       1.415  12.109   5.601  0.00  0.00    +0.000 A 
ENDBRANCH  10  11
ENDBRANCH   1  10
TORSDOF 2
ENDMDL
