MODEL 1
REMARK VINA RESULT:    -6.086      0.000      0.000
REMARK INTER + INTRA:          -6.923
REMARK INTER:                  -6.797
REMARK INTRA:                  -0.126
REMARK UNBOUND:                -0.126
REMARK  Name = 1550473
REMARK  2 active torsions:
REMARK  status: ('A' for Active; 'I' for Inactive)
REMARK    1  A    between atoms: N_1  and  C_4
REMARK    2  A    between atoms: C_4  and  C_5
REMARK                            x       y       z     vdW  Elec       q    Type
REMARK                         _______ _______ _______ _____ _____    ______ ____
ROOT
ATOM      1  N   UNL     1      -8.187  -2.586 -10.316  0.00  0.00    -0.354 N 
ATOM      2  N   UNL     1     -10.339  -1.821 -10.702  0.00  0.00    -0.372 N 
ATOM      3  N   UNL     1      -9.979  -3.304  -8.988  0.00  0.00    -0.372 N 
ATOM      4  C   UNL     1      -9.488  -2.577  -9.997  0.00  0.00    +0.166 C 
ATOM      5  H   UNL     1      -7.883  -2.037 -11.112  0.00  0.00    +0.163 HD
ATOM      6  H   UNL     1     -11.326  -1.792 -10.482  0.00  0.00    +0.159 HD
ATOM      7  H   UNL     1     -10.025  -1.238 -11.467  0.00  0.00    +0.159 HD
ATOM      8  H   UNL     1      -9.391  -3.900  -8.421  0.00  0.00    +0.159 HD
ATOM      9  H   UNL     1     -10.966  -3.297  -8.760  0.00  0.00    +0.159 HD
ENDROOT
BRANCH   1  10
ATOM     10  C   UNL     1      -7.170  -3.333  -9.579  0.00  0.00    +0.151 C 
BRANCH  10  11
ATOM     11  C   UNL     1      -5.891  -2.541  -9.567  0.00  0.00    -0.028 A 
ATOM     12  C   UNL     1      -4.672  -3.151  -9.894  0.00  0.00    +0.005 A 
ATOM     13  C   UNL     1      -5.894  -1.177  -9.234  0.00  0.00    +0.005 A 
ATOM     14  C   UNL     1      -3.489  -2.409  -9.912  0.00  0.00    +0.000 A 
ATOM     15  C   UNL     1      -4.711  -0.440  -9.252  0.00  0.00    +0.000 A 
ATOM     16  C   UNL     1      -3.509  -1.055  -9.593  0.00  0.00    +0.000 A 
ENDBRANCH  10  11
ENDBRANCH   1  10
TORSDOF 2
ENDMDL
MODEL 2
REMARK VINA RESULT:    -5.739      1.440      2.304
REMARK INTER + INTRA:          -6.536
REMARK INTER:                  -6.414
REMARK INTRA:                  -0.122
REMARK UNBOUND:                -0.126
REMARK  Name = 1550473
REMARK  2 active torsions:
REMARK  status: ('A' for Active; 'I' for Inactive)
REMARK    1  A    between atoms: N_1  and  C_4
REMARK    2  A    between atoms: C_4  and  C_5
REMARK                            x       y       z     vdW  Elec       q    Type
REMARK                         _______ _______ _______ _____ _____    ______ ____
ROOT
ATOM      1  N   UNL     1      -7.460  -4.127 -10.078  0.00  0.00    -0.354 N 
ATOM      2  N   UNL     1      -8.471  -6.210 -10.119  0.00  0.00    -0.372 N 
ATOM      3  N   UNL     1      -9.780  -4.347  -9.836  0.00  0.00    -0.372 N 
ATOM      4  C   UNL     1      -8.566  -4.879 -10.010  0.00  0.00    +0.166 C 
ATOM      5  H   UNL     1      -6.566  -4.593 -10.181  0.00  0.00    +0.163 HD
ATOM      6  H   UNL     1      -9.288  -6.803 -10.075  0.00  0.00    +0.159 HD
ATOM      7  H   UNL     1      -7.581  -6.670 -10.268  0.00  0.00    +0.159 HD
ATOM      8  H   UNL     1      -9.919  -3.350  -9.741  0.00  0.00    +0.159 HD
ATOM      9  H   UNL     1     -10.609  -4.925  -9.778  0.00  0.00    +0.159 HD
ENDROOT
BRANCH   1  10
ATOM     10  C   UNL     1      -7.460  -2.666 -10.024  0.00  0.00    +0.151 C 
BRANCH  10  11
ATOM     11  C   UNL     1      -6.055  -2.183  -9.791  0.00  0.00    -0.028 A 
ATOM     12  C   UNL     1      -5.814  -0.858  -9.399  0.00  0.00    +0.005 A 
ATOM     13  C   UNL     1      -4.961  -3.046  -9.955  0.00  0.00    +0.005 A 
ATOM     14  C   UNL     1      -4.512  -0.416  -9.153  0.00  0.00    +0.000 A 
ATOM     15  C   UNL     1      -3.662  -2.602  -9.709  0.00  0.00    +0.000 A 
ATOM     16  C   UNL     1      -3.438  -1.288  -9.306  0.00  0.00    +0.000 A 
ENDBRANCH  10  11
ENDBRANCH   1  10
TORSDOF 2
ENDMDL
MODEL 3
REMARK VINA RESULT:    -5.433     13.379     14.567
REMARK INTER + INTRA:          -6.194
REMARK INTER:                  -6.028
REMARK INTRA:                  -0.166
REMARK UNBOUND:                -0.126
REMARK  Name = 1550473
REMARK  2 active torsions:
REMARK  status: ('A' for Active; 'I' for Inactive)
REMARK    1  A    between atoms: N_1  and  C_4
REMARK    2  A    between atoms: C_4  and  C_5
REMARK                            x       y       z     vdW  Elec       q    Type
REMARK                         _______ _______ _______ _____ _____    ______ ____
ROOT
ATOM      1  N   UNL     1      -0.943   8.230  -3.302  0.00  0.00    -0.354 N 
ATOM      2  N   UNL     1       0.160   8.264  -1.266  0.00  0.00    -0.372 N 
ATOM      3  N   UNL     1       0.451  10.020  -2.715  0.00  0.00    -0.372 N 
ATOM      4  C   UNL     1      -0.117   8.840  -2.442  0.00  0.00    +0.166 C 
ATOM      5  H   UNL     1      -1.318   7.323  -3.048  0.00  0.00    +0.163 HD
ATOM      6  H   UNL     1       0.777   8.703  -0.595  0.00  0.00    +0.159 HD
ATOM      7  H   UNL     1      -0.252   7.380  -0.996  0.00  0.00    +0.159 HD
ATOM      8  H   UNL     1       0.288  10.504  -3.587  0.00  0.00    +0.159 HD
ATOM      9  H   UNL     1       1.081  10.468  -2.061  0.00  0.00    +0.159 HD
ENDROOT
BRANCH   1  10
ATOM     10  C   UNL     1      -1.352   8.798  -4.586  0.00  0.00    +0.151 C 
BRANCH  10  11
ATOM     11  C   UNL     1      -2.750   9.338  -4.462  0.00  0.00    -0.028 A 
ATOM     12  C   UNL     1      -3.722   8.636  -3.734  0.00  0.00    +0.005 A 
ATOM     13  C   UNL     1      -3.107  10.553  -5.065  0.00  0.00    +0.005 A 
ATOM     14  C   UNL     1      -5.013   9.152  -3.593  0.00  0.00    +0.000 A 
ATOM     15  C   UNL     1      -4.397  11.065  -4.923  0.00  0.00    +0.000 A 
ATOM     16  C   UNL     1      -5.348  10.365  -4.185  0.00  0.00    +0.000 A 
ENDBRANCH  10  11
ENDBRANCH   1  10
TORSDOF 2
ENDMDL
MODEL 4
REMARK VINA RESULT:    -5.381     11.838     13.428
REMARK INTER + INTRA:          -6.137
REMARK INTER:                  -5.988
REMARK INTRA:                  -0.149
REMARK UNBOUND:                -0.126
REMARK  Name = 1550473
REMARK  2 active torsions:
REMARK  status: ('A' for Active; 'I' for Inactive)
REMARK    1  A    between atoms: N_1  and  C_4
REMARK    2  A    between atoms: C_4  and  C_5
REMARK                            x       y       z     vdW  Elec       q    Type
REMARK                         _______ _______ _______ _____ _____    ______ ____
ROOT
ATOM      1  N   UNL     1      -0.270   8.196  -3.618  0.00  0.00    -0.354 N 
ATOM      2  N   UNL     1       0.463   8.638  -1.466  0.00  0.00    -0.372 N 
ATOM      3  N   UNL     1      -0.351  10.366  -2.737  0.00  0.00    -0.372 N 
ATOM      4  C   UNL     1      -0.058   9.067  -2.622  0.00  0.00    +0.166 C 
ATOM      5  H   UNL     1       0.002   7.230  -3.479  0.00  0.00    +0.163 HD
ATOM      6  H   UNL     1       0.631   9.271  -0.695  0.00  0.00    +0.159 HD
ATOM      7  H   UNL     1       0.691   7.663  -1.313  0.00  0.00    +0.159 HD
ATOM      8  H   UNL     1      -0.741  10.754  -3.585  0.00  0.00    +0.159 HD
ATOM      9  H   UNL     1      -0.180  11.017  -1.981  0.00  0.00    +0.159 HD
ENDROOT
BRANCH   1  10
ATOM     10  C   UNL     1      -0.882   8.551  -4.897  0.00  0.00    +0.151 C 
BRANCH  10  11
ATOM     11  C   UNL     1      -2.232   7.895  -4.994  0.00  0.00    -0.028 A 
ATOM     12  C   UNL     1      -2.466   6.884  -5.938  0.00  0.00    +0.005 A 
ATOM     13  C   UNL     1      -3.279   8.275  -4.141  0.00  0.00    +0.005 A 
ATOM     14  C   UNL     1      -3.710   6.253  -6.009  0.00  0.00    +0.000 A 
ATOM     15  C   UNL     1      -4.521   7.643  -4.215  0.00  0.00    +0.000 A 
ATOM     16  C   UNL     1      -4.735   6.631  -5.147  0.00  0.00    +0.000 A 
ENDBRANCH  10  11
ENDBRANCH   1  10
TORSDOF 2
ENDMDL
MODEL 5
REMARK VINA RESULT:    -5.373     11.558     13.167
REMARK INTER + INTRA:          -6.128
REMARK INTER:                  -6.022
REMARK INTRA:                  -0.106
REMARK UNBOUND:                -0.126
REMARK  Name = 1550473
REMARK  2 active torsions:
REMARK  status: ('A' for Active; 'I' for Inactive)
REMARK    1  A    between atoms: N_1  and  C_4
REMARK    2  A    between atoms: C_4  and  C_5
REMARK                            x       y       z     vdW  Elec       q    Type
REMARK                         _______ _______ _______ _____ _____    ______ ____
ROOT
ATOM      1  N   UNL     1      -1.125   8.340  -3.213  0.00  0.00    -0.354 N 
ATOM      2  N   UNL     1       0.149   8.255  -1.281  0.00  0.00    -0.372 N 
ATOM      3  N   UNL     1       0.457  10.002  -2.737  0.00  0.00    -0.372 N 
ATOM      4  C   UNL     1      -0.180   8.869  -2.424  0.00  0.00    +0.166 C 
ATOM      5  H   UNL     1      -1.549   7.463  -2.935  0.00  0.00    +0.163 HD
ATOM      6  H   UNL     1       0.856   8.632  -0.664  0.00  0.00    +0.159 HD
ATOM      7  H   UNL     1      -0.309   7.403  -0.983  0.00  0.00    +0.159 HD
ATOM      8  H   UNL     1       0.259  10.510  -3.589  0.00  0.00    +0.159 HD
ATOM      9  H   UNL     1       1.176  10.389  -2.138  0.00  0.00    +0.159 HD
ENDROOT
BRANCH   1  10
ATOM     10  C   UNL     1      -1.595   8.957  -4.452  0.00  0.00    +0.151 C 
BRANCH  10  11
ATOM     11  C   UNL     1      -2.025   7.878  -5.406  0.00  0.00    -0.028 A 
ATOM     12  C   UNL     1      -2.976   6.922  -5.019  0.00  0.00    +0.005 A 
ATOM     13  C   UNL     1      -1.490   7.808  -6.702  0.00  0.00    +0.005 A 
ATOM     14  C   UNL     1      -3.398   5.937  -5.915  0.00  0.00    +0.000 A 
ATOM     15  C   UNL     1      -1.914   6.823  -7.594  0.00  0.00    +0.000 A 
ATOM     16  C   UNL     1      -2.869   5.889  -7.200  0.00  0.00    +0.000 A 
ENDBRANCH  10  11
ENDBRANCH   1  10
TORSDOF 2
ENDMDL
MODEL 6
REMARK VINA RESULT:    -5.371     12.748     14.212
REMARK INTER + INTRA:          -6.125
REMARK INTER:                  -5.986
REMARK INTRA:                  -0.139
REMARK UNBOUND:                -0.126
REMARK  Name = 1550473
REMARK  2 active torsions:
REMARK  status: ('A' for Active; 'I' for Inactive)
REMARK    1  A    between atoms: N_1  and  C_4
REMARK    2  A    between atoms: C_4  and  C_5
REMARK                            x       y       z     vdW  Elec       q    Type
REMARK                         _______ _______ _______ _____ _____    ______ ____
ROOT
ATOM      1  N   UNL     1      -0.968   8.252  -3.289  0.00  0.00    -0.354 N 
ATOM      2  N   UNL     1       0.180   8.258  -1.277  0.00  0.00    -0.372 N 
ATOM      3  N   UNL     1       0.503   9.993  -2.743  0.00  0.00    -0.372 N 
ATOM      4  C   UNL     1      -0.102   8.837  -2.451  0.00  0.00    +0.166 C 
ATOM      5  H   UNL     1      -1.369   7.360  -3.022  0.00  0.00    +0.163 HD
ATOM      6  H   UNL     1       0.827   8.677  -0.623  0.00  0.00    +0.159 HD
ATOM      7  H   UNL     1      -0.258   7.390  -0.993  0.00  0.00    +0.159 HD
ATOM      8  H   UNL     1       0.338  10.478  -3.615  0.00  0.00    +0.159 HD
ATOM      9  H   UNL     1       1.162  10.422  -2.107  0.00  0.00    +0.159 HD
ENDROOT
BRANCH   1  10
ATOM     10  C   UNL     1      -1.384   8.827  -4.567  0.00  0.00    +0.151 C 
BRANCH  10  11
ATOM     11  C   UNL     1      -2.878   8.994  -4.568  0.00  0.00    -0.028 A 
ATOM     12  C   UNL     1      -3.646   8.534  -5.648  0.00  0.00    +0.005 A 
ATOM     13  C   UNL     1      -3.534   9.606  -3.488  0.00  0.00    +0.005 A 
ATOM     14  C   UNL     1      -5.037   8.663  -5.636  0.00  0.00    +0.000 A 
ATOM     15  C   UNL     1      -4.922   9.733  -3.480  0.00  0.00    +0.000 A 
ATOM     16  C   UNL     1      -5.674   9.259  -4.553  0.00  0.00    +0.000 A 
ENDBRANCH  10  11
ENDBRANCH   1  10
TORSDOF 2
ENDMDL
MODEL 7
REMARK VINA RESULT:    -5.174     28.972     30.212
REMARK INTER + INTRA:          -5.904
REMARK INTER:                  -5.762
REMARK INTRA:                  -0.142
REMARK UNBOUND:                -0.126
REMARK  Name = 1550473
REMARK  2 active torsions:
REMARK  status: ('A' for Active; 'I' for Inactive)
REMARK    1  A    between atoms: N_1  and  C_4
REMARK    2  A    between atoms: C_4  and  C_5
REMARK                            x       y       z     vdW  Elec       q    Type
REMARK                         _______ _______ _______ _____ _____    ______ ____
ROOT
ATOM      1  N   UNL     1      13.710   1.030  12.963  0.00  0.00    -0.354 N 
ATOM      2  N   UNL     1      11.723   1.378  14.102  0.00  0.00    -0.372 N 
ATOM      3  N   UNL     1      13.143  -0.272  14.827  0.00  0.00    -0.372 N 
ATOM      4  C   UNL     1      12.873   0.707  13.958  0.00  0.00    +0.166 C 
ATOM      5  H   UNL     1      13.433   1.762  12.319  0.00  0.00    +0.163 HD
ATOM      6  H   UNL     1      11.074   1.159  14.845  0.00  0.00    +0.159 HD
ATOM      7  H   UNL     1      11.470   2.140  13.484  0.00  0.00    +0.159 HD
ATOM      8  H   UNL     1      13.992  -0.820  14.770  0.00  0.00    +0.159 HD
ATOM      9  H   UNL     1      12.500  -0.514  15.571  0.00  0.00    +0.159 HD
ENDROOT
BRANCH   1  10
ATOM     10  C   UNL     1      15.011   0.398  12.751  0.00  0.00    +0.151 C 
BRANCH  10  11
ATOM     11  C   UNL     1      15.045  -0.208  11.375  0.00  0.00    -0.028 A 
ATOM     12  C   UNL     1      13.993  -1.021  10.929  0.00  0.00    +0.005 A 
ATOM     13  C   UNL     1      16.124   0.033  10.510  0.00  0.00    +0.005 A 
ATOM     14  C   UNL     1      14.010  -1.559   9.640  0.00  0.00    +0.000 A 
ATOM     15  C   UNL     1      16.137  -0.507   9.224  0.00  0.00    +0.000 A 
ATOM     16  C   UNL     1      15.079  -1.301   8.789  0.00  0.00    +0.000 A 
ENDBRANCH  10  11
ENDBRANCH   1  10
TORSDOF 2
ENDMDL
MODEL 8
REMARK VINA RESULT:    -5.121     10.418     11.989
REMARK INTER + INTRA:          -5.846
REMARK INTER:                  -5.735
REMARK INTRA:                  -0.110
REMARK UNBOUND:                -0.126
REMARK  Name = 1550473
REMARK  2 active torsions:
REMARK  status: ('A' for Active; 'I' for Inactive)
REMARK    1  A    between atoms: N_1  and  C_4
REMARK    2  A    between atoms: C_4  and  C_5
REMARK                            x       y       z     vdW  Elec       q    Type
REMARK                         _______ _______ _______ _____ _____    ______ ____
ROOT
ATOM      1  N   UNL     1      -2.531   6.547  -6.639  0.00  0.00    -0.354 N 
ATOM      2  N   UNL     1      -3.572   4.710  -7.588  0.00  0.00    -0.372 N 
ATOM      3  N   UNL     1      -2.135   5.955  -8.871  0.00  0.00    -0.372 N 
ATOM      4  C   UNL     1      -2.738   5.750  -7.695  0.00  0.00    +0.166 C 
ATOM      5  H   UNL     1      -3.041   6.356  -5.784  0.00  0.00    +0.163 HD
ATOM      6  H   UNL     1      -3.746   4.089  -8.367  0.00  0.00    +0.159 HD
ATOM      7  H   UNL     1      -4.046   4.494  -6.719  0.00  0.00    +0.159 HD
ATOM      8  H   UNL     1      -1.498   6.727  -9.020  0.00  0.00    +0.159 HD
ATOM      9  H   UNL     1      -2.305   5.352  -9.666  0.00  0.00    +0.159 HD
ENDROOT
BRANCH   1  10
ATOM     10  C   UNL     1      -1.601   7.675  -6.635  0.00  0.00    +0.151 C 
BRANCH  10  11
ATOM     11  C   UNL     1      -1.360   8.109  -5.216  0.00  0.00    -0.028 A 
ATOM     12  C   UNL     1      -0.084   8.518  -4.803  0.00  0.00    +0.005 A 
ATOM     13  C   UNL     1      -2.406   8.120  -4.280  0.00  0.00    +0.005 A 
ATOM     14  C   UNL     1       0.134   8.949  -3.492  0.00  0.00    +0.000 A 
ATOM     15  C   UNL     1      -2.185   8.551  -2.972  0.00  0.00    +0.000 A 
ATOM     16  C   UNL     1      -0.915   8.968  -2.579  0.00  0.00    +0.000 A 
ENDBRANCH  10  11
ENDBRANCH   1  10
TORSDOF 2
ENDMDL
MODEL 9
REMARK VINA RESULT:    -5.065     10.347     11.814
REMARK INTER + INTRA:          -5.784
REMARK INTER:                  -5.646
REMARK INTRA:                  -0.137
REMARK UNBOUND:                -0.126
REMARK  Name = 1550473
REMARK  2 active torsions:
REMARK  status: ('A' for Active; 'I' for Inactive)
REMARK    1  A    between atoms: N_1  and  C_4
REMARK    2  A    between atoms: C_4  and  C_5
REMARK                            x       y       z     vdW  Elec       q    Type
REMARK                         _______ _______ _______ _____ _____    ______ ____
ROOT
ATOM      1  N   UNL     1      -3.532   6.165  -5.545  0.00  0.00    -0.354 N 
ATOM      2  N   UNL     1      -3.648   4.806  -7.418  0.00  0.00    -0.372 N 
ATOM      3  N   UNL     1      -4.750   6.819  -7.437  0.00  0.00    -0.372 N 
ATOM      4  C   UNL     1      -3.977   5.941  -6.789  0.00  0.00    +0.166 C 
ATOM      5  H   UNL     1      -2.975   5.446  -5.097  0.00  0.00    +0.163 HD
ATOM      6  H   UNL     1      -3.966   4.611  -8.357  0.00  0.00    +0.159 HD
ATOM      7  H   UNL     1      -3.053   4.110  -6.985  0.00  0.00    +0.159 HD
ATOM      8  H   UNL     1      -5.039   7.691  -7.016  0.00  0.00    +0.159 HD
ATOM      9  H   UNL     1      -5.088   6.637  -8.374  0.00  0.00    +0.159 HD
ENDROOT
BRANCH   1  10
ATOM     10  C   UNL     1      -3.789   7.391  -4.793  0.00  0.00    +0.151 C 
BRANCH  10  11
ATOM     11  C   UNL     1      -2.478   7.972  -4.338  0.00  0.00    -0.028 A 
ATOM     12  C   UNL     1      -2.343   8.495  -3.043  0.00  0.00    +0.005 A 
ATOM     13  C   UNL     1      -1.367   7.997  -5.194  0.00  0.00    +0.005 A 
ATOM     14  C   UNL     1      -1.118   9.008  -2.610  0.00  0.00    +0.000 A 
ATOM     15  C   UNL     1      -0.145   8.510  -4.757  0.00  0.00    +0.000 A 
ATOM     16  C   UNL     1      -0.020   9.013  -3.465  0.00  0.00    +0.000 A 
ENDBRANCH  10  11
ENDBRANCH   1  10
TORSDOF 2
ENDMDL
