MODEL 1
REMARK VINA RESULT:    -6.058      0.000      0.000
REMARK INTER + INTRA:          -6.892
REMARK INTER:                  -6.766
REMARK INTRA:                  -0.125
REMARK UNBOUND:                -0.125
REMARK  Name = 1550473
REMARK  2 active torsions:
REMARK  status: ('A' for Active; 'I' for Inactive)
REMARK    1  A    between atoms: N_1  and  C_4
REMARK    2  A    between atoms: C_4  and  C_5
REMARK                            x       y       z     vdW  Elec       q    Type
REMARK                         _______ _______ _______ _____ _____    ______ ____
ROOT
ATOM      1  N   UNL     1      -0.737  20.976 -12.836  0.00  0.00    -0.354 N 
ATOM      2  N   UNL     1       0.364  22.651 -11.677  0.00  0.00    -0.372 N 
ATOM      3  N   UNL     1      -1.758  23.050 -12.452  0.00  0.00    -0.372 N 
ATOM      4  C   UNL     1      -0.720  22.216 -12.330  0.00  0.00    +0.166 C 
ATOM      5  H   UNL     1       0.093  20.403 -12.736  0.00  0.00    +0.163 HD
ATOM      6  H   UNL     1       0.405  23.581 -11.282  0.00  0.00    +0.159 HD
ATOM      7  H   UNL     1       1.176  22.061 -11.539  0.00  0.00    +0.159 HD
ATOM      8  H   UNL     1      -2.604  22.784 -12.938  0.00  0.00    +0.159 HD
ATOM      9  H   UNL     1      -1.732  23.988 -12.073  0.00  0.00    +0.159 HD
ENDROOT
BRANCH   1  10
ATOM     10  C   UNL     1      -1.889  20.386 -13.517  0.00  0.00    +0.151 C 
BRANCH  10  11
ATOM     11  C   UNL     1      -1.745  18.889 -13.520  0.00  0.00    -0.028 A 
ATOM     12  C   UNL     1      -2.769  18.077 -14.027  0.00  0.00    +0.005 A 
ATOM     13  C   UNL     1      -0.584  18.278 -13.022  0.00  0.00    +0.005 A 
ATOM     14  C   UNL     1      -2.623  16.688 -14.057  0.00  0.00    +0.000 A 
ATOM     15  C   UNL     1      -0.443  16.891 -13.053  0.00  0.00    +0.000 A 
ATOM     16  C   UNL     1      -1.461  16.096 -13.573  0.00  0.00    +0.000 A 
ENDBRANCH  10  11
ENDBRANCH   1  10
TORSDOF 2
ENDMDL
MODEL 2
REMARK VINA RESULT:    -5.196     27.328     28.429
REMARK INTER + INTRA:          -5.929
REMARK INTER:                  -5.817
REMARK INTRA:                  -0.112
REMARK UNBOUND:                -0.125
REMARK  Name = 1550473
REMARK  2 active torsions:
REMARK  status: ('A' for Active; 'I' for Inactive)
REMARK    1  A    between atoms: N_1  and  C_4
REMARK    2  A    between atoms: C_4  and  C_5
REMARK                            x       y       z     vdW  Elec       q    Type
REMARK                         _______ _______ _______ _____ _____    ______ ____
ROOT
ATOM      1  N   UNL     1      16.296  14.331   9.728  0.00  0.00    -0.354 N 
ATOM      2  N   UNL     1      17.335  12.274   9.955  0.00  0.00    -0.372 N 
ATOM      3  N   UNL     1      17.285  13.696  11.755  0.00  0.00    -0.372 N 
ATOM      4  C   UNL     1      16.966  13.448  10.481  0.00  0.00    +0.166 C 
ATOM      5  H   UNL     1      16.112  14.096   8.759  0.00  0.00    +0.163 HD
ATOM      6  H   UNL     1      17.839  11.586  10.500  0.00  0.00    +0.159 HD
ATOM      7  H   UNL     1      17.109  12.022   9.001  0.00  0.00    +0.159 HD
ATOM      8  H   UNL     1      17.040  14.566  12.209  0.00  0.00    +0.159 HD
ATOM      9  H   UNL     1      17.798  13.025  12.313  0.00  0.00    +0.159 HD
ENDROOT
BRANCH   1  10
ATOM     10  C   UNL     1      15.802  15.616  10.219  0.00  0.00    +0.151 C 
BRANCH  10  11
ATOM     11  C   UNL     1      14.924  16.239   9.169  0.00  0.00    -0.028 A 
ATOM     12  C   UNL     1      13.988  15.462   8.471  0.00  0.00    +0.005 A 
ATOM     13  C   UNL     1      15.019  17.607   8.872  0.00  0.00    +0.005 A 
ATOM     14  C   UNL     1      13.152  16.046   7.516  0.00  0.00    +0.000 A 
ATOM     15  C   UNL     1      14.183  18.186   7.917  0.00  0.00    +0.000 A 
ATOM     16  C   UNL     1      13.248  17.406   7.242  0.00  0.00    +0.000 A 
ENDBRANCH  10  11
ENDBRANCH   1  10
TORSDOF 2
ENDMDL
MODEL 3
REMARK VINA RESULT:    -5.055      2.595      3.759
REMARK INTER + INTRA:          -5.771
REMARK INTER:                  -5.618
REMARK INTRA:                  -0.153
REMARK UNBOUND:                -0.125
REMARK  Name = 1550473
REMARK  2 active torsions:
REMARK  status: ('A' for Active; 'I' for Inactive)
REMARK    1  A    between atoms: N_1  and  C_4
REMARK    2  A    between atoms: C_4  and  C_5
REMARK                            x       y       z     vdW  Elec       q    Type
REMARK                         _______ _______ _______ _____ _____    ______ ____
ROOT
ATOM      1  N   UNL     1       1.803  21.008 -12.799  0.00  0.00    -0.354 N 
ATOM      2  N   UNL     1       3.922  20.160 -13.194  0.00  0.00    -0.372 N 
ATOM      3  N   UNL     1       3.075  21.740 -14.627  0.00  0.00    -0.372 N 
ATOM      4  C   UNL     1       2.920  20.977 -13.540  0.00  0.00    +0.166 C 
ATOM      5  H   UNL     1       1.735  20.383 -12.004  0.00  0.00    +0.163 HD
ATOM      6  H   UNL     1       4.778  20.117 -13.731  0.00  0.00    +0.159 HD
ATOM      7  H   UNL     1       3.870  19.570 -12.372  0.00  0.00    +0.159 HD
ATOM      8  H   UNL     1       2.354  22.373 -14.944  0.00  0.00    +0.159 HD
ATOM      9  H   UNL     1       3.920  21.702 -15.184  0.00  0.00    +0.159 HD
ENDROOT
BRANCH   1  10
ATOM     10  C   UNL     1       0.675  21.901 -13.059  0.00  0.00    +0.151 C 
BRANCH  10  11
ATOM     11  C   UNL     1      -0.498  21.085 -13.528  0.00  0.00    -0.028 A 
ATOM     12  C   UNL     1      -0.584  19.719 -13.221  0.00  0.00    +0.005 A 
ATOM     13  C   UNL     1      -1.530  21.674 -14.275  0.00  0.00    +0.005 A 
ATOM     14  C   UNL     1      -1.688  18.968 -13.631  0.00  0.00    +0.000 A 
ATOM     15  C   UNL     1      -2.631  20.920 -14.683  0.00  0.00    +0.000 A 
ATOM     16  C   UNL     1      -2.710  19.568 -14.359  0.00  0.00    +0.000 A 
ENDBRANCH  10  11
ENDBRANCH   1  10
TORSDOF 2
ENDMDL
MODEL 4
REMARK VINA RESULT:    -4.968     21.146     22.408
REMARK INTER + INTRA:          -5.674
REMARK INTER:                  -5.524
REMARK INTRA:                  -0.150
REMARK UNBOUND:                -0.125
REMARK  Name = 1550473
REMARK  2 active torsions:
REMARK  status: ('A' for Active; 'I' for Inactive)
REMARK    1  A    between atoms: N_1  and  C_4
REMARK    2  A    between atoms: C_4  and  C_5
REMARK                            x       y       z     vdW  Elec       q    Type
REMARK                         _______ _______ _______ _____ _____    ______ ____
ROOT
ATOM      1  N   UNL     1      -1.158   3.523   1.836  0.00  0.00    -0.354 N 
ATOM      2  N   UNL     1      -3.081   2.287   1.463  0.00  0.00    -0.372 N 
ATOM      3  N   UNL     1      -2.070   3.328  -0.314  0.00  0.00    -0.372 N 
ATOM      4  C   UNL     1      -2.090   3.055   0.995  0.00  0.00    +0.166 C 
ATOM      5  H   UNL     1      -1.246   3.305   2.822  0.00  0.00    +0.163 HD
ATOM      6  H   UNL     1      -3.797   1.917   0.852  0.00  0.00    +0.159 HD
ATOM      7  H   UNL     1      -3.141   2.033   2.441  0.00  0.00    +0.159 HD
ATOM      8  H   UNL     1      -1.352   3.907  -0.730  0.00  0.00    +0.159 HD
ATOM      9  H   UNL     1      -2.784   2.977  -0.940  0.00  0.00    +0.159 HD
ENDROOT
BRANCH   1  10
ATOM     10  C   UNL     1      -0.008   4.323   1.419  0.00  0.00    +0.151 C 
BRANCH  10  11
ATOM     11  C   UNL     1       1.250   3.528   1.642  0.00  0.00    -0.028 A 
ATOM     12  C   UNL     1       1.544   3.002   2.908  0.00  0.00    +0.005 A 
ATOM     13  C   UNL     1       2.148   3.294   0.589  0.00  0.00    +0.005 A 
ATOM     14  C   UNL     1       2.697   2.239   3.109  0.00  0.00    +0.000 A 
ATOM     15  C   UNL     1       3.298   2.532   0.794  0.00  0.00    +0.000 A 
ATOM     16  C   UNL     1       3.571   2.003   2.053  0.00  0.00    +0.000 A 
ENDBRANCH  10  11
ENDBRANCH   1  10
TORSDOF 2
ENDMDL
MODEL 5
REMARK VINA RESULT:    -4.865      9.565     10.836
REMARK INTER + INTRA:          -5.559
REMARK INTER:                  -5.399
REMARK INTRA:                  -0.161
REMARK UNBOUND:                -0.125
REMARK  Name = 1550473
REMARK  2 active torsions:
REMARK  status: ('A' for Active; 'I' for Inactive)
REMARK    1  A    between atoms: N_1  and  C_4
REMARK    2  A    between atoms: C_4  and  C_5
REMARK                            x       y       z     vdW  Elec       q    Type
REMARK                         _______ _______ _______ _____ _____    ______ ____
ROOT
ATOM      1  N   UNL     1       1.226  10.903 -16.741  0.00  0.00    -0.354 N 
ATOM      2  N   UNL     1      -1.068  10.628 -16.581  0.00  0.00    -0.372 N 
ATOM      3  N   UNL     1       0.068   9.523 -18.240  0.00  0.00    -0.372 N 
ATOM      4  C   UNL     1       0.091  10.352 -17.191  0.00  0.00    +0.166 C 
ATOM      5  H   UNL     1       1.172  11.547 -15.960  0.00  0.00    +0.163 HD
ATOM      6  H   UNL     1      -1.940  10.223 -16.895  0.00  0.00    +0.159 HD
ATOM      7  H   UNL     1      -1.112  11.235 -15.772  0.00  0.00    +0.159 HD
ATOM      8  H   UNL     1       0.908   9.279 -18.748  0.00  0.00    +0.159 HD
ATOM      9  H   UNL     1      -0.796   9.118 -18.577  0.00  0.00    +0.159 HD
ENDROOT
BRANCH   1  10
ATOM     10  C   UNL     1       2.548  10.626 -17.301  0.00  0.00    +0.151 C 
BRANCH  10  11
ATOM     11  C   UNL     1       2.973  11.787 -18.157  0.00  0.00    -0.028 A 
ATOM     12  C   UNL     1       3.792  11.584 -19.277  0.00  0.00    +0.005 A 
ATOM     13  C   UNL     1       2.554  13.093 -17.856  0.00  0.00    +0.005 A 
ATOM     14  C   UNL     1       4.162  12.659 -20.090  0.00  0.00    +0.000 A 
ATOM     15  C   UNL     1       2.927  14.163 -18.669  0.00  0.00    +0.000 A 
ATOM     16  C   UNL     1       3.728  13.945 -19.787  0.00  0.00    +0.000 A 
ENDBRANCH  10  11
ENDBRANCH   1  10
TORSDOF 2
ENDMDL
MODEL 6
REMARK VINA RESULT:    -4.812      4.081      5.599
REMARK INTER + INTRA:          -5.500
REMARK INTER:                  -5.328
REMARK INTRA:                  -0.172
REMARK UNBOUND:                -0.125
REMARK  Name = 1550473
REMARK  2 active torsions:
REMARK  status: ('A' for Active; 'I' for Inactive)
REMARK    1  A    between atoms: N_1  and  C_4
REMARK    2  A    between atoms: C_4  and  C_5
REMARK                            x       y       z     vdW  Elec       q    Type
REMARK                         _______ _______ _______ _____ _____    ______ ____
ROOT
ATOM      1  N   UNL     1      -3.882  19.097 -13.994  0.00  0.00    -0.354 N 
ATOM      2  N   UNL     1      -1.636  18.719 -13.575  0.00  0.00    -0.372 N 
ATOM      3  N   UNL     1      -3.063  16.925 -13.675  0.00  0.00    -0.372 N 
ATOM      4  C   UNL     1      -2.876  18.247 -13.751  0.00  0.00    +0.166 C 
ATOM      5  H   UNL     1      -3.680  20.090 -14.009  0.00  0.00    +0.163 HD
ATOM      6  H   UNL     1      -0.856  18.102 -13.394  0.00  0.00    +0.159 HD
ATOM      7  H   UNL     1      -1.429  19.709 -13.636  0.00  0.00    +0.159 HD
ATOM      8  H   UNL     1      -3.976  16.506 -13.792  0.00  0.00    +0.159 HD
ATOM      9  H   UNL     1      -2.297  16.292 -13.483  0.00  0.00    +0.159 HD
ENDROOT
BRANCH   1  10
ATOM     10  C   UNL     1      -5.260  18.681 -14.253  0.00  0.00    +0.151 C 
BRANCH  10  11
ATOM     11  C   UNL     1      -5.585  18.932 -15.699  0.00  0.00    -0.028 A 
ATOM     12  C   UNL     1      -5.290  17.967 -16.673  0.00  0.00    +0.005 A 
ATOM     13  C   UNL     1      -6.194  20.131 -16.102  0.00  0.00    +0.005 A 
ATOM     14  C   UNL     1      -5.620  18.187 -18.013  0.00  0.00    +0.000 A 
ATOM     15  C   UNL     1      -6.520  20.347 -17.440  0.00  0.00    +0.000 A 
ATOM     16  C   UNL     1      -6.235  19.374 -18.395  0.00  0.00    +0.000 A 
ENDBRANCH  10  11
ENDBRANCH   1  10
TORSDOF 2
ENDMDL
MODEL 7
REMARK VINA RESULT:    -4.735     11.316     12.708
REMARK INTER + INTRA:          -5.414
REMARK INTER:                  -5.273
REMARK INTRA:                  -0.141
REMARK UNBOUND:                -0.125
REMARK  Name = 1550473
REMARK  2 active torsions:
REMARK  status: ('A' for Active; 'I' for Inactive)
REMARK    1  A    between atoms: N_1  and  C_4
REMARK    2  A    between atoms: C_4  and  C_5
REMARK                            x       y       z     vdW  Elec       q    Type
REMARK                         _______ _______ _______ _____ _____    ______ ____
ROOT
ATOM      1  N   UNL     1     -10.646  14.207 -12.386  0.00  0.00    -0.354 N 
ATOM      2  N   UNL     1     -10.213  16.454 -12.030  0.00  0.00    -0.372 N 
ATOM      3  N   UNL     1     -10.645  15.108 -10.223  0.00  0.00    -0.372 N 
ATOM      4  C   UNL     1     -10.505  15.241 -11.546  0.00  0.00    +0.166 C 
ATOM      5  H   UNL     1     -10.557  14.380 -13.381  0.00  0.00    +0.163 HD
ATOM      6  H   UNL     1     -10.097  17.253 -11.420  0.00  0.00    +0.159 HD
ATOM      7  H   UNL     1     -10.079  16.615 -13.021  0.00  0.00    +0.159 HD
ATOM      8  H   UNL     1     -10.871  14.220  -9.795  0.00  0.00    +0.159 HD
ATOM      9  H   UNL     1     -10.544  15.897  -9.597  0.00  0.00    +0.159 HD
ENDROOT
BRANCH   1  10
ATOM     10  C   UNL     1     -10.911  12.835 -11.957  0.00  0.00    +0.151 C 
BRANCH  10  11
ATOM     11  C   UNL     1     -12.225  12.386 -12.532  0.00  0.00    -0.028 A 
ATOM     12  C   UNL     1     -13.281  12.011 -11.688  0.00  0.00    +0.005 A 
ATOM     13  C   UNL     1     -12.424  12.337 -13.921  0.00  0.00    +0.005 A 
ATOM     14  C   UNL     1     -14.512  11.622 -12.222  0.00  0.00    +0.000 A 
ATOM     15  C   UNL     1     -13.654  11.947 -14.449  0.00  0.00    +0.000 A 
ATOM     16  C   UNL     1     -14.699  11.592 -13.600  0.00  0.00    +0.000 A 
ENDBRANCH  10  11
ENDBRANCH   1  10
TORSDOF 2
ENDMDL
MODEL 8
REMARK VINA RESULT:    -4.702     21.017     22.086
REMARK INTER + INTRA:          -5.377
REMARK INTER:                  -5.284
REMARK INTRA:                  -0.093
REMARK UNBOUND:                -0.125
REMARK  Name = 1550473
REMARK  2 active torsions:
REMARK  status: ('A' for Active; 'I' for Inactive)
REMARK    1  A    between atoms: N_1  and  C_4
REMARK    2  A    between atoms: C_4  and  C_5
REMARK                            x       y       z     vdW  Elec       q    Type
REMARK                         _______ _______ _______ _____ _____    ______ ____
ROOT
ATOM      1  N   UNL     1      -1.069   1.961   0.363  0.00  0.00    -0.354 N 
ATOM      2  N   UNL     1      -2.810   0.437   0.459  0.00  0.00    -0.372 N 
ATOM      3  N   UNL     1      -3.068   2.482   1.469  0.00  0.00    -0.372 N 
ATOM      4  C   UNL     1      -2.305   1.639   0.765  0.00  0.00    +0.166 C 
ATOM      5  H   UNL     1      -0.530   1.267  -0.142  0.00  0.00    +0.163 HD
ATOM      6  H   UNL     1      -3.741   0.167   0.745  0.00  0.00    +0.159 HD
ATOM      7  H   UNL     1      -2.287  -0.238  -0.085  0.00  0.00    +0.159 HD
ATOM      8  H   UNL     1      -2.744   3.401   1.737  0.00  0.00    +0.159 HD
ATOM      9  H   UNL     1      -3.999   2.225   1.775  0.00  0.00    +0.159 HD
ENDROOT
BRANCH   1  10
ATOM     10  C   UNL     1      -0.446   3.263   0.597  0.00  0.00    +0.151 C 
BRANCH  10  11
ATOM     11  C   UNL     1       1.028   3.159   0.322  0.00  0.00    -0.028 A 
ATOM     12  C   UNL     1       1.543   3.500  -0.937  0.00  0.00    +0.005 A 
ATOM     13  C   UNL     1       1.917   2.726   1.318  0.00  0.00    +0.005 A 
ATOM     14  C   UNL     1       2.917   3.432  -1.185  0.00  0.00    +0.000 A 
ATOM     15  C   UNL     1       3.287   2.659   1.067  0.00  0.00    +0.000 A 
ATOM     16  C   UNL     1       3.787   3.015  -0.183  0.00  0.00    +0.000 A 
ENDBRANCH  10  11
ENDBRANCH   1  10
TORSDOF 2
ENDMDL
MODEL 9
REMARK VINA RESULT:    -4.580     10.165     11.986
REMARK INTER + INTRA:          -5.240
REMARK INTER:                  -5.083
REMARK INTRA:                  -0.157
REMARK UNBOUND:                -0.125
REMARK  Name = 1550473
REMARK  2 active torsions:
REMARK  status: ('A' for Active; 'I' for Inactive)
REMARK    1  A    between atoms: N_1  and  C_4
REMARK    2  A    between atoms: C_4  and  C_5
REMARK                            x       y       z     vdW  Elec       q    Type
REMARK                         _______ _______ _______ _____ _____    ______ ____
ROOT
ATOM      1  N   UNL     1       1.372  10.757 -16.793  0.00  0.00    -0.354 N 
ATOM      2  N   UNL     1      -0.915  10.485 -16.549  0.00  0.00    -0.372 N 
ATOM      3  N   UNL     1      -0.065  10.908 -18.638  0.00  0.00    -0.372 N 
ATOM      4  C   UNL     1       0.146  10.719 -17.331  0.00  0.00    +0.166 C 
ATOM      5  H   UNL     1       1.462  10.636 -15.791  0.00  0.00    +0.163 HD
ATOM      6  H   UNL     1      -1.852  10.448 -16.927  0.00  0.00    +0.159 HD
ATOM      7  H   UNL     1      -0.818  10.319 -15.555  0.00  0.00    +0.159 HD
ATOM      8  H   UNL     1       0.693  11.094 -19.281  0.00  0.00    +0.159 HD
ATOM      9  H   UNL     1      -0.997  10.886 -19.034  0.00  0.00    +0.159 HD
ENDROOT
BRANCH   1  10
ATOM     10  C   UNL     1       2.598  10.950 -17.565  0.00  0.00    +0.151 C 
BRANCH  10  11
ATOM     11  C   UNL     1       3.345   9.647 -17.636  0.00  0.00    -0.028 A 
ATOM     12  C   UNL     1       4.488   9.438 -16.850  0.00  0.00    +0.005 A 
ATOM     13  C   UNL     1       2.913   8.615 -18.483  0.00  0.00    +0.005 A 
ATOM     14  C   UNL     1       5.165   8.217 -16.892  0.00  0.00    +0.000 A 
ATOM     15  C   UNL     1       3.592   7.398 -18.523  0.00  0.00    +0.000 A 
ATOM     16  C   UNL     1       4.716   7.198 -17.726  0.00  0.00    +0.000 A 
ENDBRANCH  10  11
ENDBRANCH   1  10
TORSDOF 2
ENDMDL
