MODEL 1
REMARK VINA RESULT:    -5.667      0.000      0.000
REMARK INTER + INTRA:          -6.388
REMARK INTER:                  -6.329
REMARK INTRA:                  -0.059
REMARK UNBOUND:                -0.059
REMARK  Name = 1550473
REMARK  2 active torsions:
REMARK  status: ('A' for Active; 'I' for Inactive)
REMARK    1  A    between atoms: N_1  and  C_4
REMARK    2  A    between atoms: C_4  and  C_5
REMARK                            x       y       z     vdW  Elec       q    Type
REMARK                         _______ _______ _______ _____ _____    ______ ____
ROOT
ATOM      1  N   UNL     1       4.053   1.595 -16.251  0.00  0.00    -0.354 N 
ATOM      2  N   UNL     1       4.742   3.349 -14.905  0.00  0.00    -0.372 N 
ATOM      3  N   UNL     1       5.812   2.998 -16.904  0.00  0.00    -0.372 N 
ATOM      4  C   UNL     1       4.867   2.636 -16.031  0.00  0.00    +0.166 C 
ATOM      5  H   UNL     1       3.377   1.353 -15.536  0.00  0.00    +0.163 HD
ATOM      6  H   UNL     1       5.339   4.142 -14.713  0.00  0.00    +0.159 HD
ATOM      7  H   UNL     1       4.035   3.133 -14.213  0.00  0.00    +0.159 HD
ATOM      8  H   UNL     1       5.962   2.498 -17.770  0.00  0.00    +0.159 HD
ATOM      9  H   UNL     1       6.428   3.782 -16.725  0.00  0.00    +0.159 HD
ENDROOT
BRANCH   1  10
ATOM     10  C   UNL     1       4.071   0.786 -17.469  0.00  0.00    +0.151 C 
BRANCH  10  11
ATOM     11  C   UNL     1       2.975   1.255 -18.385  0.00  0.00    -0.028 A 
ATOM     12  C   UNL     1       2.846   0.718 -19.674  0.00  0.00    +0.005 A 
ATOM     13  C   UNL     1       2.058   2.233 -17.969  0.00  0.00    +0.005 A 
ATOM     14  C   UNL     1       1.810   1.132 -20.515  0.00  0.00    +0.000 A 
ATOM     15  C   UNL     1       1.026   2.644 -18.812  0.00  0.00    +0.000 A 
ATOM     16  C   UNL     1       0.900   2.091 -20.084  0.00  0.00    +0.000 A 
ENDBRANCH  10  11
ENDBRANCH   1  10
TORSDOF 2
ENDMDL
MODEL 2
REMARK VINA RESULT:    -5.522      1.436      2.384
REMARK INTER + INTRA:          -6.227
REMARK INTER:                  -6.082
REMARK INTRA:                  -0.145
REMARK UNBOUND:                -0.059
REMARK  Name = 1550473
REMARK  2 active torsions:
REMARK  status: ('A' for Active; 'I' for Inactive)
REMARK    1  A    between atoms: N_1  and  C_4
REMARK    2  A    between atoms: C_4  and  C_5
REMARK                            x       y       z     vdW  Elec       q    Type
REMARK                         _______ _______ _______ _____ _____    ______ ____
ROOT
ATOM      1  N   UNL     1       3.775   1.615 -16.652  0.00  0.00    -0.354 N 
ATOM      2  N   UNL     1       4.421   3.722 -15.942  0.00  0.00    -0.372 N 
ATOM      3  N   UNL     1       5.939   2.004 -15.840  0.00  0.00    -0.372 N 
ATOM      4  C   UNL     1       4.710   2.432 -16.148  0.00  0.00    +0.166 C 
ATOM      5  H   UNL     1       2.853   1.994 -16.836  0.00  0.00    +0.163 HD
ATOM      6  H   UNL     1       5.107   4.364 -15.566  0.00  0.00    +0.159 HD
ATOM      7  H   UNL     1       3.513   4.109 -16.170  0.00  0.00    +0.159 HD
ATOM      8  H   UNL     1       6.218   1.041 -15.967  0.00  0.00    +0.159 HD
ATOM      9  H   UNL     1       6.635   2.628 -15.452  0.00  0.00    +0.159 HD
ENDROOT
BRANCH   1  10
ATOM     10  C   UNL     1       4.004   0.205 -16.965  0.00  0.00    +0.151 C 
BRANCH  10  11
ATOM     11  C   UNL     1       3.628  -0.047 -18.399  0.00  0.00    -0.028 A 
ATOM     12  C   UNL     1       3.036   0.965 -19.168  0.00  0.00    +0.005 A 
ATOM     13  C   UNL     1       3.868  -1.294 -18.996  0.00  0.00    +0.005 A 
ATOM     14  C   UNL     1       2.714   0.741 -20.509  0.00  0.00    +0.000 A 
ATOM     15  C   UNL     1       3.545  -1.514 -20.335  0.00  0.00    +0.000 A 
ATOM     16  C   UNL     1       2.971  -0.495 -21.092  0.00  0.00    +0.000 A 
ENDBRANCH  10  11
ENDBRANCH   1  10
TORSDOF 2
ENDMDL
MODEL 3
REMARK VINA RESULT:    -5.509      1.361      2.503
REMARK INTER + INTRA:          -6.212
REMARK INTER:                  -6.054
REMARK INTRA:                  -0.158
REMARK UNBOUND:                -0.059
REMARK  Name = 1550473
REMARK  2 active torsions:
REMARK  status: ('A' for Active; 'I' for Inactive)
REMARK    1  A    between atoms: N_1  and  C_4
REMARK    2  A    between atoms: C_4  and  C_5
REMARK                            x       y       z     vdW  Elec       q    Type
REMARK                         _______ _______ _______ _____ _____    ______ ____
ROOT
ATOM      1  N   UNL     1       5.614   3.047 -17.041  0.00  0.00    -0.354 N 
ATOM      2  N   UNL     1       7.789   2.752 -17.779  0.00  0.00    -0.372 N 
ATOM      3  N   UNL     1       6.851   1.155 -16.424  0.00  0.00    -0.372 N 
ATOM      4  C   UNL     1       6.737   2.318 -17.075  0.00  0.00    +0.166 C 
ATOM      5  H   UNL     1       5.601   3.935 -17.531  0.00  0.00    +0.163 HD
ATOM      6  H   UNL     1       8.648   2.221 -17.827  0.00  0.00    +0.159 HD
ATOM      7  H   UNL     1       7.758   3.617 -18.306  0.00  0.00    +0.159 HD
ATOM      8  H   UNL     1       6.096   0.775 -15.870  0.00  0.00    +0.159 HD
ATOM      9  H   UNL     1       7.707   0.616 -16.450  0.00  0.00    +0.159 HD
ENDROOT
BRANCH   1  10
ATOM     10  C   UNL     1       4.394   2.638 -16.347  0.00  0.00    +0.151 C 
BRANCH  10  11
ATOM     11  C   UNL     1       3.285   2.485 -17.352  0.00  0.00    -0.028 A 
ATOM     12  C   UNL     1       2.256   3.435 -17.426  0.00  0.00    +0.005 A 
ATOM     13  C   UNL     1       3.262   1.396 -18.237  0.00  0.00    +0.005 A 
ATOM     14  C   UNL     1       1.242   3.309 -18.380  0.00  0.00    +0.000 A 
ATOM     15  C   UNL     1       2.248   1.274 -19.187  0.00  0.00    +0.000 A 
ATOM     16  C   UNL     1       1.240   2.232 -19.259  0.00  0.00    +0.000 A 
ENDBRANCH  10  11
ENDBRANCH   1  10
TORSDOF 2
ENDMDL
MODEL 4
REMARK VINA RESULT:    -5.489      2.057      2.878
REMARK INTER + INTRA:          -6.190
REMARK INTER:                  -6.018
REMARK INTRA:                  -0.172
REMARK UNBOUND:                -0.059
REMARK  Name = 1550473
REMARK  2 active torsions:
REMARK  status: ('A' for Active; 'I' for Inactive)
REMARK    1  A    between atoms: N_1  and  C_4
REMARK    2  A    between atoms: C_4  and  C_5
REMARK                            x       y       z     vdW  Elec       q    Type
REMARK                         _______ _______ _______ _____ _____    ______ ____
ROOT
ATOM      1  N   UNL     1       4.001  -0.314 -16.693  0.00  0.00    -0.354 N 
ATOM      2  N   UNL     1       3.793  -2.585 -16.288  0.00  0.00    -0.372 N 
ATOM      3  N   UNL     1       4.797  -1.893 -18.231  0.00  0.00    -0.372 N 
ATOM      4  C   UNL     1       4.200  -1.583 -17.076  0.00  0.00    +0.166 C 
ATOM      5  H   UNL     1       3.515  -0.146 -15.820  0.00  0.00    +0.163 HD
ATOM      6  H   UNL     1       3.932  -3.552 -16.549  0.00  0.00    +0.159 HD
ATOM      7  H   UNL     1       3.348  -2.414 -15.394  0.00  0.00    +0.159 HD
ATOM      8  H   UNL     1       5.122  -1.183 -18.874  0.00  0.00    +0.159 HD
ATOM      9  H   UNL     1       4.935  -2.855 -18.515  0.00  0.00    +0.159 HD
ENDROOT
BRANCH   1  10
ATOM     10  C   UNL     1       4.454   0.850 -17.453  0.00  0.00    +0.151 C 
BRANCH  10  11
ATOM     11  C   UNL     1       3.271   1.483 -18.132  0.00  0.00    -0.028 A 
ATOM     12  C   UNL     1       2.833   1.016 -19.380  0.00  0.00    +0.005 A 
ATOM     13  C   UNL     1       2.581   2.547 -17.531  0.00  0.00    +0.005 A 
ATOM     14  C   UNL     1       1.716   1.585 -19.998  0.00  0.00    +0.000 A 
ATOM     15  C   UNL     1       1.467   3.112 -18.151  0.00  0.00    +0.000 A 
ATOM     16  C   UNL     1       1.034   2.629 -19.384  0.00  0.00    +0.000 A 
ENDBRANCH  10  11
ENDBRANCH   1  10
TORSDOF 2
ENDMDL
MODEL 5
REMARK VINA RESULT:    -5.364      2.409      4.292
REMARK INTER + INTRA:          -6.051
REMARK INTER:                  -5.977
REMARK INTRA:                  -0.074
REMARK UNBOUND:                -0.059
REMARK  Name = 1550473
REMARK  2 active torsions:
REMARK  status: ('A' for Active; 'I' for Inactive)
REMARK    1  A    between atoms: N_1  and  C_4
REMARK    2  A    between atoms: C_4  and  C_5
REMARK                            x       y       z     vdW  Elec       q    Type
REMARK                         _______ _______ _______ _____ _____    ______ ____
ROOT
ATOM      1  N   UNL     1       2.666   3.262 -16.868  0.00  0.00    -0.354 N 
ATOM      2  N   UNL     1       1.062   3.444 -18.530  0.00  0.00    -0.372 N 
ATOM      3  N   UNL     1       3.209   4.116 -18.982  0.00  0.00    -0.372 N 
ATOM      4  C   UNL     1       2.325   3.608 -18.117  0.00  0.00    +0.166 C 
ATOM      5  H   UNL     1       1.942   2.911 -16.252  0.00  0.00    +0.163 HD
ATOM      6  H   UNL     1       0.777   3.692 -19.467  0.00  0.00    +0.159 HD
ATOM      7  H   UNL     1       0.351   3.049 -17.926  0.00  0.00    +0.159 HD
ATOM      8  H   UNL     1       4.176   4.270 -18.730  0.00  0.00    +0.159 HD
ATOM      9  H   UNL     1       2.940   4.381 -19.921  0.00  0.00    +0.159 HD
ENDROOT
BRANCH   1  10
ATOM     10  C   UNL     1       4.025   3.350 -16.337  0.00  0.00    +0.151 C 
BRANCH  10  11
ATOM     11  C   UNL     1       4.742   2.056 -16.607  0.00  0.00    -0.028 A 
ATOM     12  C   UNL     1       4.024   0.859 -16.745  0.00  0.00    +0.005 A 
ATOM     13  C   UNL     1       6.139   2.022 -16.732  0.00  0.00    +0.005 A 
ATOM     14  C   UNL     1       4.687  -0.338 -17.026  0.00  0.00    +0.000 A 
ATOM     15  C   UNL     1       6.798   0.824 -17.012  0.00  0.00    +0.000 A 
ATOM     16  C   UNL     1       6.071  -0.355 -17.161  0.00  0.00    +0.000 A 
ENDBRANCH  10  11
ENDBRANCH   1  10
TORSDOF 2
ENDMDL
MODEL 6
REMARK VINA RESULT:    -5.302      2.432      3.451
REMARK INTER + INTRA:          -5.981
REMARK INTER:                  -5.812
REMARK INTRA:                  -0.168
REMARK UNBOUND:                -0.059
REMARK  Name = 1550473
REMARK  2 active torsions:
REMARK  status: ('A' for Active; 'I' for Inactive)
REMARK    1  A    between atoms: N_1  and  C_4
REMARK    2  A    between atoms: C_4  and  C_5
REMARK                            x       y       z     vdW  Elec       q    Type
REMARK                         _______ _______ _______ _____ _____    ______ ____
ROOT
ATOM      1  N   UNL     1       2.597   2.017 -17.922  0.00  0.00    -0.354 N 
ATOM      2  N   UNL     1       1.008   3.675 -18.225  0.00  0.00    -0.372 N 
ATOM      3  N   UNL     1       3.152   4.047 -18.953  0.00  0.00    -0.372 N 
ATOM      4  C   UNL     1       2.265   3.237 -18.366  0.00  0.00    +0.166 C 
ATOM      5  H   UNL     1       1.886   1.463 -17.459  0.00  0.00    +0.163 HD
ATOM      6  H   UNL     1       0.727   4.589 -18.553  0.00  0.00    +0.159 HD
ATOM      7  H   UNL     1       0.288   3.101 -17.803  0.00  0.00    +0.159 HD
ATOM      8  H   UNL     1       4.118   3.778 -19.084  0.00  0.00    +0.159 HD
ATOM      9  H   UNL     1       2.893   4.970 -19.277  0.00  0.00    +0.159 HD
ENDROOT
BRANCH   1  10
ATOM     10  C   UNL     1       3.925   1.425 -18.075  0.00  0.00    +0.151 C 
BRANCH  10  11
ATOM     11  C   UNL     1       3.937   0.557 -19.303  0.00  0.00    -0.028 A 
ATOM     12  C   UNL     1       3.439  -0.753 -19.253  0.00  0.00    +0.005 A 
ATOM     13  C   UNL     1       4.441   1.040 -20.520  0.00  0.00    +0.005 A 
ATOM     14  C   UNL     1       3.422  -1.550 -20.401  0.00  0.00    +0.000 A 
ATOM     15  C   UNL     1       4.424   0.241 -21.663  0.00  0.00    +0.000 A 
ATOM     16  C   UNL     1       3.912  -1.053 -21.604  0.00  0.00    +0.000 A 
ENDBRANCH  10  11
ENDBRANCH   1  10
TORSDOF 2
ENDMDL
MODEL 7
REMARK VINA RESULT:    -5.083     29.683     31.239
REMARK INTER + INTRA:          -5.737
REMARK INTER:                  -5.635
REMARK INTRA:                  -0.102
REMARK UNBOUND:                -0.059
REMARK  Name = 1550473
REMARK  2 active torsions:
REMARK  status: ('A' for Active; 'I' for Inactive)
REMARK    1  A    between atoms: N_1  and  C_4
REMARK    2  A    between atoms: C_4  and  C_5
REMARK                            x       y       z     vdW  Elec       q    Type
REMARK                         _______ _______ _______ _____ _____    ______ ____
ROOT
ATOM      1  N   UNL     1      12.364 -16.878   6.964  0.00  0.00    -0.354 N 
ATOM      2  N   UNL     1      12.072 -16.345   9.199  0.00  0.00    -0.372 N 
ATOM      3  N   UNL     1      10.260 -17.053   7.982  0.00  0.00    -0.372 N 
ATOM      4  C   UNL     1      11.565 -16.762   8.033  0.00  0.00    +0.166 C 
ATOM      5  H   UNL     1      13.338 -16.613   7.060  0.00  0.00    +0.163 HD
ATOM      6  H   UNL     1      11.494 -16.251  10.023  0.00  0.00    +0.159 HD
ATOM      7  H   UNL     1      13.055 -16.125   9.304  0.00  0.00    +0.159 HD
ATOM      8  H   UNL     1       9.815 -17.367   7.130  0.00  0.00    +0.159 HD
ATOM      9  H   UNL     1       9.663 -16.954   8.793  0.00  0.00    +0.159 HD
ENDROOT
BRANCH   1  10
ATOM     10  C   UNL     1      11.922 -17.375   5.662  0.00  0.00    +0.151 C 
BRANCH  10  11
ATOM     11  C   UNL     1      12.681 -16.658   4.579  0.00  0.00    -0.028 A 
ATOM     12  C   UNL     1      14.022 -16.976   4.320  0.00  0.00    +0.005 A 
ATOM     13  C   UNL     1      12.062 -15.664   3.805  0.00  0.00    +0.005 A 
ATOM     14  C   UNL     1      14.718 -16.332   3.295  0.00  0.00    +0.000 A 
ATOM     15  C   UNL     1      12.761 -15.023   2.783  0.00  0.00    +0.000 A 
ATOM     16  C   UNL     1      14.088 -15.359   2.526  0.00  0.00    +0.000 A 
ENDBRANCH  10  11
ENDBRANCH   1  10
TORSDOF 2
ENDMDL
MODEL 8
REMARK VINA RESULT:    -5.013     18.727     20.614
REMARK INTER + INTRA:          -5.658
REMARK INTER:                  -5.542
REMARK INTRA:                  -0.117
REMARK UNBOUND:                -0.059
REMARK  Name = 1550473
REMARK  2 active torsions:
REMARK  status: ('A' for Active; 'I' for Inactive)
REMARK    1  A    between atoms: N_1  and  C_4
REMARK    2  A    between atoms: C_4  and  C_5
REMARK                            x       y       z     vdW  Elec       q    Type
REMARK                         _______ _______ _______ _____ _____    ______ ____
ROOT
ATOM      1  N   UNL     1      11.465  14.259  -2.507  0.00  0.00    -0.354 N 
ATOM      2  N   UNL     1      11.132  14.555  -0.235  0.00  0.00    -0.372 N 
ATOM      3  N   UNL     1      12.562  15.969  -1.339  0.00  0.00    -0.372 N 
ATOM      4  C   UNL     1      11.724  14.928  -1.376  0.00  0.00    +0.166 C 
ATOM      5  H   UNL     1      10.844  13.460  -2.463  0.00  0.00    +0.163 HD
ATOM      6  H   UNL     1      11.304  15.043   0.634  0.00  0.00    +0.159 HD
ATOM      7  H   UNL     1      10.475  13.785  -0.202  0.00  0.00    +0.159 HD
ATOM      8  H   UNL     1      13.046  16.296  -2.165  0.00  0.00    +0.159 HD
ATOM      9  H   UNL     1      12.757  16.462  -0.477  0.00  0.00    +0.159 HD
ENDROOT
BRANCH   1  10
ATOM     10  C   UNL     1      12.017  14.617  -3.813  0.00  0.00    +0.151 C 
BRANCH  10  11
ATOM     11  C   UNL     1      12.424  13.362  -4.535  0.00  0.00    -0.028 A 
ATOM     12  C   UNL     1      13.687  12.793  -4.317  0.00  0.00    +0.005 A 
ATOM     13  C   UNL     1      11.549  12.735  -5.435  0.00  0.00    +0.005 A 
ATOM     14  C   UNL     1      14.054  11.611  -4.965  0.00  0.00    +0.000 A 
ATOM     15  C   UNL     1      11.919  11.555  -6.081  0.00  0.00    +0.000 A 
ATOM     16  C   UNL     1      13.171  10.993  -5.843  0.00  0.00    +0.000 A 
ENDBRANCH  10  11
ENDBRANCH   1  10
TORSDOF 2
ENDMDL
MODEL 9
REMARK VINA RESULT:    -4.843      2.603      3.468
REMARK INTER + INTRA:          -5.468
REMARK INTER:                  -5.360
REMARK INTRA:                  -0.108
REMARK UNBOUND:                -0.059
REMARK  Name = 1550473
REMARK  2 active torsions:
REMARK  status: ('A' for Active; 'I' for Inactive)
REMARK    1  A    between atoms: N_1  and  C_4
REMARK    2  A    between atoms: C_4  and  C_5
REMARK                            x       y       z     vdW  Elec       q    Type
REMARK                         _______ _______ _______ _____ _____    ______ ____
ROOT
ATOM      1  N   UNL     1       5.787   2.950 -20.037  0.00  0.00    -0.354 N 
ATOM      2  N   UNL     1       7.439   4.013 -21.265  0.00  0.00    -0.372 N 
ATOM      3  N   UNL     1       7.403   4.283 -18.986  0.00  0.00    -0.372 N 
ATOM      4  C   UNL     1       6.866   3.743 -20.085  0.00  0.00    +0.166 C 
ATOM      5  H   UNL     1       5.410   2.596 -20.909  0.00  0.00    +0.163 HD
ATOM      6  H   UNL     1       8.256   4.604 -21.332  0.00  0.00    +0.159 HD
ATOM      7  H   UNL     1       7.087   3.620 -22.130  0.00  0.00    +0.159 HD
ATOM      8  H   UNL     1       7.015   4.123 -18.066  0.00  0.00    +0.159 HD
ATOM      9  H   UNL     1       8.214   4.888 -19.035  0.00  0.00    +0.159 HD
ENDROOT
BRANCH   1  10
ATOM     10  C   UNL     1       5.121   2.551 -18.798  0.00  0.00    +0.151 C 
BRANCH  10  11
ATOM     11  C   UNL     1       3.641   2.455 -19.046  0.00  0.00    -0.028 A 
ATOM     12  C   UNL     1       2.740   3.199 -18.270  0.00  0.00    +0.005 A 
ATOM     13  C   UNL     1       3.133   1.626 -20.058  0.00  0.00    +0.005 A 
ATOM     14  C   UNL     1       1.367   3.133 -18.519  0.00  0.00    +0.000 A 
ATOM     15  C   UNL     1       1.762   1.563 -20.303  0.00  0.00    +0.000 A 
ATOM     16  C   UNL     1       0.879   2.318 -19.535  0.00  0.00    +0.000 A 
ENDBRANCH  10  11
ENDBRANCH   1  10
TORSDOF 2
ENDMDL
