MODEL 1
REMARK VINA RESULT:    -5.772      0.000      0.000
REMARK INTER + INTRA:          -6.571
REMARK INTER:                  -6.446
REMARK INTRA:                  -0.124
REMARK UNBOUND:                -0.124
REMARK  Name = 1550473
REMARK  2 active torsions:
REMARK  status: ('A' for Active; 'I' for Inactive)
REMARK    1  A    between atoms: N_1  and  C_4
REMARK    2  A    between atoms: C_4  and  C_5
REMARK                            x       y       z     vdW  Elec       q    Type
REMARK                         _______ _______ _______ _____ _____    ______ ____
ROOT
ATOM      1  N   UNL     1     -14.999   4.190  -3.057  0.00  0.00    -0.354 N 
ATOM      2  N   UNL     1     -13.877   6.208  -2.881  0.00  0.00    -0.372 N 
ATOM      3  N   UNL     1     -14.392   5.404  -4.967  0.00  0.00    -0.372 N 
ATOM      4  C   UNL     1     -14.430   5.254  -3.639  0.00  0.00    +0.166 C 
ATOM      5  H   UNL     1     -14.968   4.120  -2.046  0.00  0.00    +0.163 HD
ATOM      6  H   UNL     1     -13.444   7.025  -3.292  0.00  0.00    +0.159 HD
ATOM      7  H   UNL     1     -13.889   6.159  -1.869  0.00  0.00    +0.159 HD
ATOM      8  H   UNL     1     -14.786   4.716  -5.595  0.00  0.00    +0.159 HD
ATOM      9  H   UNL     1     -13.952   6.208  -5.397  0.00  0.00    +0.159 HD
ENDROOT
BRANCH   1  10
ATOM     10  C   UNL     1     -15.676   3.121  -3.790  0.00  0.00    +0.151 C 
BRANCH  10  11
ATOM     11  C   UNL     1     -15.640   1.863  -2.968  0.00  0.00    -0.028 A 
ATOM     12  C   UNL     1     -14.521   1.560  -2.178  0.00  0.00    +0.005 A 
ATOM     13  C   UNL     1     -16.724   0.971  -2.970  0.00  0.00    +0.005 A 
ATOM     14  C   UNL     1     -14.499   0.406  -1.391  0.00  0.00    +0.000 A 
ATOM     15  C   UNL     1     -16.698  -0.180  -2.183  0.00  0.00    +0.000 A 
ATOM     16  C   UNL     1     -15.587  -0.461  -1.392  0.00  0.00    +0.000 A 
ENDBRANCH  10  11
ENDBRANCH   1  10
TORSDOF 2
ENDMDL
MODEL 2
REMARK VINA RESULT:    -5.282     25.351     26.516
REMARK INTER + INTRA:          -6.024
REMARK INTER:                  -5.916
REMARK INTRA:                  -0.109
REMARK UNBOUND:                -0.124
REMARK  Name = 1550473
REMARK  2 active torsions:
REMARK  status: ('A' for Active; 'I' for Inactive)
REMARK    1  A    between atoms: N_1  and  C_4
REMARK    2  A    between atoms: C_4  and  C_5
REMARK                            x       y       z     vdW  Elec       q    Type
REMARK                         _______ _______ _______ _____ _____    ______ ____
ROOT
ATOM      1  N   UNL     1       7.389  -5.514   2.610  0.00  0.00    -0.354 N 
ATOM      2  N   UNL     1       5.197  -6.236   2.801  0.00  0.00    -0.372 N 
ATOM      3  N   UNL     1       6.093  -5.954   0.707  0.00  0.00    -0.372 N 
ATOM      4  C   UNL     1       6.241  -5.896   2.035  0.00  0.00    +0.166 C 
ATOM      5  H   UNL     1       7.428  -5.463   3.621  0.00  0.00    +0.163 HD
ATOM      6  H   UNL     1       4.319  -6.531   2.396  0.00  0.00    +0.159 HD
ATOM      7  H   UNL     1       5.252  -6.227   3.812  0.00  0.00    +0.159 HD
ATOM      8  H   UNL     1       6.842  -5.705   0.074  0.00  0.00    +0.159 HD
ATOM      9  H   UNL     1       5.219  -6.236   0.283  0.00  0.00    +0.159 HD
ENDROOT
BRANCH   1  10
ATOM     10  C   UNL     1       8.602  -5.176   1.867  0.00  0.00    +0.151 C 
BRANCH  10  11
ATOM     11  C   UNL     1       9.791  -5.774   2.569  0.00  0.00    -0.028 A 
ATOM     12  C   UNL     1      10.223  -5.261   3.801  0.00  0.00    +0.005 A 
ATOM     13  C   UNL     1      10.485  -6.858   2.010  0.00  0.00    +0.005 A 
ATOM     14  C   UNL     1      11.308  -5.835   4.467  0.00  0.00    +0.000 A 
ATOM     15  C   UNL     1      11.569  -7.428   2.679  0.00  0.00    +0.000 A 
ATOM     16  C   UNL     1      11.978  -6.918   3.908  0.00  0.00    +0.000 A 
ENDBRANCH  10  11
ENDBRANCH   1  10
TORSDOF 2
ENDMDL
MODEL 3
REMARK VINA RESULT:    -5.116     29.388     29.989
REMARK INTER + INTRA:          -5.838
REMARK INTER:                  -5.691
REMARK INTRA:                  -0.147
REMARK UNBOUND:                -0.124
REMARK  Name = 1550473
REMARK  2 active torsions:
REMARK  status: ('A' for Active; 'I' for Inactive)
REMARK    1  A    between atoms: N_1  and  C_4
REMARK    2  A    between atoms: C_4  and  C_5
REMARK                            x       y       z     vdW  Elec       q    Type
REMARK                         _______ _______ _______ _____ _____    ______ ____
ROOT
ATOM      1  N   UNL     1      12.132  -7.188 -15.042  0.00  0.00    -0.354 N 
ATOM      2  N   UNL     1      14.171  -6.445 -14.233  0.00  0.00    -0.372 N 
ATOM      3  N   UNL     1      12.598  -4.898 -14.864  0.00  0.00    -0.372 N 
ATOM      4  C   UNL     1      12.952  -6.179 -14.719  0.00  0.00    +0.166 C 
ATOM      5  H   UNL     1      12.471  -8.137 -14.937  0.00  0.00    +0.163 HD
ATOM      6  H   UNL     1      14.811  -5.705 -13.978  0.00  0.00    +0.159 HD
ATOM      7  H   UNL     1      14.490  -7.395 -14.086  0.00  0.00    +0.159 HD
ATOM      8  H   UNL     1      11.695  -4.631 -15.231  0.00  0.00    +0.159 HD
ATOM      9  H   UNL     1      13.229  -4.143 -14.625  0.00  0.00    +0.159 HD
ENDROOT
BRANCH   1  10
ATOM     10  C   UNL     1      10.765  -7.006 -15.529  0.00  0.00    +0.151 C 
BRANCH  10  11
ATOM     11  C   UNL     1       9.821  -7.765 -14.637  0.00  0.00    -0.028 A 
ATOM     12  C   UNL     1       9.634  -7.375 -13.303  0.00  0.00    +0.005 A 
ATOM     13  C   UNL     1       9.107  -8.871 -15.122  0.00  0.00    +0.005 A 
ATOM     14  C   UNL     1       8.735  -8.061 -12.482  0.00  0.00    +0.000 A 
ATOM     15  C   UNL     1       8.211  -9.553 -14.299  0.00  0.00    +0.000 A 
ATOM     16  C   UNL     1       8.023  -9.147 -12.981  0.00  0.00    +0.000 A 
ENDBRANCH  10  11
ENDBRANCH   1  10
TORSDOF 2
ENDMDL
MODEL 4
REMARK VINA RESULT:    -4.954     29.944     30.747
REMARK INTER + INTRA:          -5.658
REMARK INTER:                  -5.535
REMARK INTRA:                  -0.122
REMARK UNBOUND:                -0.124
REMARK  Name = 1550473
REMARK  2 active torsions:
REMARK  status: ('A' for Active; 'I' for Inactive)
REMARK    1  A    between atoms: N_1  and  C_4
REMARK    2  A    between atoms: C_4  and  C_5
REMARK                            x       y       z     vdW  Elec       q    Type
REMARK                         _______ _______ _______ _____ _____    ______ ____
ROOT
ATOM      1  N   UNL     1       9.549 -13.164 -12.810  0.00  0.00    -0.354 N 
ATOM      2  N   UNL     1       9.572 -15.418 -13.342  0.00  0.00    -0.372 N 
ATOM      3  N   UNL     1      11.538 -14.238 -13.427  0.00  0.00    -0.372 N 
ATOM      4  C   UNL     1      10.222 -14.258 -13.190  0.00  0.00    +0.166 C 
ATOM      5  H   UNL     1       8.547 -13.237 -12.675  0.00  0.00    +0.163 HD
ATOM      6  H   UNL     1      10.053 -16.260 -13.625  0.00  0.00    +0.159 HD
ATOM      7  H   UNL     1       8.578 -15.499 -13.163  0.00  0.00    +0.159 HD
ATOM      8  H   UNL     1      12.086 -13.393 -13.336  0.00  0.00    +0.159 HD
ATOM      9  H   UNL     1      12.036 -15.069 -13.722  0.00  0.00    +0.159 HD
ENDROOT
BRANCH   1  10
ATOM     10  C   UNL     1      10.172 -11.865 -12.564  0.00  0.00    +0.151 C 
BRANCH  10  11
ATOM     11  C   UNL     1       9.420 -10.807 -13.322  0.00  0.00    -0.028 A 
ATOM     12  C   UNL     1       8.041 -10.636 -13.128  0.00  0.00    +0.005 A 
ATOM     13  C   UNL     1      10.080  -9.968 -14.233  0.00  0.00    +0.005 A 
ATOM     14  C   UNL     1       7.347  -9.634 -13.810  0.00  0.00    +0.000 A 
ATOM     15  C   UNL     1       9.384  -8.969 -14.913  0.00  0.00    +0.000 A 
ATOM     16  C   UNL     1       8.018  -8.801 -14.700  0.00  0.00    +0.000 A 
ENDBRANCH  10  11
ENDBRANCH   1  10
TORSDOF 2
ENDMDL
MODEL 5
REMARK VINA RESULT:    -4.950     19.581     20.518
REMARK INTER + INTRA:          -5.653
REMARK INTER:                  -5.526
REMARK INTRA:                  -0.127
REMARK UNBOUND:                -0.124
REMARK  Name = 1550473
REMARK  2 active torsions:
REMARK  status: ('A' for Active; 'I' for Inactive)
REMARK    1  A    between atoms: N_1  and  C_4
REMARK    2  A    between atoms: C_4  and  C_5
REMARK                            x       y       z     vdW  Elec       q    Type
REMARK                         _______ _______ _______ _____ _____    ______ ____
ROOT
ATOM      1  N   UNL     1      -9.576   7.966  17.254  0.00  0.00    -0.354 N 
ATOM      2  N   UNL     1      -7.599   7.561  18.390  0.00  0.00    -0.372 N 
ATOM      3  N   UNL     1      -7.545   8.857  16.498  0.00  0.00    -0.372 N 
ATOM      4  C   UNL     1      -8.252   8.132  17.371  0.00  0.00    +0.166 C 
ATOM      5  H   UNL     1     -10.049   7.379  17.932  0.00  0.00    +0.163 HD
ATOM      6  H   UNL     1      -6.600   7.671  18.506  0.00  0.00    +0.159 HD
ATOM      7  H   UNL     1      -8.081   7.013  19.092  0.00  0.00    +0.159 HD
ATOM      8  H   UNL     1      -7.977   9.310  15.703  0.00  0.00    +0.159 HD
ATOM      9  H   UNL     1      -6.543   8.970  16.590  0.00  0.00    +0.159 HD
ENDROOT
BRANCH   1  10
ATOM     10  C   UNL     1     -10.390   8.590  16.212  0.00  0.00    +0.151 C 
BRANCH  10  11
ATOM     11  C   UNL     1     -11.586   7.721  15.937  0.00  0.00    -0.028 A 
ATOM     12  C   UNL     1     -12.369   7.929  14.792  0.00  0.00    +0.005 A 
ATOM     13  C   UNL     1     -11.938   6.684  16.814  0.00  0.00    +0.005 A 
ATOM     14  C   UNL     1     -13.463   7.104  14.520  0.00  0.00    +0.000 A 
ATOM     15  C   UNL     1     -13.031   5.862  16.540  0.00  0.00    +0.000 A 
ATOM     16  C   UNL     1     -13.792   6.071  15.392  0.00  0.00    +0.000 A 
ENDBRANCH  10  11
ENDBRANCH   1  10
TORSDOF 2
ENDMDL
MODEL 6
REMARK VINA RESULT:    -4.935     19.572     20.252
REMARK INTER + INTRA:          -5.636
REMARK INTER:                  -5.522
REMARK INTRA:                  -0.113
REMARK UNBOUND:                -0.124
REMARK  Name = 1550473
REMARK  2 active torsions:
REMARK  status: ('A' for Active; 'I' for Inactive)
REMARK    1  A    between atoms: N_1  and  C_4
REMARK    2  A    between atoms: C_4  and  C_5
REMARK                            x       y       z     vdW  Elec       q    Type
REMARK                         _______ _______ _______ _____ _____    ______ ____
ROOT
ATOM      1  N   UNL     1      -9.333  -4.086 -22.022  0.00  0.00    -0.354 N 
ATOM      2  N   UNL     1      -8.585  -4.246 -24.208  0.00  0.00    -0.372 N 
ATOM      3  N   UNL     1      -8.713  -2.175 -23.229  0.00  0.00    -0.372 N 
ATOM      4  C   UNL     1      -8.882  -3.499 -23.138  0.00  0.00    +0.166 C 
ATOM      5  H   UNL     1      -9.468  -5.091 -22.028  0.00  0.00    +0.163 HD
ATOM      6  H   UNL     1      -8.239  -3.832 -25.063  0.00  0.00    +0.159 HD
ATOM      7  H   UNL     1      -8.677  -5.255 -24.196  0.00  0.00    +0.159 HD
ATOM      8  H   UNL     1      -8.925  -1.555 -22.459  0.00  0.00    +0.159 HD
ATOM      9  H   UNL     1      -8.380  -1.740 -24.080  0.00  0.00    +0.159 HD
ENDROOT
BRANCH   1  10
ATOM     10  C   UNL     1      -9.634  -3.369 -20.785  0.00  0.00    +0.151 C 
BRANCH  10  11
ATOM     11  C   UNL     1      -8.590  -3.703 -19.756  0.00  0.00    -0.028 A 
ATOM     12  C   UNL     1      -7.235  -3.436 -20.004  0.00  0.00    +0.005 A 
ATOM     13  C   UNL     1      -8.948  -4.283 -18.529  0.00  0.00    +0.005 A 
ATOM     14  C   UNL     1      -6.268  -3.719 -19.036  0.00  0.00    +0.000 A 
ATOM     15  C   UNL     1      -7.979  -4.564 -17.566  0.00  0.00    +0.000 A 
ATOM     16  C   UNL     1      -6.640  -4.280 -17.819  0.00  0.00    +0.000 A 
ENDBRANCH  10  11
ENDBRANCH   1  10
TORSDOF 2
ENDMDL
MODEL 7
REMARK VINA RESULT:    -4.924     19.404     20.028
REMARK INTER + INTRA:          -5.624
REMARK INTER:                  -5.558
REMARK INTRA:                  -0.066
REMARK UNBOUND:                -0.124
REMARK  Name = 1550473
REMARK  2 active torsions:
REMARK  status: ('A' for Active; 'I' for Inactive)
REMARK    1  A    between atoms: N_1  and  C_4
REMARK    2  A    between atoms: C_4  and  C_5
REMARK                            x       y       z     vdW  Elec       q    Type
REMARK                         _______ _______ _______ _____ _____    ______ ____
ROOT
ATOM      1  N   UNL     1      -7.059  -2.623 -22.182  0.00  0.00    -0.354 N 
ATOM      2  N   UNL     1      -5.404  -1.191 -22.942  0.00  0.00    -0.372 N 
ATOM      3  N   UNL     1      -7.269  -0.301 -21.945  0.00  0.00    -0.372 N 
ATOM      4  C   UNL     1      -6.590  -1.379 -22.350  0.00  0.00    +0.166 C 
ATOM      5  H   UNL     1      -6.510  -3.396 -22.538  0.00  0.00    +0.163 HD
ATOM      6  H   UNL     1      -5.023  -0.265 -23.080  0.00  0.00    +0.159 HD
ATOM      7  H   UNL     1      -4.836  -1.969 -23.256  0.00  0.00    +0.159 HD
ATOM      8  H   UNL     1      -8.173  -0.374 -21.497  0.00  0.00    +0.159 HD
ATOM      9  H   UNL     1      -6.910   0.635 -22.084  0.00  0.00    +0.159 HD
ENDROOT
BRANCH   1  10
ATOM     10  C   UNL     1      -8.313  -2.938 -21.501  0.00  0.00    +0.151 C 
BRANCH  10  11
ATOM     11  C   UNL     1      -8.007  -3.492 -20.137  0.00  0.00    -0.028 A 
ATOM     12  C   UNL     1      -6.687  -3.534 -19.666  0.00  0.00    +0.005 A 
ATOM     13  C   UNL     1      -9.033  -3.972 -19.309  0.00  0.00    +0.005 A 
ATOM     14  C   UNL     1      -6.405  -4.020 -18.387  0.00  0.00    +0.000 A 
ATOM     15  C   UNL     1      -8.747  -4.458 -18.033  0.00  0.00    +0.000 A 
ATOM     16  C   UNL     1      -7.434  -4.480 -17.572  0.00  0.00    +0.000 A 
ENDBRANCH  10  11
ENDBRANCH   1  10
TORSDOF 2
ENDMDL
MODEL 8
REMARK VINA RESULT:    -4.849     28.195     28.891
REMARK INTER + INTRA:          -5.540
REMARK INTER:                  -5.395
REMARK INTRA:                  -0.146
REMARK UNBOUND:                -0.124
REMARK  Name = 1550473
REMARK  2 active torsions:
REMARK  status: ('A' for Active; 'I' for Inactive)
REMARK    1  A    between atoms: N_1  and  C_4
REMARK    2  A    between atoms: C_4  and  C_5
REMARK                            x       y       z     vdW  Elec       q    Type
REMARK                         _______ _______ _______ _____ _____    ______ ____
ROOT
ATOM      1  N   UNL     1       9.824  -7.956 -10.293  0.00  0.00    -0.354 N 
ATOM      2  N   UNL     1      10.056  -8.993  -8.235  0.00  0.00    -0.372 N 
ATOM      3  N   UNL     1      11.917  -8.697  -9.543  0.00  0.00    -0.372 N 
ATOM      4  C   UNL     1      10.600  -8.542  -9.371  0.00  0.00    +0.166 C 
ATOM      5  H   UNL     1       8.828  -7.897 -10.115  0.00  0.00    +0.163 HD
ATOM      6  H   UNL     1      10.617  -9.436  -7.520  0.00  0.00    +0.159 HD
ATOM      7  H   UNL     1       9.068  -8.891  -8.040  0.00  0.00    +0.159 HD
ATOM      8  H   UNL     1      12.388  -8.384 -10.382  0.00  0.00    +0.159 HD
ATOM      9  H   UNL     1      12.494  -9.149  -8.844  0.00  0.00    +0.159 HD
ENDROOT
BRANCH   1  10
ATOM     10  C   UNL     1      10.326  -7.384 -11.540  0.00  0.00    +0.151 C 
BRANCH  10  11
ATOM     11  C   UNL     1       9.556  -7.966 -12.693  0.00  0.00    -0.028 A 
ATOM     12  C   UNL     1       8.464  -8.816 -12.463  0.00  0.00    +0.005 A 
ATOM     13  C   UNL     1       9.911  -7.669 -14.018  0.00  0.00    +0.005 A 
ATOM     14  C   UNL     1       7.730  -9.333 -13.533  0.00  0.00    +0.000 A 
ATOM     15  C   UNL     1       9.176  -8.188 -15.084  0.00  0.00    +0.000 A 
ATOM     16  C   UNL     1       8.084  -9.019 -14.841  0.00  0.00    +0.000 A 
ENDBRANCH  10  11
ENDBRANCH   1  10
TORSDOF 2
ENDMDL
MODEL 9
REMARK VINA RESULT:    -4.801      1.488      2.157
REMARK INTER + INTRA:          -5.487
REMARK INTER:                  -5.375
REMARK INTRA:                  -0.111
REMARK UNBOUND:                -0.124
REMARK  Name = 1550473
REMARK  2 active torsions:
REMARK  status: ('A' for Active; 'I' for Inactive)
REMARK    1  A    between atoms: N_1  and  C_4
REMARK    2  A    between atoms: C_4  and  C_5
REMARK                            x       y       z     vdW  Elec       q    Type
REMARK                         _______ _______ _______ _____ _____    ______ ____
ROOT
ATOM      1  N   UNL     1     -14.875   3.938  -5.018  0.00  0.00    -0.354 N 
ATOM      2  N   UNL     1     -13.540   5.205  -6.425  0.00  0.00    -0.372 N 
ATOM      3  N   UNL     1     -15.508   6.102  -5.657  0.00  0.00    -0.372 N 
ATOM      4  C   UNL     1     -14.652   5.075  -5.690  0.00  0.00    +0.166 C 
ATOM      5  H   UNL     1     -14.203   3.185  -5.109  0.00  0.00    +0.163 HD
ATOM      6  H   UNL     1     -13.343   6.052  -6.940  0.00  0.00    +0.159 HD
ATOM      7  H   UNL     1     -12.847   4.468  -6.477  0.00  0.00    +0.159 HD
ATOM      8  H   UNL     1     -16.368   6.066  -5.126  0.00  0.00    +0.159 HD
ATOM      9  H   UNL     1     -15.334   6.954  -6.175  0.00  0.00    +0.159 HD
ENDROOT
BRANCH   1  10
ATOM     10  C   UNL     1     -16.028   3.716  -4.147  0.00  0.00    +0.151 C 
BRANCH  10  11
ATOM     11  C   UNL     1     -15.797   2.471  -3.335  0.00  0.00    -0.028 A 
ATOM     12  C   UNL     1     -16.801   1.498  -3.224  0.00  0.00    +0.005 A 
ATOM     13  C   UNL     1     -14.575   2.257  -2.679  0.00  0.00    +0.005 A 
ATOM     14  C   UNL     1     -16.576   0.328  -2.494  0.00  0.00    +0.000 A 
ATOM     15  C   UNL     1     -14.355   1.088  -1.951  0.00  0.00    +0.000 A 
ATOM     16  C   UNL     1     -15.355   0.122  -1.861  0.00  0.00    +0.000 A 
ENDBRANCH  10  11
ENDBRANCH   1  10
TORSDOF 2
ENDMDL
