MODEL 1
REMARK VINA RESULT:    -5.867      0.000      0.000
REMARK INTER + INTRA:          -6.677
REMARK INTER:                  -6.553
REMARK INTRA:                  -0.124
REMARK UNBOUND:                -0.124
REMARK  Name = 1550473
REMARK  2 active torsions:
REMARK  status: ('A' for Active; 'I' for Inactive)
REMARK    1  A    between atoms: N_1  and  C_4
REMARK    2  A    between atoms: C_4  and  C_5
REMARK                            x       y       z     vdW  Elec       q    Type
REMARK                         _______ _______ _______ _____ _____    ______ ____
ROOT
ATOM      1  N   UNL     1       9.358   1.311  -1.482  0.00  0.00    -0.354 N 
ATOM      2  N   UNL     1       8.298  -0.376  -0.301  0.00  0.00    -0.372 N 
ATOM      3  N   UNL     1      10.487   0.111   0.184  0.00  0.00    -0.372 N 
ATOM      4  C   UNL     1       9.391   0.359  -0.540  0.00  0.00    +0.166 C 
ATOM      5  H   UNL     1       8.505   1.429  -2.017  0.00  0.00    +0.163 HD
ATOM      6  H   UNL     1       8.292  -1.099   0.406  0.00  0.00    +0.159 HD
ATOM      7  H   UNL     1       7.433  -0.225  -0.805  0.00  0.00    +0.159 HD
ATOM      8  H   UNL     1      11.347   0.626   0.048  0.00  0.00    +0.159 HD
ATOM      9  H   UNL     1      10.504  -0.617   0.888  0.00  0.00    +0.159 HD
ENDROOT
BRANCH   1  10
ATOM     10  C   UNL     1      10.476   2.203  -1.783  0.00  0.00    +0.151 C 
BRANCH  10  11
ATOM     11  C   UNL     1      10.695   2.231  -3.270  0.00  0.00    -0.028 A 
ATOM     12  C   UNL     1       9.613   2.406  -4.146  0.00  0.00    +0.005 A 
ATOM     13  C   UNL     1      11.983   2.091  -3.810  0.00  0.00    +0.005 A 
ATOM     14  C   UNL     1       9.820   2.463  -5.526  0.00  0.00    +0.000 A 
ATOM     15  C   UNL     1      12.185   2.147  -5.189  0.00  0.00    +0.000 A 
ATOM     16  C   UNL     1      11.104   2.336  -6.047  0.00  0.00    +0.000 A 
ENDBRANCH  10  11
ENDBRANCH   1  10
TORSDOF 2
ENDMDL
MODEL 2
REMARK VINA RESULT:    -5.612      1.286      2.304
REMARK INTER + INTRA:          -6.392
REMARK INTER:                  -6.250
REMARK INTRA:                  -0.142
REMARK UNBOUND:                -0.124
REMARK  Name = 1550473
REMARK  2 active torsions:
REMARK  status: ('A' for Active; 'I' for Inactive)
REMARK    1  A    between atoms: N_1  and  C_4
REMARK    2  A    between atoms: C_4  and  C_5
REMARK                            x       y       z     vdW  Elec       q    Type
REMARK                         _______ _______ _______ _____ _____    ______ ____
ROOT
ATOM      1  N   UNL     1      11.419   2.084  -1.478  0.00  0.00    -0.354 N 
ATOM      2  N   UNL     1      12.840   1.097   0.062  0.00  0.00    -0.372 N 
ATOM      3  N   UNL     1      10.676   0.347  -0.091  0.00  0.00    -0.372 N 
ATOM      4  C   UNL     1      11.633   1.181  -0.511  0.00  0.00    +0.166 C 
ATOM      5  H   UNL     1      12.177   2.707  -1.731  0.00  0.00    +0.163 HD
ATOM      6  H   UNL     1      13.032   0.423   0.791  0.00  0.00    +0.159 HD
ATOM      7  H   UNL     1      13.609   1.690  -0.224  0.00  0.00    +0.159 HD
ATOM      8  H   UNL     1       9.743   0.364  -0.479  0.00  0.00    +0.159 HD
ATOM      9  H   UNL     1      10.846  -0.326   0.646  0.00  0.00    +0.159 HD
ENDROOT
BRANCH   1  10
ATOM     10  C   UNL     1      10.158   2.221  -2.204  0.00  0.00    +0.151 C 
BRANCH  10  11
ATOM     11  C   UNL     1      10.443   2.263  -3.680  0.00  0.00    -0.028 A 
ATOM     12  C   UNL     1      11.753   2.110  -4.157  0.00  0.00    +0.005 A 
ATOM     13  C   UNL     1       9.406   2.449  -4.607  0.00  0.00    +0.005 A 
ATOM     14  C   UNL     1      12.014   2.118  -5.529  0.00  0.00    +0.000 A 
ATOM     15  C   UNL     1       9.671   2.458  -5.976  0.00  0.00    +0.000 A 
ATOM     16  C   UNL     1      10.974   2.290  -6.437  0.00  0.00    +0.000 A 
ENDBRANCH  10  11
ENDBRANCH   1  10
TORSDOF 2
ENDMDL
MODEL 3
REMARK VINA RESULT:    -5.225      1.862      3.023
REMARK INTER + INTRA:          -5.959
REMARK INTER:                  -5.821
REMARK INTRA:                  -0.138
REMARK UNBOUND:                -0.124
REMARK  Name = 1550473
REMARK  2 active torsions:
REMARK  status: ('A' for Active; 'I' for Inactive)
REMARK    1  A    between atoms: N_1  and  C_4
REMARK    2  A    between atoms: C_4  and  C_5
REMARK                            x       y       z     vdW  Elec       q    Type
REMARK                         _______ _______ _______ _____ _____    ______ ____
ROOT
ATOM      1  N   UNL     1       9.174   0.059   0.887  0.00  0.00    -0.354 N 
ATOM      2  N   UNL     1       9.386  -0.898   2.985  0.00  0.00    -0.372 N 
ATOM      3  N   UNL     1       8.582  -2.178   1.259  0.00  0.00    -0.372 N 
ATOM      4  C   UNL     1       9.045  -1.002   1.695  0.00  0.00    +0.166 C 
ATOM      5  H   UNL     1       9.502   0.931   1.286  0.00  0.00    +0.163 HD
ATOM      6  H   UNL     1       9.303  -1.682   3.618  0.00  0.00    +0.159 HD
ATOM      7  H   UNL     1       9.757  -0.038   3.371  0.00  0.00    +0.159 HD
ATOM      8  H   UNL     1       8.301  -2.320   0.298  0.00  0.00    +0.159 HD
ATOM      9  H   UNL     1       8.480  -2.971   1.880  0.00  0.00    +0.159 HD
ENDROOT
BRANCH   1  10
ATOM     10  C   UNL     1       8.880   0.036  -0.545  0.00  0.00    +0.151 C 
BRANCH  10  11
ATOM     11  C   UNL     1       9.951   0.796  -1.278  0.00  0.00    -0.028 A 
ATOM     12  C   UNL     1       9.726   1.266  -2.580  0.00  0.00    +0.005 A 
ATOM     13  C   UNL     1      11.190   1.056  -0.673  0.00  0.00    +0.005 A 
ATOM     14  C   UNL     1      10.709   1.998  -3.250  0.00  0.00    +0.000 A 
ATOM     15  C   UNL     1      12.170   1.787  -1.346  0.00  0.00    +0.000 A 
ATOM     16  C   UNL     1      11.928   2.260  -2.633  0.00  0.00    +0.000 A 
ENDBRANCH  10  11
ENDBRANCH   1  10
TORSDOF 2
ENDMDL
MODEL 4
REMARK VINA RESULT:    -5.211     14.802     16.119
REMARK INTER + INTRA:          -5.944
REMARK INTER:                  -5.823
REMARK INTRA:                  -0.120
REMARK UNBOUND:                -0.124
REMARK  Name = 1550473
REMARK  2 active torsions:
REMARK  status: ('A' for Active; 'I' for Inactive)
REMARK    1  A    between atoms: N_1  and  C_4
REMARK    2  A    between atoms: C_4  and  C_5
REMARK                            x       y       z     vdW  Elec       q    Type
REMARK                         _______ _______ _______ _____ _____    ______ ____
ROOT
ATOM      1  N   UNL     1      -3.215  -0.688 -10.556  0.00  0.00    -0.354 N 
ATOM      2  N   UNL     1      -2.180  -0.304  -8.520  0.00  0.00    -0.372 N 
ATOM      3  N   UNL     1      -1.787  -2.286  -9.607  0.00  0.00    -0.372 N 
ATOM      4  C   UNL     1      -2.400  -1.098  -9.575  0.00  0.00    +0.166 C 
ATOM      5  H   UNL     1      -3.673   0.210 -10.458  0.00  0.00    +0.163 HD
ATOM      6  H   UNL     1      -1.568  -0.584  -7.766  0.00  0.00    +0.159 HD
ATOM      7  H   UNL     1      -2.603   0.614  -8.446  0.00  0.00    +0.159 HD
ATOM      8  H   UNL     1      -1.916  -2.934 -10.372  0.00  0.00    +0.159 HD
ATOM      9  H   UNL     1      -1.179  -2.589  -8.856  0.00  0.00    +0.159 HD
ENDROOT
BRANCH   1  10
ATOM     10  C   UNL     1      -3.479  -1.454 -11.773  0.00  0.00    +0.151 C 
BRANCH  10  11
ATOM     11  C   UNL     1      -2.975  -0.680 -12.959  0.00  0.00    -0.028 A 
ATOM     12  C   UNL     1      -2.268   0.518 -12.780  0.00  0.00    +0.005 A 
ATOM     13  C   UNL     1      -3.196  -1.142 -14.266  0.00  0.00    +0.005 A 
ATOM     14  C   UNL     1      -1.774   1.222 -13.881  0.00  0.00    +0.000 A 
ATOM     15  C   UNL     1      -2.702  -0.436 -15.362  0.00  0.00    +0.000 A 
ATOM     16  C   UNL     1      -1.988   0.744 -15.169  0.00  0.00    +0.000 A 
ENDBRANCH  10  11
ENDBRANCH   1  10
TORSDOF 2
ENDMDL
MODEL 5
REMARK VINA RESULT:    -5.016     14.397     15.765
REMARK INTER + INTRA:          -5.726
REMARK INTER:                  -5.692
REMARK INTRA:                  -0.034
REMARK UNBOUND:                -0.124
REMARK  Name = 1550473
REMARK  2 active torsions:
REMARK  status: ('A' for Active; 'I' for Inactive)
REMARK    1  A    between atoms: N_1  and  C_4
REMARK    2  A    between atoms: C_4  and  C_5
REMARK                            x       y       z     vdW  Elec       q    Type
REMARK                         _______ _______ _______ _____ _____    ______ ____
ROOT
ATOM      1  N   UNL     1      -0.680   0.812 -11.102  0.00  0.00    -0.354 N 
ATOM      2  N   UNL     1      -1.083   2.668  -9.777  0.00  0.00    -0.372 N 
ATOM      3  N   UNL     1      -1.862   0.623  -9.087  0.00  0.00    -0.372 N 
ATOM      4  C   UNL     1      -1.207   1.353  -9.996  0.00  0.00    +0.166 C 
ATOM      5  H   UNL     1      -0.222   1.425 -11.767  0.00  0.00    +0.163 HD
ATOM      6  H   UNL     1      -1.467   3.104  -8.949  0.00  0.00    +0.159 HD
ATOM      7  H   UNL     1      -0.585   3.271 -10.420  0.00  0.00    +0.159 HD
ATOM      8  H   UNL     1      -1.995  -0.374  -9.196  0.00  0.00    +0.159 HD
ATOM      9  H   UNL     1      -2.263   1.043  -8.258  0.00  0.00    +0.159 HD
ENDROOT
BRANCH   1  10
ATOM     10  C   UNL     1      -0.713  -0.617 -11.408  0.00  0.00    +0.151 C 
BRANCH  10  11
ATOM     11  C   UNL     1      -1.965  -0.925 -12.182  0.00  0.00    -0.028 A 
ATOM     12  C   UNL     1      -2.003  -0.751 -13.574  0.00  0.00    +0.005 A 
ATOM     13  C   UNL     1      -3.115  -1.397 -11.531  0.00  0.00    +0.005 A 
ATOM     14  C   UNL     1      -3.156  -1.065 -14.297  0.00  0.00    +0.000 A 
ATOM     15  C   UNL     1      -4.265  -1.708 -12.257  0.00  0.00    +0.000 A 
ATOM     16  C   UNL     1      -4.284  -1.545 -13.640  0.00  0.00    +0.000 A 
ENDBRANCH  10  11
ENDBRANCH   1  10
TORSDOF 2
ENDMDL
MODEL 6
REMARK VINA RESULT:    -4.981      9.068      9.773
REMARK INTER + INTRA:          -5.687
REMARK INTER:                  -5.583
REMARK INTRA:                  -0.103
REMARK UNBOUND:                -0.124
REMARK  Name = 1550473
REMARK  2 active torsions:
REMARK  status: ('A' for Active; 'I' for Inactive)
REMARK    1  A    between atoms: N_1  and  C_4
REMARK    2  A    between atoms: C_4  and  C_5
REMARK                            x       y       z     vdW  Elec       q    Type
REMARK                         _______ _______ _______ _____ _____    ______ ____
ROOT
ATOM      1  N   UNL     1       6.392   8.976   1.987  0.00  0.00    -0.354 N 
ATOM      2  N   UNL     1       8.186   9.758   3.227  0.00  0.00    -0.372 N 
ATOM      3  N   UNL     1       8.517   8.012   1.776  0.00  0.00    -0.372 N 
ATOM      4  C   UNL     1       7.688   8.908   2.320  0.00  0.00    +0.166 C 
ATOM      5  H   UNL     1       5.809   9.659   2.458  0.00  0.00    +0.163 HD
ATOM      6  H   UNL     1       9.160   9.732   3.496  0.00  0.00    +0.159 HD
ATOM      7  H   UNL     1       7.611  10.469   3.662  0.00  0.00    +0.159 HD
ATOM      8  H   UNL     1       8.203   7.338   1.090  0.00  0.00    +0.159 HD
ATOM      9  H   UNL     1       9.493   7.963   2.041  0.00  0.00    +0.159 HD
ENDROOT
BRANCH   1  10
ATOM     10  C   UNL     1       5.763   8.133   0.972  0.00  0.00    +0.151 C 
BRANCH  10  11
ATOM     11  C   UNL     1       5.364   8.988  -0.199  0.00  0.00    -0.028 A 
ATOM     12  C   UNL     1       6.265   9.913  -0.745  0.00  0.00    +0.005 A 
ATOM     13  C   UNL     1       4.087   8.873  -0.770  0.00  0.00    +0.005 A 
ATOM     14  C   UNL     1       5.905  10.686  -1.851  0.00  0.00    +0.000 A 
ATOM     15  C   UNL     1       3.731   9.647  -1.874  0.00  0.00    +0.000 A 
ATOM     16  C   UNL     1       4.641  10.552  -2.416  0.00  0.00    +0.000 A 
ENDBRANCH  10  11
ENDBRANCH   1  10
TORSDOF 2
ENDMDL
MODEL 7
REMARK VINA RESULT:    -4.962     12.957     15.193
REMARK INTER + INTRA:          -5.666
REMARK INTER:                  -5.531
REMARK INTRA:                  -0.135
REMARK UNBOUND:                -0.124
REMARK  Name = 1550473
REMARK  2 active torsions:
REMARK  status: ('A' for Active; 'I' for Inactive)
REMARK    1  A    between atoms: N_1  and  C_4
REMARK    2  A    between atoms: C_4  and  C_5
REMARK                            x       y       z     vdW  Elec       q    Type
REMARK                         _______ _______ _______ _____ _____    ______ ____
ROOT
ATOM      1  N   UNL     1      12.535  -0.021  10.049  0.00  0.00    -0.354 N 
ATOM      2  N   UNL     1      13.565  -0.742   8.104  0.00  0.00    -0.372 N 
ATOM      3  N   UNL     1      14.364  -1.484  10.123  0.00  0.00    -0.372 N 
ATOM      4  C   UNL     1      13.483  -0.746   9.440  0.00  0.00    +0.166 C 
ATOM      5  H   UNL     1      11.916   0.541   9.477  0.00  0.00    +0.163 HD
ATOM      6  H   UNL     1      14.267  -1.281   7.616  0.00  0.00    +0.159 HD
ATOM      7  H   UNL     1      12.916  -0.215   7.532  0.00  0.00    +0.159 HD
ATOM      8  H   UNL     1      14.360  -1.525  11.133  0.00  0.00    +0.159 HD
ATOM      9  H   UNL     1      15.082  -2.022   9.653  0.00  0.00    +0.159 HD
ENDROOT
BRANCH   1  10
ATOM     10  C   UNL     1      12.326   0.001  11.496  0.00  0.00    +0.151 C 
BRANCH  10  11
ATOM     11  C   UNL     1      11.437  -1.149  11.882  0.00  0.00    -0.028 A 
ATOM     12  C   UNL     1      11.812  -2.026  12.910  0.00  0.00    +0.005 A 
ATOM     13  C   UNL     1      10.214  -1.363  11.227  0.00  0.00    +0.005 A 
ATOM     14  C   UNL     1      10.972  -3.076  13.289  0.00  0.00    +0.000 A 
ATOM     15  C   UNL     1       9.379  -2.413  11.608  0.00  0.00    +0.000 A 
ATOM     16  C   UNL     1       9.757  -3.267  12.641  0.00  0.00    +0.000 A 
ENDBRANCH  10  11
ENDBRANCH   1  10
TORSDOF 2
ENDMDL
MODEL 8
REMARK VINA RESULT:    -4.816     14.165     15.623
REMARK INTER + INTRA:          -5.503
REMARK INTER:                  -5.340
REMARK INTRA:                  -0.163
REMARK UNBOUND:                -0.124
REMARK  Name = 1550473
REMARK  2 active torsions:
REMARK  status: ('A' for Active; 'I' for Inactive)
REMARK    1  A    between atoms: N_1  and  C_4
REMARK    2  A    between atoms: C_4  and  C_5
REMARK                            x       y       z     vdW  Elec       q    Type
REMARK                         _______ _______ _______ _____ _____    ______ ____
ROOT
ATOM      1  N   UNL     1       0.638  -0.795 -13.124  0.00  0.00    -0.354 N 
ATOM      2  N   UNL     1       2.447  -1.896 -12.185  0.00  0.00    -0.372 N 
ATOM      3  N   UNL     1       1.576  -0.070 -11.102  0.00  0.00    -0.372 N 
ATOM      4  C   UNL     1       1.541  -0.911 -12.141  0.00  0.00    +0.166 C 
ATOM      5  H   UNL     1       0.684  -1.447 -13.899  0.00  0.00    +0.163 HD
ATOM      6  H   UNL     1       3.138  -2.011 -11.456  0.00  0.00    +0.159 HD
ATOM      7  H   UNL     1       2.462  -2.573 -12.937  0.00  0.00    +0.159 HD
ATOM      8  H   UNL     1       0.924   0.698 -11.013  0.00  0.00    +0.159 HD
ATOM      9  H   UNL     1       2.268  -0.161 -10.369  0.00  0.00    +0.159 HD
ENDROOT
BRANCH   1  10
ATOM     10  C   UNL     1      -0.424   0.209 -13.144  0.00  0.00    +0.151 C 
BRANCH  10  11
ATOM     11  C   UNL     1      -1.741  -0.464 -12.873  0.00  0.00    -0.028 A 
ATOM     12  C   UNL     1      -2.106  -0.814 -11.564  0.00  0.00    +0.005 A 
ATOM     13  C   UNL     1      -2.632  -0.748 -13.919  0.00  0.00    +0.005 A 
ATOM     14  C   UNL     1      -3.342  -1.411 -11.308  0.00  0.00    +0.000 A 
ATOM     15  C   UNL     1      -3.865  -1.346 -13.659  0.00  0.00    +0.000 A 
ATOM     16  C   UNL     1      -4.221  -1.675 -12.354  0.00  0.00    +0.000 A 
ENDBRANCH  10  11
ENDBRANCH   1  10
TORSDOF 2
ENDMDL
MODEL 9
REMARK VINA RESULT:    -4.701      9.419     10.856
REMARK INTER + INTRA:          -5.374
REMARK INTER:                  -5.267
REMARK INTRA:                  -0.107
REMARK UNBOUND:                -0.124
REMARK  Name = 1550473
REMARK  2 active torsions:
REMARK  status: ('A' for Active; 'I' for Inactive)
REMARK    1  A    between atoms: N_1  and  C_4
REMARK    2  A    between atoms: C_4  and  C_5
REMARK                            x       y       z     vdW  Elec       q    Type
REMARK                         _______ _______ _______ _____ _____    ______ ____
ROOT
ATOM      1  N   UNL     1       7.209  11.076  -0.064  0.00  0.00    -0.354 N 
ATOM      2  N   UNL     1       8.716  12.783   0.358  0.00  0.00    -0.372 N 
ATOM      3  N   UNL     1       9.431  10.608   0.514  0.00  0.00    -0.372 N 
ATOM      4  C   UNL     1       8.444  11.476   0.267  0.00  0.00    +0.166 C 
ATOM      5  H   UNL     1       6.497  11.783  -0.209  0.00  0.00    +0.163 HD
ATOM      6  H   UNL     1       9.640  13.114   0.603  0.00  0.00    +0.159 HD
ATOM      7  H   UNL     1       8.015  13.488   0.168  0.00  0.00    +0.159 HD
ATOM      8  H   UNL     1       9.289   9.608   0.469  0.00  0.00    +0.159 HD
ATOM      9  H   UNL     1      10.359  10.920   0.772  0.00  0.00    +0.159 HD
ENDROOT
BRANCH   1  10
ATOM     10  C   UNL     1       6.822   9.678  -0.242  0.00  0.00    +0.151 C 
BRANCH  10  11
ATOM     11  C   UNL     1       6.458   9.095   1.096  0.00  0.00    -0.028 A 
ATOM     12  C   UNL     1       7.164   7.996   1.609  0.00  0.00    +0.005 A 
ATOM     13  C   UNL     1       5.413   9.639   1.857  0.00  0.00    +0.005 A 
ATOM     14  C   UNL     1       6.846   7.473   2.864  0.00  0.00    +0.000 A 
ATOM     15  C   UNL     1       5.099   9.113   3.110  0.00  0.00    +0.000 A 
ATOM     16  C   UNL     1       5.817   8.032   3.615  0.00  0.00    +0.000 A 
ENDBRANCH  10  11
ENDBRANCH   1  10
TORSDOF 2
ENDMDL
