MODEL 1
REMARK VINA RESULT:    -5.683      0.000      0.000
REMARK INTER + INTRA:          -6.482
REMARK INTER:                  -6.347
REMARK INTRA:                  -0.134
REMARK UNBOUND:                -0.134
REMARK  Name = 1550473
REMARK  2 active torsions:
REMARK  status: ('A' for Active; 'I' for Inactive)
REMARK    1  A    between atoms: N_1  and  C_4
REMARK    2  A    between atoms: C_4  and  C_5
REMARK                            x       y       z     vdW  Elec       q    Type
REMARK                         _______ _______ _______ _____ _____    ______ ____
ROOT
ATOM      1  N   UNL     1     -13.723   6.822 -13.751  0.00  0.00    -0.354 N 
ATOM      2  N   UNL     1     -16.036   6.766 -13.653  0.00  0.00    -0.372 N 
ATOM      3  N   UNL     1     -14.962   8.775 -13.377  0.00  0.00    -0.372 N 
ATOM      4  C   UNL     1     -14.892   7.458 -13.594  0.00  0.00    +0.166 C 
ATOM      5  H   UNL     1     -13.735   5.817 -13.882  0.00  0.00    +0.163 HD
ATOM      6  H   UNL     1     -16.933   7.219 -13.542  0.00  0.00    +0.159 HD
ATOM      7  H   UNL     1     -16.048   5.769 -13.830  0.00  0.00    +0.159 HD
ATOM      8  H   UNL     1     -14.135   9.353 -13.315  0.00  0.00    +0.159 HD
ATOM      9  H   UNL     1     -15.851   9.245 -13.251  0.00  0.00    +0.159 HD
ENDROOT
BRANCH   1  10
ATOM     10  C   UNL     1     -12.423   7.491 -13.757  0.00  0.00    +0.151 C 
BRANCH  10  11
ATOM     11  C   UNL     1     -11.522   6.804 -14.747  0.00  0.00    -0.028 A 
ATOM     12  C   UNL     1     -11.983   5.704 -15.485  0.00  0.00    +0.005 A 
ATOM     13  C   UNL     1     -10.209   7.253 -14.955  0.00  0.00    +0.005 A 
ATOM     14  C   UNL     1     -11.156   5.085 -16.426  0.00  0.00    +0.000 A 
ATOM     15  C   UNL     1      -9.387   6.631 -15.895  0.00  0.00    +0.000 A 
ATOM     16  C   UNL     1      -9.862   5.549 -16.631  0.00  0.00    +0.000 A 
ENDBRANCH  10  11
ENDBRANCH   1  10
TORSDOF 2
ENDMDL
MODEL 2
REMARK VINA RESULT:    -5.521     28.052     28.604
REMARK INTER + INTRA:          -6.301
REMARK INTER:                  -6.204
REMARK INTRA:                  -0.097
REMARK UNBOUND:                -0.134
REMARK  Name = 1550473
REMARK  2 active torsions:
REMARK  status: ('A' for Active; 'I' for Inactive)
REMARK    1  A    between atoms: N_1  and  C_4
REMARK    2  A    between atoms: C_4  and  C_5
REMARK                            x       y       z     vdW  Elec       q    Type
REMARK                         _______ _______ _______ _____ _____    ______ ____
ROOT
ATOM      1  N   UNL     1      -9.912  -3.709  11.927  0.00  0.00    -0.354 N 
ATOM      2  N   UNL     1      -9.816  -2.461  13.876  0.00  0.00    -0.372 N 
ATOM      3  N   UNL     1     -11.861  -3.162  13.107  0.00  0.00    -0.372 N 
ATOM      4  C   UNL     1     -10.533  -3.119  12.957  0.00  0.00    +0.166 C 
ATOM      5  H   UNL     1      -8.906  -3.614  11.854  0.00  0.00    +0.163 HD
ATOM      6  H   UNL     1     -10.257  -2.009  14.666  0.00  0.00    +0.159 HD
ATOM      7  H   UNL     1      -8.806  -2.407  13.825  0.00  0.00    +0.159 HD
ATOM      8  H   UNL     1     -12.460  -3.637  12.445  0.00  0.00    +0.159 HD
ATOM      9  H   UNL     1     -12.322  -2.705  13.885  0.00  0.00    +0.159 HD
ENDROOT
BRANCH   1  10
ATOM     10  C   UNL     1     -10.596  -4.496  10.902  0.00  0.00    +0.151 C 
BRANCH  10  11
ATOM     11  C   UNL     1      -9.640  -5.517  10.348  0.00  0.00    -0.028 A 
ATOM     12  C   UNL     1      -9.787  -6.875  10.667  0.00  0.00    +0.005 A 
ATOM     13  C   UNL     1      -8.591  -5.134   9.500  0.00  0.00    +0.005 A 
ATOM     14  C   UNL     1      -8.918  -7.827  10.129  0.00  0.00    +0.000 A 
ATOM     15  C   UNL     1      -7.725  -6.088   8.965  0.00  0.00    +0.000 A 
ATOM     16  C   UNL     1      -7.890  -7.435   9.278  0.00  0.00    +0.000 A 
ENDBRANCH  10  11
ENDBRANCH   1  10
TORSDOF 2
ENDMDL
MODEL 3
REMARK VINA RESULT:    -5.204     14.405     16.143
REMARK INTER + INTRA:          -5.947
REMARK INTER:                  -5.808
REMARK INTRA:                  -0.139
REMARK UNBOUND:                -0.134
REMARK  Name = 1550473
REMARK  2 active torsions:
REMARK  status: ('A' for Active; 'I' for Inactive)
REMARK    1  A    between atoms: N_1  and  C_4
REMARK    2  A    between atoms: C_4  and  C_5
REMARK                            x       y       z     vdW  Elec       q    Type
REMARK                         _______ _______ _______ _____ _____    ______ ____
ROOT
ATOM      1  N   UNL     1      -1.578  -2.851 -17.043  0.00  0.00    -0.354 N 
ATOM      2  N   UNL     1      -3.202  -1.247 -17.433  0.00  0.00    -0.372 N 
ATOM      3  N   UNL     1      -2.369  -2.436 -19.209  0.00  0.00    -0.372 N 
ATOM      4  C   UNL     1      -2.372  -2.189 -17.895  0.00  0.00    +0.166 C 
ATOM      5  H   UNL     1      -1.606  -2.596 -16.062  0.00  0.00    +0.163 HD
ATOM      6  H   UNL     1      -3.816  -0.733 -18.051  0.00  0.00    +0.159 HD
ATOM      7  H   UNL     1      -3.261  -1.026 -16.446  0.00  0.00    +0.159 HD
ATOM      8  H   UNL     1      -1.761  -3.130 -19.623  0.00  0.00    +0.159 HD
ATOM      9  H   UNL     1      -2.967  -1.924 -19.846  0.00  0.00    +0.159 HD
ENDROOT
BRANCH   1  10
ATOM     10  C   UNL     1      -0.676  -3.932 -17.437  0.00  0.00    +0.151 C 
BRANCH  10  11
ATOM     11  C   UNL     1      -0.914  -5.119 -16.546  0.00  0.00    -0.028 A 
ATOM     12  C   UNL     1       0.085  -5.560 -15.666  0.00  0.00    +0.005 A 
ATOM     13  C   UNL     1      -2.139  -5.804 -16.571  0.00  0.00    +0.005 A 
ATOM     14  C   UNL     1      -0.146  -6.645 -14.816  0.00  0.00    +0.000 A 
ATOM     15  C   UNL     1      -2.365  -6.887 -15.722  0.00  0.00    +0.000 A 
ATOM     16  C   UNL     1      -1.369  -7.305 -14.843  0.00  0.00    +0.000 A 
ENDBRANCH  10  11
ENDBRANCH   1  10
TORSDOF 2
ENDMDL
MODEL 4
REMARK VINA RESULT:    -5.168      1.707      2.546
REMARK INTER + INTRA:          -5.907
REMARK INTER:                  -5.762
REMARK INTRA:                  -0.144
REMARK UNBOUND:                -0.134
REMARK  Name = 1550473
REMARK  2 active torsions:
REMARK  status: ('A' for Active; 'I' for Inactive)
REMARK    1  A    between atoms: N_1  and  C_4
REMARK    2  A    between atoms: C_4  and  C_5
REMARK                            x       y       z     vdW  Elec       q    Type
REMARK                         _______ _______ _______ _____ _____    ______ ____
ROOT
ATOM      1  N   UNL     1     -12.722   8.681 -14.658  0.00  0.00    -0.354 N 
ATOM      2  N   UNL     1     -13.746   8.866 -12.589  0.00  0.00    -0.372 N 
ATOM      3  N   UNL     1     -14.008   6.927 -13.787  0.00  0.00    -0.372 N 
ATOM      4  C   UNL     1     -13.486   8.154 -13.692  0.00  0.00    +0.166 C 
ATOM      5  H   UNL     1     -12.381   9.629 -14.539  0.00  0.00    +0.163 HD
ATOM      6  H   UNL     1     -14.316   8.493 -11.842  0.00  0.00    +0.159 HD
ATOM      7  H   UNL     1     -13.366   9.795 -12.452  0.00  0.00    +0.159 HD
ATOM      8  H   UNL     1     -13.855   6.341 -14.597  0.00  0.00    +0.159 HD
ATOM      9  H   UNL     1     -14.592   6.541 -13.055  0.00  0.00    +0.159 HD
ENDROOT
BRANCH   1  10
ATOM     10  C   UNL     1     -12.335   7.969 -15.875  0.00  0.00    +0.151 C 
BRANCH  10  11
ATOM     11  C   UNL     1     -10.836   7.983 -15.997  0.00  0.00    -0.028 A 
ATOM     12  C   UNL     1     -10.045   7.204 -15.140  0.00  0.00    +0.005 A 
ATOM     13  C   UNL     1     -10.201   8.769 -16.971  0.00  0.00    +0.005 A 
ATOM     14  C   UNL     1      -8.655   7.193 -15.273  0.00  0.00    +0.000 A 
ATOM     15  C   UNL     1      -8.813   8.756 -17.100  0.00  0.00    +0.000 A 
ATOM     16  C   UNL     1      -8.040   7.966 -16.252  0.00  0.00    +0.000 A 
ENDBRANCH  10  11
ENDBRANCH   1  10
TORSDOF 2
ENDMDL
MODEL 5
REMARK VINA RESULT:    -5.101     15.063     16.214
REMARK INTER + INTRA:          -5.832
REMARK INTER:                  -5.681
REMARK INTRA:                  -0.151
REMARK UNBOUND:                -0.134
REMARK  Name = 1550473
REMARK  2 active torsions:
REMARK  status: ('A' for Active; 'I' for Inactive)
REMARK    1  A    between atoms: N_1  and  C_4
REMARK    2  A    between atoms: C_4  and  C_5
REMARK                            x       y       z     vdW  Elec       q    Type
REMARK                         _______ _______ _______ _____ _____    ______ ____
ROOT
ATOM      1  N   UNL     1      -0.519  -5.615 -15.082  0.00  0.00    -0.354 N 
ATOM      2  N   UNL     1      -0.432  -5.691 -12.769  0.00  0.00    -0.372 N 
ATOM      3  N   UNL     1      -2.097  -6.838 -13.854  0.00  0.00    -0.372 N 
ATOM      4  C   UNL     1      -1.019  -6.049 -13.918  0.00  0.00    +0.166 C 
ATOM      5  H   UNL     1       0.282  -4.995 -15.061  0.00  0.00    +0.163 HD
ATOM      6  H   UNL     1      -0.784  -6.006 -11.875  0.00  0.00    +0.159 HD
ATOM      7  H   UNL     1       0.396  -5.108 -12.753  0.00  0.00    +0.159 HD
ATOM      8  H   UNL     1      -2.590  -7.139 -14.685  0.00  0.00    +0.159 HD
ATOM      9  H   UNL     1      -2.472  -7.154 -12.968  0.00  0.00    +0.159 HD
ENDROOT
BRANCH   1  10
ATOM     10  C   UNL     1      -1.051  -5.991 -16.391  0.00  0.00    +0.151 C 
BRANCH  10  11
ATOM     11  C   UNL     1      -1.570  -4.760 -17.082  0.00  0.00    -0.028 A 
ATOM     12  C   UNL     1      -2.563  -4.862 -18.067  0.00  0.00    +0.005 A 
ATOM     13  C   UNL     1      -1.076  -3.489 -16.752  0.00  0.00    +0.005 A 
ATOM     14  C   UNL     1      -3.066  -3.716 -18.688  0.00  0.00    +0.000 A 
ATOM     15  C   UNL     1      -1.580  -2.347 -17.375  0.00  0.00    +0.000 A 
ATOM     16  C   UNL     1      -2.577  -2.461 -18.341  0.00  0.00    +0.000 A 
ENDBRANCH  10  11
ENDBRANCH   1  10
TORSDOF 2
ENDMDL
MODEL 6
REMARK VINA RESULT:    -5.082     19.639     21.181
REMARK INTER + INTRA:          -5.810
REMARK INTER:                  -5.682
REMARK INTRA:                  -0.129
REMARK UNBOUND:                -0.134
REMARK  Name = 1550473
REMARK  2 active torsions:
REMARK  status: ('A' for Active; 'I' for Inactive)
REMARK    1  A    between atoms: N_1  and  C_4
REMARK    2  A    between atoms: C_4  and  C_5
REMARK                            x       y       z     vdW  Elec       q    Type
REMARK                         _______ _______ _______ _____ _____    ______ ____
ROOT
ATOM      1  N   UNL     1       1.856  -7.345 -14.112  0.00  0.00    -0.354 N 
ATOM      2  N   UNL     1      -0.260  -7.717 -13.248  0.00  0.00    -0.372 N 
ATOM      3  N   UNL     1       0.156  -5.749 -14.353  0.00  0.00    -0.372 N 
ATOM      4  C   UNL     1       0.598  -6.932 -13.911  0.00  0.00    +0.166 C 
ATOM      5  H   UNL     1       2.137  -8.238 -13.725  0.00  0.00    +0.163 HD
ATOM      6  H   UNL     1      -1.217  -7.434 -13.084  0.00  0.00    +0.159 HD
ATOM      7  H   UNL     1       0.011  -8.630 -12.903  0.00  0.00    +0.159 HD
ATOM      8  H   UNL     1       0.756  -5.108 -14.855  0.00  0.00    +0.159 HD
ATOM      9  H   UNL     1      -0.794  -5.443 -14.188  0.00  0.00    +0.159 HD
ENDROOT
BRANCH   1  10
ATOM     10  C   UNL     1       2.854  -6.589 -14.868  0.00  0.00    +0.151 C 
BRANCH  10  11
ATOM     11  C   UNL     1       4.227  -6.985 -14.401  0.00  0.00    -0.028 A 
ATOM     12  C   UNL     1       5.366  -6.573 -15.109  0.00  0.00    +0.005 A 
ATOM     13  C   UNL     1       4.397  -7.768 -13.249  0.00  0.00    +0.005 A 
ATOM     14  C   UNL     1       6.643  -6.916 -14.659  0.00  0.00    +0.000 A 
ATOM     15  C   UNL     1       5.674  -8.109 -12.804  0.00  0.00    +0.000 A 
ATOM     16  C   UNL     1       6.797  -7.680 -13.508  0.00  0.00    +0.000 A 
ENDBRANCH  10  11
ENDBRANCH   1  10
TORSDOF 2
ENDMDL
MODEL 7
REMARK VINA RESULT:    -4.755     27.608     28.089
REMARK INTER + INTRA:          -5.445
REMARK INTER:                  -5.320
REMARK INTRA:                  -0.125
REMARK UNBOUND:                -0.134
REMARK  Name = 1550473
REMARK  2 active torsions:
REMARK  status: ('A' for Active; 'I' for Inactive)
REMARK    1  A    between atoms: N_1  and  C_4
REMARK    2  A    between atoms: C_4  and  C_5
REMARK                            x       y       z     vdW  Elec       q    Type
REMARK                         _______ _______ _______ _____ _____    ______ ____
ROOT
ATOM      1  N   UNL     1      -9.891  -4.882  11.270  0.00  0.00    -0.354 N 
ATOM      2  N   UNL     1     -11.634  -4.450  12.733  0.00  0.00    -0.372 N 
ATOM      3  N   UNL     1     -10.759  -2.718  11.508  0.00  0.00    -0.372 N 
ATOM      4  C   UNL     1     -10.749  -4.017  11.826  0.00  0.00    +0.166 C 
ATOM      5  H   UNL     1      -9.914  -5.848  11.576  0.00  0.00    +0.163 HD
ATOM      6  H   UNL     1     -12.296  -3.821  13.168  0.00  0.00    +0.159 HD
ATOM      7  H   UNL     1     -11.685  -5.425  13.004  0.00  0.00    +0.159 HD
ATOM      8  H   UNL     1     -10.113  -2.327  10.835  0.00  0.00    +0.159 HD
ATOM      9  H   UNL     1     -11.406  -2.071  11.940  0.00  0.00    +0.159 HD
ENDROOT
BRANCH   1  10
ATOM     10  C   UNL     1      -8.925  -4.523  10.234  0.00  0.00    +0.151 C 
BRANCH  10  11
ATOM     11  C   UNL     1      -8.358  -5.780   9.633  0.00  0.00    -0.028 A 
ATOM     12  C   UNL     1      -8.787  -7.038  10.080  0.00  0.00    +0.005 A 
ATOM     13  C   UNL     1      -7.396  -5.719   8.614  0.00  0.00    +0.005 A 
ATOM     14  C   UNL     1      -8.283  -8.206   9.502  0.00  0.00    +0.000 A 
ATOM     15  C   UNL     1      -6.894  -6.887   8.040  0.00  0.00    +0.000 A 
ATOM     16  C   UNL     1      -7.340  -8.130   8.483  0.00  0.00    +0.000 A 
ENDBRANCH  10  11
ENDBRANCH   1  10
TORSDOF 2
ENDMDL
MODEL 8
REMARK VINA RESULT:    -4.752     15.074     16.235
REMARK INTER + INTRA:          -5.442
REMARK INTER:                  -5.320
REMARK INTRA:                  -0.122
REMARK UNBOUND:                -0.134
REMARK  Name = 1550473
REMARK  2 active torsions:
REMARK  status: ('A' for Active; 'I' for Inactive)
REMARK    1  A    between atoms: N_1  and  C_4
REMARK    2  A    between atoms: C_4  and  C_5
REMARK                            x       y       z     vdW  Elec       q    Type
REMARK                         _______ _______ _______ _____ _____    ______ ____
ROOT
ATOM      1  N   UNL     1      -0.866  -5.404 -15.144  0.00  0.00    -0.354 N 
ATOM      2  N   UNL     1      -0.609  -6.653 -13.210  0.00  0.00    -0.372 N 
ATOM      3  N   UNL     1      -2.723  -6.304 -14.032  0.00  0.00    -0.372 N 
ATOM      4  C   UNL     1      -1.404  -6.112 -14.141  0.00  0.00    +0.166 C 
ATOM      5  H   UNL     1       0.138  -5.270 -15.153  0.00  0.00    +0.163 HD
ATOM      6  H   UNL     1      -0.985  -7.195 -12.444  0.00  0.00    +0.159 HD
ATOM      7  H   UNL     1       0.399  -6.555 -13.248  0.00  0.00    +0.159 HD
ATOM      8  H   UNL     1      -3.377  -5.918 -14.699  0.00  0.00    +0.159 HD
ATOM      9  H   UNL     1      -3.119  -6.834 -13.266  0.00  0.00    +0.159 HD
ENDROOT
BRANCH   1  10
ATOM     10  C   UNL     1      -1.639  -4.819 -16.238  0.00  0.00    +0.151 C 
BRANCH  10  11
ATOM     11  C   UNL     1      -0.916  -3.607 -16.757  0.00  0.00    -0.028 A 
ATOM     12  C   UNL     1       0.476  -3.499 -16.626  0.00  0.00    +0.005 A 
ATOM     13  C   UNL     1      -1.617  -2.567 -17.386  0.00  0.00    +0.005 A 
ATOM     14  C   UNL     1       1.152  -2.387 -17.135  0.00  0.00    +0.000 A 
ATOM     15  C   UNL     1      -0.939  -1.458 -17.892  0.00  0.00    +0.000 A 
ATOM     16  C   UNL     1       0.446  -1.370 -17.769  0.00  0.00    +0.000 A 
ENDBRANCH  10  11
ENDBRANCH   1  10
TORSDOF 2
ENDMDL
MODEL 9
REMARK VINA RESULT:    -4.523     19.065     20.647
REMARK INTER + INTRA:          -5.186
REMARK INTER:                  -5.043
REMARK INTRA:                  -0.142
REMARK UNBOUND:                -0.134
REMARK  Name = 1550473
REMARK  2 active torsions:
REMARK  status: ('A' for Active; 'I' for Inactive)
REMARK    1  A    between atoms: N_1  and  C_4
REMARK    2  A    between atoms: C_4  and  C_5
REMARK                            x       y       z     vdW  Elec       q    Type
REMARK                         _______ _______ _______ _____ _____    ______ ____
ROOT
ATOM      1  N   UNL     1       1.961  -6.156 -15.870  0.00  0.00    -0.354 N 
ATOM      2  N   UNL     1      -0.309  -5.745 -15.657  0.00  0.00    -0.372 N 
ATOM      3  N   UNL     1       1.130  -3.965 -15.825  0.00  0.00    -0.372 N 
ATOM      4  C   UNL     1       0.943  -5.289 -15.785  0.00  0.00    +0.166 C 
ATOM      5  H   UNL     1       1.755  -7.147 -15.803  0.00  0.00    +0.163 HD
ATOM      6  H   UNL     1      -1.097  -5.114 -15.594  0.00  0.00    +0.159 HD
ATOM      7  H   UNL     1      -0.515  -6.736 -15.636  0.00  0.00    +0.159 HD
ATOM      8  H   UNL     1       2.051  -3.557 -15.915  0.00  0.00    +0.159 HD
ATOM      9  H   UNL     1       0.356  -3.318 -15.752  0.00  0.00    +0.159 HD
ENDROOT
BRANCH   1  10
ATOM     10  C   UNL     1       3.355  -5.765 -16.065  0.00  0.00    +0.151 C 
BRANCH  10  11
ATOM     11  C   UNL     1       4.218  -6.518 -15.090  0.00  0.00    -0.028 A 
ATOM     12  C   UNL     1       3.638  -7.265 -14.056  0.00  0.00    +0.005 A 
ATOM     13  C   UNL     1       5.617  -6.492 -15.200  0.00  0.00    +0.005 A 
ATOM     14  C   UNL     1       4.438  -7.989 -13.168  0.00  0.00    +0.000 A 
ATOM     15  C   UNL     1       6.412  -7.215 -14.311  0.00  0.00    +0.000 A 
ATOM     16  C   UNL     1       5.822  -7.966 -13.297  0.00  0.00    +0.000 A 
ENDBRANCH  10  11
ENDBRANCH   1  10
TORSDOF 2
ENDMDL
