MODEL 1
REMARK VINA RESULT:    -4.958      0.000      0.000
REMARK INTER + INTRA:          -5.657
REMARK INTER:                  -5.537
REMARK INTRA:                  -0.120
REMARK UNBOUND:                -0.120
REMARK  Name = 1550473
REMARK  2 active torsions:
REMARK  status: ('A' for Active; 'I' for Inactive)
REMARK    1  A    between atoms: N_1  and  C_4
REMARK    2  A    between atoms: C_4  and  C_5
REMARK                            x       y       z     vdW  Elec       q    Type
REMARK                         _______ _______ _______ _____ _____    ______ ____
ROOT
ATOM      1  N   UNL     1      -1.776   7.458  16.392  0.00  0.00    -0.354 N 
ATOM      2  N   UNL     1      -0.052   8.672  15.435  0.00  0.00    -0.372 N 
ATOM      3  N   UNL     1       0.294   7.673  17.471  0.00  0.00    -0.372 N 
ATOM      4  C   UNL     1      -0.522   7.926  16.441  0.00  0.00    +0.166 C 
ATOM      5  H   UNL     1      -2.353   7.710  15.598  0.00  0.00    +0.163 HD
ATOM      6  H   UNL     1       0.891   9.037  15.442  0.00  0.00    +0.159 HD
ATOM      7  H   UNL     1      -0.616   8.885  14.621  0.00  0.00    +0.159 HD
ATOM      8  H   UNL     1      -0.002   7.121  18.265  0.00  0.00    +0.159 HD
ATOM      9  H   UNL     1       1.237   8.038  17.502  0.00  0.00    +0.159 HD
ENDROOT
BRANCH   1  10
ATOM     10  C   UNL     1      -2.366   6.591  17.411  0.00  0.00    +0.151 C 
BRANCH  10  11
ATOM     11  C   UNL     1      -3.825   6.396  17.105  0.00  0.00    -0.028 A 
ATOM     12  C   UNL     1      -4.508   5.269  17.585  0.00  0.00    +0.005 A 
ATOM     13  C   UNL     1      -4.531   7.337  16.341  0.00  0.00    +0.005 A 
ATOM     14  C   UNL     1      -5.871   5.102  17.326  0.00  0.00    +0.000 A 
ATOM     15  C   UNL     1      -5.892   7.166  16.083  0.00  0.00    +0.000 A 
ATOM     16  C   UNL     1      -6.561   6.050  16.578  0.00  0.00    +0.000 A 
ENDBRANCH  10  11
ENDBRANCH   1  10
TORSDOF 2
ENDMDL
MODEL 2
REMARK VINA RESULT:    -4.781      3.881      5.664
REMARK INTER + INTRA:          -5.460
REMARK INTER:                  -5.329
REMARK INTRA:                  -0.130
REMARK UNBOUND:                -0.120
REMARK  Name = 1550473
REMARK  2 active torsions:
REMARK  status: ('A' for Active; 'I' for Inactive)
REMARK    1  A    between atoms: N_1  and  C_4
REMARK    2  A    between atoms: C_4  and  C_5
REMARK                            x       y       z     vdW  Elec       q    Type
REMARK                         _______ _______ _______ _____ _____    ______ ____
ROOT
ATOM      1  N   UNL     1       0.026   8.064  16.183  0.00  0.00    -0.354 N 
ATOM      2  N   UNL     1      -0.443   9.541  14.461  0.00  0.00    -0.372 N 
ATOM      3  N   UNL     1      -2.180   8.689  15.696  0.00  0.00    -0.372 N 
ATOM      4  C   UNL     1      -0.865   8.754  15.458  0.00  0.00    +0.166 C 
ATOM      5  H   UNL     1       1.006   8.133  15.933  0.00  0.00    +0.163 HD
ATOM      6  H   UNL     1      -1.091  10.076  13.900  0.00  0.00    +0.159 HD
ATOM      7  H   UNL     1       0.541   9.643  14.244  0.00  0.00    +0.159 HD
ATOM      8  H   UNL     1      -2.563   8.109  16.430  0.00  0.00    +0.159 HD
ATOM      9  H   UNL     1      -2.845   9.208  15.137  0.00  0.00    +0.159 HD
ENDROOT
BRANCH   1  10
ATOM     10  C   UNL     1      -0.326   7.221  17.324  0.00  0.00    +0.151 C 
BRANCH  10  11
ATOM     11  C   UNL     1       0.693   6.122  17.455  0.00  0.00    -0.028 A 
ATOM     12  C   UNL     1       1.516   5.782  16.372  0.00  0.00    +0.005 A 
ATOM     13  C   UNL     1       0.842   5.421  18.662  0.00  0.00    +0.005 A 
ATOM     14  C   UNL     1       2.483   4.782  16.503  0.00  0.00    +0.000 A 
ATOM     15  C   UNL     1       1.808   4.423  18.788  0.00  0.00    +0.000 A 
ATOM     16  C   UNL     1       2.630   4.105  17.709  0.00  0.00    +0.000 A 
ENDBRANCH  10  11
ENDBRANCH   1  10
TORSDOF 2
ENDMDL
MODEL 3
REMARK VINA RESULT:    -4.718     24.469     25.341
REMARK INTER + INTRA:          -5.389
REMARK INTER:                  -5.211
REMARK INTRA:                  -0.179
REMARK UNBOUND:                -0.120
REMARK  Name = 1550473
REMARK  2 active torsions:
REMARK  status: ('A' for Active; 'I' for Inactive)
REMARK    1  A    between atoms: N_1  and  C_4
REMARK    2  A    between atoms: C_4  and  C_5
REMARK                            x       y       z     vdW  Elec       q    Type
REMARK                         _______ _______ _______ _____ _____    ______ ____
ROOT
ATOM      1  N   UNL     1      -4.161  11.696  -7.515  0.00  0.00    -0.354 N 
ATOM      2  N   UNL     1      -4.852  12.037  -5.331  0.00  0.00    -0.372 N 
ATOM      3  N   UNL     1      -2.629  12.283  -5.841  0.00  0.00    -0.372 N 
ATOM      4  C   UNL     1      -3.873  12.003  -6.243  0.00  0.00    +0.166 C 
ATOM      5  H   UNL     1      -5.119  11.465  -7.749  0.00  0.00    +0.163 HD
ATOM      6  H   UNL     1      -4.666  12.269  -4.365  0.00  0.00    +0.159 HD
ATOM      7  H   UNL     1      -5.817  11.850  -5.577  0.00  0.00    +0.159 HD
ATOM      8  H   UNL     1      -1.844  12.269  -6.479  0.00  0.00    +0.159 HD
ATOM      9  H   UNL     1      -2.421  12.506  -4.876  0.00  0.00    +0.159 HD
ENDROOT
BRANCH   1  10
ATOM     10  C   UNL     1      -3.177  11.684  -8.596  0.00  0.00    +0.151 C 
BRANCH  10  11
ATOM     11  C   UNL     1      -2.829  10.260  -8.928  0.00  0.00    -0.028 A 
ATOM     12  C   UNL     1      -1.553   9.753  -8.641  0.00  0.00    +0.005 A 
ATOM     13  C   UNL     1      -3.773   9.410  -9.525  0.00  0.00    +0.005 A 
ATOM     14  C   UNL     1      -1.239   8.421  -8.922  0.00  0.00    +0.000 A 
ATOM     15  C   UNL     1      -3.455   8.081  -9.805  0.00  0.00    +0.000 A 
ATOM     16  C   UNL     1      -2.189   7.586  -9.501  0.00  0.00    +0.000 A 
ENDBRANCH  10  11
ENDBRANCH   1  10
TORSDOF 2
ENDMDL
MODEL 4
REMARK VINA RESULT:    -4.709      2.631      3.876
REMARK INTER + INTRA:          -5.379
REMARK INTER:                  -5.210
REMARK INTRA:                  -0.168
REMARK UNBOUND:                -0.120
REMARK  Name = 1550473
REMARK  2 active torsions:
REMARK  status: ('A' for Active; 'I' for Inactive)
REMARK    1  A    between atoms: N_1  and  C_4
REMARK    2  A    between atoms: C_4  and  C_5
REMARK                            x       y       z     vdW  Elec       q    Type
REMARK                         _______ _______ _______ _____ _____    ______ ____
ROOT
ATOM      1  N   UNL     1       0.042   5.589  16.895  0.00  0.00    -0.354 N 
ATOM      2  N   UNL     1       1.638   4.177  15.987  0.00  0.00    -0.372 N 
ATOM      3  N   UNL     1       2.286   6.246  16.736  0.00  0.00    -0.372 N 
ATOM      4  C   UNL     1       1.313   5.349  16.546  0.00  0.00    +0.166 C 
ATOM      5  H   UNL     1      -0.654   4.879  16.696  0.00  0.00    +0.163 HD
ATOM      6  H   UNL     1       2.589   3.966  15.716  0.00  0.00    +0.159 HD
ATOM      7  H   UNL     1       0.948   3.451  15.832  0.00  0.00    +0.159 HD
ATOM      8  H   UNL     1       2.105   7.153  17.147  0.00  0.00    +0.159 HD
ATOM      9  H   UNL     1       3.242   6.059  16.461  0.00  0.00    +0.159 HD
ENDROOT
BRANCH   1  10
ATOM     10  C   UNL     1      -0.407   6.811  17.559  0.00  0.00    +0.151 C 
BRANCH  10  11
ATOM     11  C   UNL     1      -1.283   7.589  16.616  0.00  0.00    -0.028 A 
ATOM     12  C   UNL     1      -0.737   8.589  15.798  0.00  0.00    +0.005 A 
ATOM     13  C   UNL     1      -2.659   7.326  16.531  0.00  0.00    +0.005 A 
ATOM     14  C   UNL     1      -1.546   9.291  14.900  0.00  0.00    +0.000 A 
ATOM     15  C   UNL     1      -3.463   8.030  15.634  0.00  0.00    +0.000 A 
ATOM     16  C   UNL     1      -2.905   9.010  14.817  0.00  0.00    +0.000 A 
ENDBRANCH  10  11
ENDBRANCH   1  10
TORSDOF 2
ENDMDL
MODEL 5
REMARK VINA RESULT:    -4.647     27.853     28.810
REMARK INTER + INTRA:          -5.310
REMARK INTER:                  -5.173
REMARK INTRA:                  -0.136
REMARK UNBOUND:                -0.120
REMARK  Name = 1550473
REMARK  2 active torsions:
REMARK  status: ('A' for Active; 'I' for Inactive)
REMARK    1  A    between atoms: N_1  and  C_4
REMARK    2  A    between atoms: C_4  and  C_5
REMARK                            x       y       z     vdW  Elec       q    Type
REMARK                         _______ _______ _______ _____ _____    ______ ____
ROOT
ATOM      1  N   UNL     1       8.588   7.241 -10.277  0.00  0.00    -0.354 N 
ATOM      2  N   UNL     1       9.002   9.515 -10.143  0.00  0.00    -0.372 N 
ATOM      3  N   UNL     1       8.347   8.394  -8.251  0.00  0.00    -0.372 N 
ATOM      4  C   UNL     1       8.642   8.368  -9.555  0.00  0.00    +0.166 C 
ATOM      5  H   UNL     1       8.794   7.293 -11.268  0.00  0.00    +0.163 HD
ATOM      6  H   UNL     1       9.056  10.381  -9.623  0.00  0.00    +0.159 HD
ATOM      7  H   UNL     1       9.253   9.556 -11.123  0.00  0.00    +0.159 HD
ATOM      8  H   UNL     1       8.062   7.563  -7.750  0.00  0.00    +0.159 HD
ATOM      9  H   UNL     1       8.383   9.253  -7.717  0.00  0.00    +0.159 HD
ENDROOT
BRANCH   1  10
ATOM     10  C   UNL     1       8.259   5.929  -9.721  0.00  0.00    +0.151 C 
BRANCH  10  11
ATOM     11  C   UNL     1       6.879   5.537 -10.170  0.00  0.00    -0.028 A 
ATOM     12  C   UNL     1       5.753   6.228  -9.697  0.00  0.00    +0.005 A 
ATOM     13  C   UNL     1       6.689   4.480 -11.073  0.00  0.00    +0.005 A 
ATOM     14  C   UNL     1       4.473   5.884 -10.137  0.00  0.00    +0.000 A 
ATOM     15  C   UNL     1       5.409   4.138 -11.509  0.00  0.00    +0.000 A 
ATOM     16  C   UNL     1       4.302   4.842 -11.043  0.00  0.00    +0.000 A 
ENDBRANCH  10  11
ENDBRANCH   1  10
TORSDOF 2
ENDMDL
MODEL 6
REMARK VINA RESULT:    -4.625     11.862     13.045
REMARK INTER + INTRA:          -5.285
REMARK INTER:                  -5.179
REMARK INTRA:                  -0.106
REMARK UNBOUND:                -0.120
REMARK  Name = 1550473
REMARK  2 active torsions:
REMARK  status: ('A' for Active; 'I' for Inactive)
REMARK    1  A    between atoms: N_1  and  C_4
REMARK    2  A    between atoms: C_4  and  C_5
REMARK                            x       y       z     vdW  Elec       q    Type
REMARK                         _______ _______ _______ _____ _____    ______ ____
ROOT
ATOM      1  N   UNL     1      -8.848   8.432   6.733  0.00  0.00    -0.354 N 
ATOM      2  N   UNL     1      -7.504   9.171   8.468  0.00  0.00    -0.372 N 
ATOM      3  N   UNL     1      -8.213  10.682   6.894  0.00  0.00    -0.372 N 
ATOM      4  C   UNL     1      -8.197   9.426   7.352  0.00  0.00    +0.166 C 
ATOM      5  H   UNL     1      -8.772   7.496   7.114  0.00  0.00    +0.163 HD
ATOM      6  H   UNL     1      -7.006   9.901   8.960  0.00  0.00    +0.159 HD
ATOM      7  H   UNL     1      -7.467   8.243   8.873  0.00  0.00    +0.159 HD
ATOM      8  H   UNL     1      -8.713  10.939   6.054  0.00  0.00    +0.159 HD
ATOM      9  H   UNL     1      -7.711  11.424   7.365  0.00  0.00    +0.159 HD
ENDROOT
BRANCH   1  10
ATOM     10  C   UNL     1      -9.676   8.614   5.542  0.00  0.00    +0.151 C 
BRANCH  10  11
ATOM     11  C   UNL     1     -10.076   7.265   5.011  0.00  0.00    -0.028 A 
ATOM     12  C   UNL     1     -10.561   6.275   5.877  0.00  0.00    +0.005 A 
ATOM     13  C   UNL     1      -9.978   6.974   3.642  0.00  0.00    +0.005 A 
ATOM     14  C   UNL     1     -10.961   5.032   5.380  0.00  0.00    +0.000 A 
ATOM     15  C   UNL     1     -10.378   5.731   3.150  0.00  0.00    +0.000 A 
ATOM     16  C   UNL     1     -10.872   4.762   4.019  0.00  0.00    +0.000 A 
ENDBRANCH  10  11
ENDBRANCH   1  10
TORSDOF 2
ENDMDL
MODEL 7
REMARK VINA RESULT:    -4.611      2.981      4.170
REMARK INTER + INTRA:          -5.270
REMARK INTER:                  -5.172
REMARK INTRA:                  -0.098
REMARK UNBOUND:                -0.120
REMARK  Name = 1550473
REMARK  2 active torsions:
REMARK  status: ('A' for Active; 'I' for Inactive)
REMARK    1  A    between atoms: N_1  and  C_4
REMARK    2  A    between atoms: C_4  and  C_5
REMARK                            x       y       z     vdW  Elec       q    Type
REMARK                         _______ _______ _______ _____ _____    ______ ____
ROOT
ATOM      1  N   UNL     1       1.039   4.797  16.257  0.00  0.00    -0.354 N 
ATOM      2  N   UNL     1       2.826   3.757  15.213  0.00  0.00    -0.372 N 
ATOM      3  N   UNL     1       2.918   4.110  17.478  0.00  0.00    -0.372 N 
ATOM      4  C   UNL     1       2.250   4.228  16.326  0.00  0.00    +0.166 C 
ATOM      5  H   UNL     1       0.599   4.883  15.348  0.00  0.00    +0.163 HD
ATOM      6  H   UNL     1       3.737   3.320  15.234  0.00  0.00    +0.159 HD
ATOM      7  H   UNL     1       2.364   3.803  14.313  0.00  0.00    +0.159 HD
ATOM      8  H   UNL     1       2.541   4.452  18.352  0.00  0.00    +0.159 HD
ATOM      9  H   UNL     1       3.836   3.687  17.518  0.00  0.00    +0.159 HD
ENDROOT
BRANCH   1  10
ATOM     10  C   UNL     1       0.302   5.294  17.417  0.00  0.00    +0.151 C 
BRANCH  10  11
ATOM     11  C   UNL     1      -0.686   6.333  16.964  0.00  0.00    -0.028 A 
ATOM     12  C   UNL     1      -2.016   5.981  16.694  0.00  0.00    +0.005 A 
ATOM     13  C   UNL     1      -0.299   7.673  16.808  0.00  0.00    +0.005 A 
ATOM     14  C   UNL     1      -2.942   6.951  16.302  0.00  0.00    +0.000 A 
ATOM     15  C   UNL     1      -1.225   8.638  16.415  0.00  0.00    +0.000 A 
ATOM     16  C   UNL     1      -2.547   8.278  16.164  0.00  0.00    +0.000 A 
ENDBRANCH  10  11
ENDBRANCH   1  10
TORSDOF 2
ENDMDL
MODEL 8
REMARK VINA RESULT:    -4.520      1.220      2.071
REMARK INTER + INTRA:          -5.168
REMARK INTER:                  -4.991
REMARK INTRA:                  -0.177
REMARK UNBOUND:                -0.120
REMARK  Name = 1550473
REMARK  2 active torsions:
REMARK  status: ('A' for Active; 'I' for Inactive)
REMARK    1  A    between atoms: N_1  and  C_4
REMARK    2  A    between atoms: C_4  and  C_5
REMARK                            x       y       z     vdW  Elec       q    Type
REMARK                         _______ _______ _______ _____ _____    ______ ____
ROOT
ATOM      1  N   UNL     1      -1.253   6.157  17.707  0.00  0.00    -0.354 N 
ATOM      2  N   UNL     1       0.721   5.921  16.519  0.00  0.00    -0.372 N 
ATOM      3  N   UNL     1       0.067   8.019  17.177  0.00  0.00    -0.372 N 
ATOM      4  C   UNL     1      -0.168   6.703  17.142  0.00  0.00    +0.166 C 
ATOM      5  H   UNL     1      -1.389   5.156  17.619  0.00  0.00    +0.163 HD
ATOM      6  H   UNL     1       1.551   6.304  16.086  0.00  0.00    +0.159 HD
ATOM      7  H   UNL     1       0.606   4.916  16.472  0.00  0.00    +0.159 HD
ATOM      8  H   UNL     1      -0.568   8.665  17.627  0.00  0.00    +0.159 HD
ATOM      9  H   UNL     1       0.886   8.423  16.740  0.00  0.00    +0.159 HD
ENDROOT
BRANCH   1  10
ATOM     10  C   UNL     1      -2.254   6.914  18.456  0.00  0.00    +0.151 C 
BRANCH  10  11
ATOM     11  C   UNL     1      -3.500   7.039  17.623  0.00  0.00    -0.028 A 
ATOM     12  C   UNL     1      -3.668   8.124  16.751  0.00  0.00    +0.005 A 
ATOM     13  C   UNL     1      -4.514   6.072  17.697  0.00  0.00    +0.005 A 
ATOM     14  C   UNL     1      -4.811   8.225  15.955  0.00  0.00    +0.000 A 
ATOM     15  C   UNL     1      -5.655   6.176  16.901  0.00  0.00    +0.000 A 
ATOM     16  C   UNL     1      -5.802   7.251  16.029  0.00  0.00    +0.000 A 
ENDBRANCH  10  11
ENDBRANCH   1  10
TORSDOF 2
ENDMDL
MODEL 9
REMARK VINA RESULT:    -4.417     16.790     17.580
REMARK INTER + INTRA:          -5.052
REMARK INTER:                  -4.919
REMARK INTRA:                  -0.133
REMARK UNBOUND:                -0.120
REMARK  Name = 1550473
REMARK  2 active torsions:
REMARK  status: ('A' for Active; 'I' for Inactive)
REMARK    1  A    between atoms: N_1  and  C_4
REMARK    2  A    between atoms: C_4  and  C_5
REMARK                            x       y       z     vdW  Elec       q    Type
REMARK                         _______ _______ _______ _____ _____    ______ ____
ROOT
ATOM      1  N   UNL     1      -7.022  -5.044   2.917  0.00  0.00    -0.354 N 
ATOM      2  N   UNL     1      -6.694  -6.332   1.019  0.00  0.00    -0.372 N 
ATOM      3  N   UNL     1      -4.911  -5.926   2.406  0.00  0.00    -0.372 N 
ATOM      4  C   UNL     1      -6.209  -5.758   2.127  0.00  0.00    +0.166 C 
ATOM      5  H   UNL     1      -7.989  -4.930   2.634  0.00  0.00    +0.163 HD
ATOM      6  H   UNL     1      -6.105  -6.879   0.406  0.00  0.00    +0.159 HD
ATOM      7  H   UNL     1      -7.671  -6.254   0.764  0.00  0.00    +0.159 HD
ATOM      8  H   UNL     1      -4.482  -5.514   3.224  0.00  0.00    +0.159 HD
ATOM      9  H   UNL     1      -4.303  -6.460   1.799  0.00  0.00    +0.159 HD
ENDROOT
BRANCH   1  10
ATOM     10  C   UNL     1      -6.605  -4.425   4.173  0.00  0.00    +0.151 C 
BRANCH  10  11
ATOM     11  C   UNL     1      -7.131  -3.017   4.225  0.00  0.00    -0.028 A 
ATOM     12  C   UNL     1      -6.469  -2.037   4.979  0.00  0.00    +0.005 A 
ATOM     13  C   UNL     1      -8.287  -2.655   3.517  0.00  0.00    +0.005 A 
ATOM     14  C   UNL     1      -6.940  -0.722   5.003  0.00  0.00    +0.000 A 
ATOM     15  C   UNL     1      -8.754  -1.341   3.544  0.00  0.00    +0.000 A 
ATOM     16  C   UNL     1      -8.079  -0.374   4.285  0.00  0.00    +0.000 A 
ENDBRANCH  10  11
ENDBRANCH   1  10
TORSDOF 2
ENDMDL
