MODEL 1
REMARK VINA RESULT:    -4.891      0.000      0.000
REMARK INTER + INTRA:          -5.556
REMARK INTER:                  -5.463
REMARK INTRA:                  -0.094
REMARK UNBOUND:                -0.094
REMARK  Name = 1550473
REMARK  2 active torsions:
REMARK  status: ('A' for Active; 'I' for Inactive)
REMARK    1  A    between atoms: N_1  and  C_4
REMARK    2  A    between atoms: C_4  and  C_5
REMARK                            x       y       z     vdW  Elec       q    Type
REMARK                         _______ _______ _______ _____ _____    ______ ____
ROOT
ATOM      1  N   UNL     1      -3.425  -3.408  -9.330  0.00  0.00    -0.354 N 
ATOM      2  N   UNL     1      -1.863  -1.843 -10.022  0.00  0.00    -0.372 N 
ATOM      3  N   UNL     1      -2.131  -3.762 -11.252  0.00  0.00    -0.372 N 
ATOM      4  C   UNL     1      -2.483  -3.017 -10.199  0.00  0.00    +0.166 C 
ATOM      5  H   UNL     1      -3.624  -2.811  -8.535  0.00  0.00    +0.163 HD
ATOM      6  H   UNL     1      -1.151  -1.520 -10.662  0.00  0.00    +0.159 HD
ATOM      7  H   UNL     1      -2.097  -1.228  -9.252  0.00  0.00    +0.159 HD
ATOM      8  H   UNL     1      -2.557  -4.660 -11.439  0.00  0.00    +0.159 HD
ATOM      9  H   UNL     1      -1.412  -3.461 -11.898  0.00  0.00    +0.159 HD
ENDROOT
BRANCH   1  10
ATOM     10  C   UNL     1      -4.197  -4.642  -9.463  0.00  0.00    +0.151 C 
BRANCH  10  11
ATOM     11  C   UNL     1      -4.831  -4.969  -8.138  0.00  0.00    -0.028 A 
ATOM     12  C   UNL     1      -4.181  -5.815  -7.228  0.00  0.00    +0.005 A 
ATOM     13  C   UNL     1      -6.078  -4.432  -7.786  0.00  0.00    +0.005 A 
ATOM     14  C   UNL     1      -4.755  -6.095  -5.985  0.00  0.00    +0.000 A 
ATOM     15  C   UNL     1      -6.649  -4.715  -6.545  0.00  0.00    +0.000 A 
ATOM     16  C   UNL     1      -5.985  -5.544  -5.644  0.00  0.00    +0.000 A 
ENDBRANCH  10  11
ENDBRANCH   1  10
TORSDOF 2
ENDMDL
MODEL 2
REMARK VINA RESULT:    -4.845     10.071     11.138
REMARK INTER + INTRA:          -5.505
REMARK INTER:                  -5.346
REMARK INTRA:                  -0.159
REMARK UNBOUND:                -0.094
REMARK  Name = 1550473
REMARK  2 active torsions:
REMARK  status: ('A' for Active; 'I' for Inactive)
REMARK    1  A    between atoms: N_1  and  C_4
REMARK    2  A    between atoms: C_4  and  C_5
REMARK                            x       y       z     vdW  Elec       q    Type
REMARK                         _______ _______ _______ _____ _____    ______ ____
ROOT
ATOM      1  N   UNL     1     -10.966   0.619  -1.006  0.00  0.00    -0.354 N 
ATOM      2  N   UNL     1      -9.702   1.716  -2.608  0.00  0.00    -0.372 N 
ATOM      3  N   UNL     1      -9.174   1.998  -0.393  0.00  0.00    -0.372 N 
ATOM      4  C   UNL     1      -9.954   1.438  -1.323  0.00  0.00    +0.166 C 
ATOM      5  H   UNL     1     -11.540   0.251  -1.757  0.00  0.00    +0.163 HD
ATOM      6  H   UNL     1      -8.943   2.328  -2.877  0.00  0.00    +0.159 HD
ATOM      7  H   UNL     1     -10.248   1.310  -3.358  0.00  0.00    +0.159 HD
ATOM      8  H   UNL     1      -9.315   1.834   0.595  0.00  0.00    +0.159 HD
ATOM      9  H   UNL     1      -8.417   2.622  -0.642  0.00  0.00    +0.159 HD
ENDROOT
BRANCH   1  10
ATOM     10  C   UNL     1     -11.291   0.210   0.359  0.00  0.00    +0.151 C 
BRANCH  10  11
ATOM     11  C   UNL     1     -10.820  -1.202   0.574  0.00  0.00    -0.028 A 
ATOM     12  C   UNL     1     -10.776  -2.109  -0.496  0.00  0.00    +0.005 A 
ATOM     13  C   UNL     1     -10.411  -1.638   1.844  0.00  0.00    +0.005 A 
ATOM     14  C   UNL     1     -10.311  -3.412  -0.303  0.00  0.00    +0.000 A 
ATOM     15  C   UNL     1      -9.948  -2.940   2.032  0.00  0.00    +0.000 A 
ATOM     16  C   UNL     1      -9.896  -3.826   0.959  0.00  0.00    +0.000 A 
ENDBRANCH  10  11
ENDBRANCH   1  10
TORSDOF 2
ENDMDL
MODEL 3
REMARK VINA RESULT:    -4.704      3.189      4.187
REMARK INTER + INTRA:          -5.347
REMARK INTER:                  -5.223
REMARK INTRA:                  -0.124
REMARK UNBOUND:                -0.094
REMARK  Name = 1550473
REMARK  2 active torsions:
REMARK  status: ('A' for Active; 'I' for Inactive)
REMARK    1  A    between atoms: N_1  and  C_4
REMARK    2  A    between atoms: C_4  and  C_5
REMARK                            x       y       z     vdW  Elec       q    Type
REMARK                         _______ _______ _______ _____ _____    ______ ____
ROOT
ATOM      1  N   UNL     1      -2.667  -7.396  -7.567  0.00  0.00    -0.354 N 
ATOM      2  N   UNL     1      -1.079  -8.490  -8.848  0.00  0.00    -0.372 N 
ATOM      3  N   UNL     1      -1.608  -9.333  -6.781  0.00  0.00    -0.372 N 
ATOM      4  C   UNL     1      -1.795  -8.401  -7.721  0.00  0.00    +0.166 C 
ATOM      5  H   UNL     1      -2.741  -6.704  -8.304  0.00  0.00    +0.163 HD
ATOM      6  H   UNL     1      -0.415  -9.239  -8.994  0.00  0.00    +0.159 HD
ATOM      7  H   UNL     1      -1.187  -7.824  -9.603  0.00  0.00    +0.159 HD
ATOM      8  H   UNL     1      -2.114  -9.319  -5.905  0.00  0.00    +0.159 HD
ATOM      9  H   UNL     1      -0.940 -10.084  -6.904  0.00  0.00    +0.159 HD
ENDROOT
BRANCH   1  10
ATOM     10  C   UNL     1      -3.535  -7.238  -6.401  0.00  0.00    +0.151 C 
BRANCH  10  11
ATOM     11  C   UNL     1      -4.569  -6.187  -6.697  0.00  0.00    -0.028 A 
ATOM     12  C   UNL     1      -4.550  -5.492  -7.915  0.00  0.00    +0.005 A 
ATOM     13  C   UNL     1      -5.574  -5.885  -5.765  0.00  0.00    +0.005 A 
ATOM     14  C   UNL     1      -5.528  -4.538  -8.203  0.00  0.00    +0.000 A 
ATOM     15  C   UNL     1      -6.549  -4.930  -6.056  0.00  0.00    +0.000 A 
ATOM     16  C   UNL     1      -6.527  -4.259  -7.276  0.00  0.00    +0.000 A 
ENDBRANCH  10  11
ENDBRANCH   1  10
TORSDOF 2
ENDMDL
MODEL 4
REMARK VINA RESULT:    -4.682      4.269      6.053
REMARK INTER + INTRA:          -5.323
REMARK INTER:                  -5.152
REMARK INTRA:                  -0.170
REMARK UNBOUND:                -0.094
REMARK  Name = 1550473
REMARK  2 active torsions:
REMARK  status: ('A' for Active; 'I' for Inactive)
REMARK    1  A    between atoms: N_1  and  C_4
REMARK    2  A    between atoms: C_4  and  C_5
REMARK                            x       y       z     vdW  Elec       q    Type
REMARK                         _______ _______ _______ _____ _____    ______ ____
ROOT
ATOM      1  N   UNL     1      -5.276  -8.191  -5.208  0.00  0.00    -0.354 N 
ATOM      2  N   UNL     1      -6.449 -10.186  -5.298  0.00  0.00    -0.372 N 
ATOM      3  N   UNL     1      -7.364  -8.412  -4.167  0.00  0.00    -0.372 N 
ATOM      4  C   UNL     1      -6.357  -8.915  -4.889  0.00  0.00    +0.166 C 
ATOM      5  H   UNL     1      -4.533  -8.640  -5.732  0.00  0.00    +0.163 HD
ATOM      6  H   UNL     1      -7.254 -10.756  -5.076  0.00  0.00    +0.159 HD
ATOM      7  H   UNL     1      -5.726 -10.618  -5.861  0.00  0.00    +0.159 HD
ATOM      8  H   UNL     1      -7.352  -7.461  -3.823  0.00  0.00    +0.159 HD
ATOM      9  H   UNL     1      -8.173  -8.970  -3.924  0.00  0.00    +0.159 HD
ENDROOT
BRANCH   1  10
ATOM     10  C   UNL     1      -5.102  -6.783  -4.857  0.00  0.00    +0.151 C 
BRANCH  10  11
ATOM     11  C   UNL     1      -5.264  -5.945  -6.095  0.00  0.00    -0.028 A 
ATOM     12  C   UNL     1      -6.391  -5.127  -6.259  0.00  0.00    +0.005 A 
ATOM     13  C   UNL     1      -4.290  -5.960  -7.106  0.00  0.00    +0.005 A 
ATOM     14  C   UNL     1      -6.527  -4.325  -7.395  0.00  0.00    +0.000 A 
ATOM     15  C   UNL     1      -4.430  -5.158  -8.239  0.00  0.00    +0.000 A 
ATOM     16  C   UNL     1      -5.548  -4.339  -8.382  0.00  0.00    +0.000 A 
ENDBRANCH  10  11
ENDBRANCH   1  10
TORSDOF 2
ENDMDL
MODEL 5
REMARK VINA RESULT:    -4.627      3.395      5.284
REMARK INTER + INTRA:          -5.262
REMARK INTER:                  -5.130
REMARK INTRA:                  -0.131
REMARK UNBOUND:                -0.094
REMARK  Name = 1550473
REMARK  2 active torsions:
REMARK  status: ('A' for Active; 'I' for Inactive)
REMARK    1  A    between atoms: N_1  and  C_4
REMARK    2  A    between atoms: C_4  and  C_5
REMARK                            x       y       z     vdW  Elec       q    Type
REMARK                         _______ _______ _______ _____ _____    ______ ____
ROOT
ATOM      1  N   UNL     1      -5.170  -6.172  -5.969  0.00  0.00    -0.354 N 
ATOM      2  N   UNL     1      -5.213  -7.780  -4.303  0.00  0.00    -0.372 N 
ATOM      3  N   UNL     1      -7.200  -6.949  -5.093  0.00  0.00    -0.372 N 
ATOM      4  C   UNL     1      -5.864  -6.955  -5.132  0.00  0.00    +0.166 C 
ATOM      5  H   UNL     1      -4.158  -6.202  -5.929  0.00  0.00    +0.163 HD
ATOM      6  H   UNL     1      -5.709  -8.385  -3.663  0.00  0.00    +0.159 HD
ATOM      7  H   UNL     1      -4.202  -7.841  -4.297  0.00  0.00    +0.159 HD
ATOM      8  H   UNL     1      -7.750  -6.345  -5.689  0.00  0.00    +0.159 HD
ATOM      9  H   UNL     1      -7.714  -7.539  -4.451  0.00  0.00    +0.159 HD
ENDROOT
BRANCH   1  10
ATOM     10  C   UNL     1      -5.784  -5.278  -6.950  0.00  0.00    +0.151 C 
BRANCH  10  11
ATOM     11  C   UNL     1      -4.891  -5.186  -8.156  0.00  0.00    -0.028 A 
ATOM     12  C   UNL     1      -3.949  -6.190  -8.423  0.00  0.00    +0.005 A 
ATOM     13  C   UNL     1      -4.987  -4.100  -9.040  0.00  0.00    +0.005 A 
ATOM     14  C   UNL     1      -3.141  -6.121  -9.560  0.00  0.00    +0.000 A 
ATOM     15  C   UNL     1      -4.177  -4.034 -10.174  0.00  0.00    +0.000 A 
ATOM     16  C   UNL     1      -3.256  -5.045 -10.435  0.00  0.00    +0.000 A 
ENDBRANCH  10  11
ENDBRANCH   1  10
TORSDOF 2
ENDMDL
MODEL 6
REMARK VINA RESULT:    -4.609     10.047     10.959
REMARK INTER + INTRA:          -5.242
REMARK INTER:                  -5.150
REMARK INTRA:                  -0.091
REMARK UNBOUND:                -0.094
REMARK  Name = 1550473
REMARK  2 active torsions:
REMARK  status: ('A' for Active; 'I' for Inactive)
REMARK    1  A    between atoms: N_1  and  C_4
REMARK    2  A    between atoms: C_4  and  C_5
REMARK                            x       y       z     vdW  Elec       q    Type
REMARK                         _______ _______ _______ _____ _____    ______ ____
ROOT
ATOM      1  N   UNL     1       4.613  -9.296  -4.768  0.00  0.00    -0.354 N 
ATOM      2  N   UNL     1       5.333  -9.510  -6.959  0.00  0.00    -0.372 N 
ATOM      3  N   UNL     1       6.735  -8.545  -5.420  0.00  0.00    -0.372 N 
ATOM      4  C   UNL     1       5.558  -9.114  -5.700  0.00  0.00    +0.166 C 
ATOM      5  H   UNL     1       3.730  -9.705  -5.051  0.00  0.00    +0.163 HD
ATOM      6  H   UNL     1       6.028  -9.389  -7.683  0.00  0.00    +0.159 HD
ATOM      7  H   UNL     1       4.467  -9.961  -7.229  0.00  0.00    +0.159 HD
ATOM      8  H   UNL     1       6.965  -8.219  -4.491  0.00  0.00    +0.159 HD
ATOM      9  H   UNL     1       7.439  -8.405  -6.134  0.00  0.00    +0.159 HD
ENDROOT
BRANCH   1  10
ATOM     10  C   UNL     1       4.779  -8.949  -3.357  0.00  0.00    +0.151 C 
BRANCH  10  11
ATOM     11  C   UNL     1       3.612  -9.490  -2.578  0.00  0.00    -0.028 A 
ATOM     12  C   UNL     1       2.423  -8.754  -2.475  0.00  0.00    +0.005 A 
ATOM     13  C   UNL     1       3.687 -10.740  -1.945  0.00  0.00    +0.005 A 
ATOM     14  C   UNL     1       1.328  -9.269  -1.776  0.00  0.00    +0.000 A 
ATOM     15  C   UNL     1       2.592 -11.250  -1.248  0.00  0.00    +0.000 A 
ATOM     16  C   UNL     1       1.412 -10.516  -1.166  0.00  0.00    +0.000 A 
ENDBRANCH  10  11
ENDBRANCH   1  10
TORSDOF 2
ENDMDL
MODEL 7
REMARK VINA RESULT:    -4.480     10.586     11.653
REMARK INTER + INTRA:          -5.098
REMARK INTER:                  -5.001
REMARK INTRA:                  -0.097
REMARK UNBOUND:                -0.094
REMARK  Name = 1550473
REMARK  2 active torsions:
REMARK  status: ('A' for Active; 'I' for Inactive)
REMARK    1  A    between atoms: N_1  and  C_4
REMARK    2  A    between atoms: C_4  and  C_5
REMARK                            x       y       z     vdW  Elec       q    Type
REMARK                         _______ _______ _______ _____ _____    ______ ____
ROOT
ATOM      1  N   UNL     1     -10.226   0.457   1.134  0.00  0.00    -0.354 N 
ATOM      2  N   UNL     1      -9.220   1.663   2.836  0.00  0.00    -0.372 N 
ATOM      3  N   UNL     1      -8.559   2.038   0.671  0.00  0.00    -0.372 N 
ATOM      4  C   UNL     1      -9.340   1.379   1.534  0.00  0.00    +0.166 C 
ATOM      5  H   UNL     1     -10.767  -0.028   1.841  0.00  0.00    +0.163 HD
ATOM      6  H   UNL     1      -8.562   2.357   3.168  0.00  0.00    +0.159 HD
ATOM      7  H   UNL     1      -9.794   1.209   3.536  0.00  0.00    +0.159 HD
ATOM      8  H   UNL     1      -8.596   1.865  -0.324  0.00  0.00    +0.159 HD
ATOM      9  H   UNL     1      -7.886   2.726   0.984  0.00  0.00    +0.159 HD
ENDROOT
BRANCH   1  10
ATOM     10  C   UNL     1     -10.473   0.113  -0.265  0.00  0.00    +0.151 C 
BRANCH  10  11
ATOM     11  C   UNL     1     -10.982  -1.300  -0.340  0.00  0.00    -0.028 A 
ATOM     12  C   UNL     1     -10.111  -2.356  -0.647  0.00  0.00    +0.005 A 
ATOM     13  C   UNL     1     -12.334  -1.591  -0.100  0.00  0.00    +0.005 A 
ATOM     14  C   UNL     1     -10.578  -3.672  -0.688  0.00  0.00    +0.000 A 
ATOM     15  C   UNL     1     -12.796  -2.906  -0.142  0.00  0.00    +0.000 A 
ATOM     16  C   UNL     1     -11.918  -3.946  -0.433  0.00  0.00    +0.000 A 
ENDBRANCH  10  11
ENDBRANCH   1  10
TORSDOF 2
ENDMDL
MODEL 8
REMARK VINA RESULT:    -4.449      2.385      5.152
REMARK INTER + INTRA:          -5.063
REMARK INTER:                  -4.938
REMARK INTRA:                  -0.125
REMARK UNBOUND:                -0.094
REMARK  Name = 1550473
REMARK  2 active torsions:
REMARK  status: ('A' for Active; 'I' for Inactive)
REMARK    1  A    between atoms: N_1  and  C_4
REMARK    2  A    between atoms: C_4  and  C_5
REMARK                            x       y       z     vdW  Elec       q    Type
REMARK                         _______ _______ _______ _____ _____    ______ ____
ROOT
ATOM      1  N   UNL     1      -4.843  -5.306  -8.872  0.00  0.00    -0.354 N 
ATOM      2  N   UNL     1      -5.910  -6.633  -7.301  0.00  0.00    -0.372 N 
ATOM      3  N   UNL     1      -6.481  -4.415  -7.452  0.00  0.00    -0.372 N 
ATOM      4  C   UNL     1      -5.739  -5.440  -7.885  0.00  0.00    +0.166 C 
ATOM      5  H   UNL     1      -4.290  -6.114  -9.134  0.00  0.00    +0.163 HD
ATOM      6  H   UNL     1      -6.580  -6.765  -6.556  0.00  0.00    +0.159 HD
ATOM      7  H   UNL     1      -5.389  -7.450  -7.596  0.00  0.00    +0.159 HD
ATOM      8  H   UNL     1      -6.395  -3.488  -7.846  0.00  0.00    +0.159 HD
ATOM      9  H   UNL     1      -7.149  -4.525  -6.699  0.00  0.00    +0.159 HD
ENDROOT
BRANCH   1  10
ATOM     10  C   UNL     1      -4.619  -4.064  -9.609  0.00  0.00    +0.151 C 
BRANCH  10  11
ATOM     11  C   UNL     1      -3.157  -3.950  -9.946  0.00  0.00    -0.028 A 
ATOM     12  C   UNL     1      -2.372  -5.100 -10.107  0.00  0.00    +0.005 A 
ATOM     13  C   UNL     1      -2.554  -2.693 -10.110  0.00  0.00    +0.005 A 
ATOM     14  C   UNL     1      -1.021  -4.995 -10.449  0.00  0.00    +0.000 A 
ATOM     15  C   UNL     1      -1.205  -2.593 -10.450  0.00  0.00    +0.000 A 
ATOM     16  C   UNL     1      -0.440  -3.744 -10.622  0.00  0.00    +0.000 A 
ENDBRANCH  10  11
ENDBRANCH   1  10
TORSDOF 2
ENDMDL
MODEL 9
REMARK VINA RESULT:    -4.425      5.075      8.460
REMARK INTER + INTRA:          -5.036
REMARK INTER:                  -4.897
REMARK INTRA:                  -0.139
REMARK UNBOUND:                -0.094
REMARK  Name = 1550473
REMARK  2 active torsions:
REMARK  status: ('A' for Active; 'I' for Inactive)
REMARK    1  A    between atoms: N_1  and  C_4
REMARK    2  A    between atoms: C_4  and  C_5
REMARK                            x       y       z     vdW  Elec       q    Type
REMARK                         _______ _______ _______ _____ _____    ______ ____
ROOT
ATOM      1  N   UNL     1      -1.447  -1.462 -12.059  0.00  0.00    -0.354 N 
ATOM      2  N   UNL     1      -1.104  -3.528 -11.070  0.00  0.00    -0.372 N 
ATOM      3  N   UNL     1      -1.878  -1.796  -9.780  0.00  0.00    -0.372 N 
ATOM      4  C   UNL     1      -1.479  -2.247 -10.974  0.00  0.00    +0.166 C 
ATOM      5  H   UNL     1      -1.106  -1.856 -12.928  0.00  0.00    +0.163 HD
ATOM      6  H   UNL     1      -1.120  -4.146 -10.270  0.00  0.00    +0.159 HD
ATOM      7  H   UNL     1      -0.807  -3.932 -11.951  0.00  0.00    +0.159 HD
ATOM      8  H   UNL     1      -2.168  -0.838  -9.639  0.00  0.00    +0.159 HD
ATOM      9  H   UNL     1      -1.890  -2.395  -8.964  0.00  0.00    +0.159 HD
ENDROOT
BRANCH   1  10
ATOM     10  C   UNL     1      -1.886  -0.068 -12.073  0.00  0.00    +0.151 C 
BRANCH  10  11
ATOM     11  C   UNL     1      -0.727   0.808 -12.460  0.00  0.00    -0.028 A 
ATOM     12  C   UNL     1      -0.034   0.583 -13.659  0.00  0.00    +0.005 A 
ATOM     13  C   UNL     1      -0.320   1.869 -11.636  0.00  0.00    +0.005 A 
ATOM     14  C   UNL     1       1.024   1.415 -14.034  0.00  0.00    +0.000 A 
ATOM     15  C   UNL     1       0.737   2.697 -12.014  0.00  0.00    +0.000 A 
ATOM     16  C   UNL     1       1.407   2.471 -13.214  0.00  0.00    +0.000 A 
ENDBRANCH  10  11
ENDBRANCH   1  10
TORSDOF 2
ENDMDL
