MODEL 1
REMARK VINA RESULT:    -5.743      0.000      0.000
REMARK INTER + INTRA:          -6.555
REMARK INTER:                  -6.415
REMARK INTRA:                  -0.140
REMARK UNBOUND:                -0.140
REMARK  Name = 1550473
REMARK  2 active torsions:
REMARK  status: ('A' for Active; 'I' for Inactive)
REMARK    1  A    between atoms: N_1  and  C_4
REMARK    2  A    between atoms: C_4  and  C_5
REMARK                            x       y       z     vdW  Elec       q    Type
REMARK                         _______ _______ _______ _____ _____    ______ ____
ROOT
ATOM      1  N   UNL     1       7.498   9.945   6.041  0.00  0.00    -0.354 N 
ATOM      2  N   UNL     1       8.511  10.301   3.988  0.00  0.00    -0.372 N 
ATOM      3  N   UNL     1       6.265   9.835   4.051  0.00  0.00    -0.372 N 
ATOM      4  C   UNL     1       7.415  10.024   4.706  0.00  0.00    +0.166 C 
ATOM      5  H   UNL     1       8.406  10.069   6.475  0.00  0.00    +0.163 HD
ATOM      6  H   UNL     1       8.478  10.371   2.980  0.00  0.00    +0.159 HD
ATOM      7  H   UNL     1       9.407  10.470   4.428  0.00  0.00    +0.159 HD
ATOM      8  H   UNL     1       5.403   9.617   4.534  0.00  0.00    +0.159 HD
ATOM      9  H   UNL     1       6.215   9.889   3.042  0.00  0.00    +0.159 HD
ENDROOT
BRANCH   1  10
ATOM     10  C   UNL     1       6.354   9.702   6.918  0.00  0.00    +0.151 C 
BRANCH  10  11
ATOM     11  C   UNL     1       6.347  10.733   8.013  0.00  0.00    -0.028 A 
ATOM     12  C   UNL     1       6.328  10.342   9.359  0.00  0.00    +0.005 A 
ATOM     13  C   UNL     1       6.365  12.103   7.710  0.00  0.00    +0.005 A 
ATOM     14  C   UNL     1       6.351  11.299  10.377  0.00  0.00    +0.000 A 
ATOM     15  C   UNL     1       6.387  13.056   8.728  0.00  0.00    +0.000 A 
ATOM     16  C   UNL     1       6.383  12.653  10.062  0.00  0.00    +0.000 A 
ENDBRANCH  10  11
ENDBRANCH   1  10
TORSDOF 2
ENDMDL
MODEL 2
REMARK VINA RESULT:    -5.592     21.065     22.233
REMARK INTER + INTRA:          -6.386
REMARK INTER:                  -6.290
REMARK INTRA:                  -0.096
REMARK UNBOUND:                -0.140
REMARK  Name = 1550473
REMARK  2 active torsions:
REMARK  status: ('A' for Active; 'I' for Inactive)
REMARK    1  A    between atoms: N_1  and  C_4
REMARK    2  A    between atoms: C_4  and  C_5
REMARK                            x       y       z     vdW  Elec       q    Type
REMARK                         _______ _______ _______ _____ _____    ______ ____
ROOT
ATOM      1  N   UNL     1      -8.623   4.342  -7.280  0.00  0.00    -0.354 N 
ATOM      2  N   UNL     1      -9.357   4.466  -5.087  0.00  0.00    -0.372 N 
ATOM      3  N   UNL     1      -7.867   6.036  -5.849  0.00  0.00    -0.372 N 
ATOM      4  C   UNL     1      -8.609   4.949  -6.086  0.00  0.00    +0.166 C 
ATOM      5  H   UNL     1      -9.183   3.504  -7.387  0.00  0.00    +0.163 HD
ATOM      6  H   UNL     1      -9.369   4.905  -4.176  0.00  0.00    +0.159 HD
ATOM      7  H   UNL     1      -9.951   3.655  -5.210  0.00  0.00    +0.159 HD
ATOM      8  H   UNL     1      -7.276   6.447  -6.559  0.00  0.00    +0.159 HD
ATOM      9  H   UNL     1      -7.857   6.483  -4.941  0.00  0.00    +0.159 HD
ENDROOT
BRANCH   1  10
ATOM     10  C   UNL     1      -7.887   4.819  -8.450  0.00  0.00    +0.151 C 
BRANCH  10  11
ATOM     11  C   UNL     1      -6.802   3.832  -8.784  0.00  0.00    -0.028 A 
ATOM     12  C   UNL     1      -6.469   3.566 -10.120  0.00  0.00    +0.005 A 
ATOM     13  C   UNL     1      -6.100   3.164  -7.768  0.00  0.00    +0.005 A 
ATOM     14  C   UNL     1      -5.441   2.672 -10.430  0.00  0.00    +0.000 A 
ATOM     15  C   UNL     1      -5.075   2.272  -8.082  0.00  0.00    +0.000 A 
ATOM     16  C   UNL     1      -4.744   2.028  -9.413  0.00  0.00    +0.000 A 
ENDBRANCH  10  11
ENDBRANCH   1  10
TORSDOF 2
ENDMDL
MODEL 3
REMARK VINA RESULT:    -5.589      1.262      2.083
REMARK INTER + INTRA:          -6.382
REMARK INTER:                  -6.239
REMARK INTRA:                  -0.143
REMARK UNBOUND:                -0.140
REMARK  Name = 1550473
REMARK  2 active torsions:
REMARK  status: ('A' for Active; 'I' for Inactive)
REMARK    1  A    between atoms: N_1  and  C_4
REMARK    2  A    between atoms: C_4  and  C_5
REMARK                            x       y       z     vdW  Elec       q    Type
REMARK                         _______ _______ _______ _____ _____    ______ ____
ROOT
ATOM      1  N   UNL     1       6.480   9.965   5.491  0.00  0.00    -0.354 N 
ATOM      2  N   UNL     1       5.859   8.054   4.340  0.00  0.00    -0.372 N 
ATOM      3  N   UNL     1       4.584   9.948   4.115  0.00  0.00    -0.372 N 
ATOM      4  C   UNL     1       5.643   9.337   4.655  0.00  0.00    +0.166 C 
ATOM      5  H   UNL     1       7.247   9.437   5.891  0.00  0.00    +0.163 HD
ATOM      6  H   UNL     1       5.246   7.555   3.709  0.00  0.00    +0.159 HD
ATOM      7  H   UNL     1       6.653   7.542   4.705  0.00  0.00    +0.159 HD
ATOM      8  H   UNL     1       4.362  10.914   4.317  0.00  0.00    +0.159 HD
ATOM      9  H   UNL     1       3.952   9.462   3.490  0.00  0.00    +0.159 HD
ENDROOT
BRANCH   1  10
ATOM     10  C   UNL     1       6.364  11.376   5.857  0.00  0.00    +0.151 C 
BRANCH  10  11
ATOM     11  C   UNL     1       6.370  11.496   7.356  0.00  0.00    -0.028 A 
ATOM     12  C   UNL     1       6.332  12.757   7.969  0.00  0.00    +0.005 A 
ATOM     13  C   UNL     1       6.406  10.353   8.169  0.00  0.00    +0.005 A 
ATOM     14  C   UNL     1       6.307  12.869   9.362  0.00  0.00    +0.000 A 
ATOM     15  C   UNL     1       6.382  10.469   9.559  0.00  0.00    +0.000 A 
ATOM     16  C   UNL     1       6.330  11.727  10.155  0.00  0.00    +0.000 A 
ENDBRANCH  10  11
ENDBRANCH   1  10
TORSDOF 2
ENDMDL
MODEL 4
REMARK VINA RESULT:    -5.568      8.938     10.282
REMARK INTER + INTRA:          -6.359
REMARK INTER:                  -6.230
REMARK INTRA:                  -0.129
REMARK UNBOUND:                -0.140
REMARK  Name = 1550473
REMARK  2 active torsions:
REMARK  status: ('A' for Active; 'I' for Inactive)
REMARK    1  A    between atoms: N_1  and  C_4
REMARK    2  A    between atoms: C_4  and  C_5
REMARK                            x       y       z     vdW  Elec       q    Type
REMARK                         _______ _______ _______ _____ _____    ______ ____
ROOT
ATOM      1  N   UNL     1      15.088   4.463   2.948  0.00  0.00    -0.354 N 
ATOM      2  N   UNL     1      15.957   5.661   1.167  0.00  0.00    -0.372 N 
ATOM      3  N   UNL     1      14.973   3.629   0.761  0.00  0.00    -0.372 N 
ATOM      4  C   UNL     1      15.333   4.574   1.636  0.00  0.00    +0.166 C 
ATOM      5  H   UNL     1      15.413   5.200   3.563  0.00  0.00    +0.163 HD
ATOM      6  H   UNL     1      16.153   5.775   0.181  0.00  0.00    +0.159 HD
ATOM      7  H   UNL     1      16.240   6.418   1.778  0.00  0.00    +0.159 HD
ATOM      8  H   UNL     1      14.503   2.782   1.051  0.00  0.00    +0.159 HD
ATOM      9  H   UNL     1      15.170   3.719  -0.228  0.00  0.00    +0.159 HD
ENDROOT
BRANCH   1  10
ATOM     10  C   UNL     1      14.367   3.344   3.553  0.00  0.00    +0.151 C 
BRANCH  10  11
ATOM     11  C   UNL     1      13.533   3.858   4.695  0.00  0.00    -0.028 A 
ATOM     12  C   UNL     1      13.445   3.135   5.893  0.00  0.00    +0.005 A 
ATOM     13  C   UNL     1      12.834   5.069   4.587  0.00  0.00    +0.005 A 
ATOM     14  C   UNL     1      12.696   3.626   6.965  0.00  0.00    +0.000 A 
ATOM     15  C   UNL     1      12.086   5.556   5.659  0.00  0.00    +0.000 A 
ATOM     16  C   UNL     1      12.019   4.835   6.848  0.00  0.00    +0.000 A 
ENDBRANCH  10  11
ENDBRANCH   1  10
TORSDOF 2
ENDMDL
MODEL 5
REMARK VINA RESULT:    -5.508      1.632      2.355
REMARK INTER + INTRA:          -6.293
REMARK INTER:                  -6.176
REMARK INTRA:                  -0.117
REMARK UNBOUND:                -0.140
REMARK  Name = 1550473
REMARK  2 active torsions:
REMARK  status: ('A' for Active; 'I' for Inactive)
REMARK    1  A    between atoms: N_1  and  C_4
REMARK    2  A    between atoms: C_4  and  C_5
REMARK                            x       y       z     vdW  Elec       q    Type
REMARK                         _______ _______ _______ _____ _____    ______ ____
ROOT
ATOM      1  N   UNL     1       7.050   9.420   5.280  0.00  0.00    -0.354 N 
ATOM      2  N   UNL     1       6.984   7.605   3.844  0.00  0.00    -0.372 N 
ATOM      3  N   UNL     1       8.726   9.089   3.676  0.00  0.00    -0.372 N 
ATOM      4  C   UNL     1       7.590   8.718   4.275  0.00  0.00    +0.166 C 
ATOM      5  H   UNL     1       6.171   9.103   5.672  0.00  0.00    +0.163 HD
ATOM      6  H   UNL     1       7.369   7.052   3.089  0.00  0.00    +0.159 HD
ATOM      7  H   UNL     1       6.129   7.265   4.267  0.00  0.00    +0.159 HD
ATOM      8  H   UNL     1       9.229   9.922   3.951  0.00  0.00    +0.159 HD
ATOM      9  H   UNL     1       9.121   8.555   2.912  0.00  0.00    +0.159 HD
ENDROOT
BRANCH   1  10
ATOM     10  C   UNL     1       7.658  10.617   5.860  0.00  0.00    +0.151 C 
BRANCH  10  11
ATOM     11  C   UNL     1       7.655  10.492   7.359  0.00  0.00    -0.028 A 
ATOM     12  C   UNL     1       6.460  10.626   8.081  0.00  0.00    +0.005 A 
ATOM     13  C   UNL     1       8.842  10.235   8.061  0.00  0.00    +0.005 A 
ATOM     14  C   UNL     1       6.452  10.481   9.471  0.00  0.00    +0.000 A 
ATOM     15  C   UNL     1       8.829  10.091   9.448  0.00  0.00    +0.000 A 
ATOM     16  C   UNL     1       7.634  10.212  10.153  0.00  0.00    +0.000 A 
ENDBRANCH  10  11
ENDBRANCH   1  10
TORSDOF 2
ENDMDL
MODEL 6
REMARK VINA RESULT:    -5.320     30.622     31.698
REMARK INTER + INTRA:          -6.082
REMARK INTER:                  -5.977
REMARK INTRA:                  -0.106
REMARK UNBOUND:                -0.140
REMARK  Name = 1550473
REMARK  2 active torsions:
REMARK  status: ('A' for Active; 'I' for Inactive)
REMARK    1  A    between atoms: N_1  and  C_4
REMARK    2  A    between atoms: C_4  and  C_5
REMARK                            x       y       z     vdW  Elec       q    Type
REMARK                         _______ _______ _______ _____ _____    ______ ____
ROOT
ATOM      1  N   UNL     1     -10.461   3.595 -18.836  0.00  0.00    -0.354 N 
ATOM      2  N   UNL     1      -8.722   4.331 -20.176  0.00  0.00    -0.372 N 
ATOM      3  N   UNL     1     -10.868   4.454 -20.978  0.00  0.00    -0.372 N 
ATOM      4  C   UNL     1     -10.030   4.122 -19.990  0.00  0.00    +0.166 C 
ATOM      5  H   UNL     1      -9.773   3.337 -18.138  0.00  0.00    +0.163 HD
ATOM      6  H   UNL     1      -8.367   4.731 -21.035  0.00  0.00    +0.159 HD
ATOM      7  H   UNL     1      -8.040   4.115 -19.459  0.00  0.00    +0.159 HD
ATOM      8  H   UNL     1     -11.867   4.316 -20.902  0.00  0.00    +0.159 HD
ATOM      9  H   UNL     1     -10.532   4.844 -21.849  0.00  0.00    +0.159 HD
ENDROOT
BRANCH   1  10
ATOM     10  C   UNL     1     -11.870   3.377 -18.512  0.00  0.00    +0.151 C 
BRANCH  10  11
ATOM     11  C   UNL     1     -11.987   2.998 -17.061  0.00  0.00    -0.028 A 
ATOM     12  C   UNL     1     -12.954   3.601 -16.244  0.00  0.00    +0.005 A 
ATOM     13  C   UNL     1     -11.138   2.033 -16.499  0.00  0.00    +0.005 A 
ATOM     14  C   UNL     1     -13.084   3.228 -14.904  0.00  0.00    +0.000 A 
ATOM     15  C   UNL     1     -11.270   1.663 -15.161  0.00  0.00    +0.000 A 
ATOM     16  C   UNL     1     -12.244   2.260 -14.364  0.00  0.00    +0.000 A 
ENDBRANCH  10  11
ENDBRANCH   1  10
TORSDOF 2
ENDMDL
MODEL 7
REMARK VINA RESULT:    -5.292     21.349     22.501
REMARK INTER + INTRA:          -6.051
REMARK INTER:                  -5.919
REMARK INTRA:                  -0.132
REMARK UNBOUND:                -0.140
REMARK  Name = 1550473
REMARK  2 active torsions:
REMARK  status: ('A' for Active; 'I' for Inactive)
REMARK    1  A    between atoms: N_1  and  C_4
REMARK    2  A    between atoms: C_4  and  C_5
REMARK                            x       y       z     vdW  Elec       q    Type
REMARK                         _______ _______ _______ _____ _____    ______ ____
ROOT
ATOM      1  N   UNL     1      -8.244   4.903  -7.562  0.00  0.00    -0.354 N 
ATOM      2  N   UNL     1      -9.376   5.162  -5.558  0.00  0.00    -0.372 N 
ATOM      3  N   UNL     1     -10.382   3.992  -7.256  0.00  0.00    -0.372 N 
ATOM      4  C   UNL     1      -9.329   4.683  -6.807  0.00  0.00    +0.166 C 
ATOM      5  H   UNL     1      -7.492   5.460  -7.174  0.00  0.00    +0.163 HD
ATOM      6  H   UNL     1     -10.179   5.008  -4.963  0.00  0.00    +0.159 HD
ATOM      7  H   UNL     1      -8.603   5.679  -5.156  0.00  0.00    +0.159 HD
ATOM      8  H   UNL     1     -10.411   3.609  -8.192  0.00  0.00    +0.159 HD
ATOM      9  H   UNL     1     -11.200   3.838  -6.680  0.00  0.00    +0.159 HD
ENDROOT
BRANCH   1  10
ATOM     10  C   UNL     1      -8.071   4.379  -8.916  0.00  0.00    +0.151 C 
BRANCH  10  11
ATOM     11  C   UNL     1      -6.783   3.606  -8.982  0.00  0.00    -0.028 A 
ATOM     12  C   UNL     1      -6.135   3.200  -7.806  0.00  0.00    +0.005 A 
ATOM     13  C   UNL     1      -6.208   3.271 -10.218  0.00  0.00    +0.005 A 
ATOM     14  C   UNL     1      -4.954   2.456  -7.867  0.00  0.00    +0.000 A 
ATOM     15  C   UNL     1      -5.028   2.529 -10.275  0.00  0.00    +0.000 A 
ATOM     16  C   UNL     1      -4.403   2.119  -9.099  0.00  0.00    +0.000 A 
ENDBRANCH  10  11
ENDBRANCH   1  10
TORSDOF 2
ENDMDL
MODEL 8
REMARK VINA RESULT:    -5.206     10.219     10.895
REMARK INTER + INTRA:          -5.954
REMARK INTER:                  -5.849
REMARK INTRA:                  -0.105
REMARK UNBOUND:                -0.140
REMARK  Name = 1550473
REMARK  2 active torsions:
REMARK  status: ('A' for Active; 'I' for Inactive)
REMARK    1  A    between atoms: N_1  and  C_4
REMARK    2  A    between atoms: C_4  and  C_5
REMARK                            x       y       z     vdW  Elec       q    Type
REMARK                         _______ _______ _______ _____ _____    ______ ____
ROOT
ATOM      1  N   UNL     1      -4.526  13.627   7.504  0.00  0.00    -0.354 N 
ATOM      2  N   UNL     1      -6.077  13.177   5.844  0.00  0.00    -0.372 N 
ATOM      3  N   UNL     1      -6.725  14.422   7.659  0.00  0.00    -0.372 N 
ATOM      4  C   UNL     1      -5.767  13.746   7.015  0.00  0.00    +0.166 C 
ATOM      5  H   UNL     1      -3.854  13.077   6.982  0.00  0.00    +0.163 HD
ATOM      6  H   UNL     1      -7.004  13.253   5.448  0.00  0.00    +0.159 HD
ATOM      7  H   UNL     1      -5.391  12.666   5.302  0.00  0.00    +0.159 HD
ATOM      8  H   UNL     1      -6.557  14.869   8.550  0.00  0.00    +0.159 HD
ATOM      9  H   UNL     1      -7.662  14.499   7.285  0.00  0.00    +0.159 HD
ENDROOT
BRANCH   1  10
ATOM     10  C   UNL     1      -4.071  14.254   8.744  0.00  0.00    +0.151 C 
BRANCH  10  11
ATOM     11  C   UNL     1      -2.688  13.759   9.066  0.00  0.00    -0.028 A 
ATOM     12  C   UNL     1      -2.433  12.385   9.184  0.00  0.00    +0.005 A 
ATOM     13  C   UNL     1      -1.627  14.660   9.249  0.00  0.00    +0.005 A 
ATOM     14  C   UNL     1      -1.142  11.924   9.453  0.00  0.00    +0.000 A 
ATOM     15  C   UNL     1      -0.340  14.195   9.519  0.00  0.00    +0.000 A 
ATOM     16  C   UNL     1      -0.097  12.827   9.619  0.00  0.00    +0.000 A 
ENDBRANCH  10  11
ENDBRANCH   1  10
TORSDOF 2
ENDMDL
MODEL 9
REMARK VINA RESULT:    -5.169      2.336      2.480
REMARK INTER + INTRA:          -5.913
REMARK INTER:                  -5.790
REMARK INTRA:                  -0.123
REMARK UNBOUND:                -0.140
REMARK  Name = 1550473
REMARK  2 active torsions:
REMARK  status: ('A' for Active; 'I' for Inactive)
REMARK    1  A    between atoms: N_1  and  C_4
REMARK    2  A    between atoms: C_4  and  C_5
REMARK                            x       y       z     vdW  Elec       q    Type
REMARK                         _______ _______ _______ _____ _____    ______ ____
ROOT
ATOM      1  N   UNL     1       6.435  13.083   5.567  0.00  0.00    -0.354 N 
ATOM      2  N   UNL     1       6.523  14.759   3.970  0.00  0.00    -0.372 N 
ATOM      3  N   UNL     1       6.669  12.572   3.292  0.00  0.00    -0.372 N 
ATOM      4  C   UNL     1       6.542  13.458   4.285  0.00  0.00    +0.166 C 
ATOM      5  H   UNL     1       6.372  13.805   6.276  0.00  0.00    +0.163 HD
ATOM      6  H   UNL     1       6.598  15.072   3.012  0.00  0.00    +0.159 HD
ATOM      7  H   UNL     1       6.413  15.477   4.677  0.00  0.00    +0.159 HD
ATOM      8  H   UNL     1       6.696  11.576   3.463  0.00  0.00    +0.159 HD
ATOM      9  H   UNL     1       6.758  12.866   2.327  0.00  0.00    +0.159 HD
ENDROOT
BRANCH   1  10
ATOM     10  C   UNL     1       6.391  11.691   6.011  0.00  0.00    +0.151 C 
BRANCH  10  11
ATOM     11  C   UNL     1       6.361  11.656   7.514  0.00  0.00    -0.028 A 
ATOM     12  C   UNL     1       6.377  10.431   8.197  0.00  0.00    +0.005 A 
ATOM     13  C   UNL     1       6.321  12.843   8.260  0.00  0.00    +0.005 A 
ATOM     14  C   UNL     1       6.379  10.398   9.594  0.00  0.00    +0.000 A 
ATOM     15  C   UNL     1       6.322  12.806   9.654  0.00  0.00    +0.000 A 
ATOM     16  C   UNL     1       6.353  11.583  10.321  0.00  0.00    +0.000 A 
ENDBRANCH  10  11
ENDBRANCH   1  10
TORSDOF 2
ENDMDL
