MODEL 1
REMARK VINA RESULT:    -5.261      0.000      0.000
REMARK INTER + INTRA:          -6.006
REMARK INTER:                  -5.876
REMARK INTRA:                  -0.129
REMARK UNBOUND:                -0.129
REMARK  Name = 1550473
REMARK  2 active torsions:
REMARK  status: ('A' for Active; 'I' for Inactive)
REMARK    1  A    between atoms: N_1  and  C_4
REMARK    2  A    between atoms: C_4  and  C_5
REMARK                            x       y       z     vdW  Elec       q    Type
REMARK                         _______ _______ _______ _____ _____    ______ ____
ROOT
ATOM      1  N   UNL     1      -1.993 -10.758   2.232  0.00  0.00    -0.354 N 
ATOM      2  N   UNL     1      -0.407 -10.519   3.903  0.00  0.00    -0.372 N 
ATOM      3  N   UNL     1      -1.171 -12.621   3.392  0.00  0.00    -0.372 N 
ATOM      4  C   UNL     1      -1.201 -11.304   3.165  0.00  0.00    +0.166 C 
ATOM      5  H   UNL     1      -1.991  -9.750   2.130  0.00  0.00    +0.163 HD
ATOM      6  H   UNL     1       0.204 -10.903   4.612  0.00  0.00    +0.159 HD
ATOM      7  H   UNL     1      -0.373  -9.516   3.767  0.00  0.00    +0.159 HD
ATOM      8  H   UNL     1      -1.751 -13.267   2.873  0.00  0.00    +0.159 HD
ATOM      9  H   UNL     1      -0.576 -13.023   4.105  0.00  0.00    +0.159 HD
ENDROOT
BRANCH   1  10
ATOM     10  C   UNL     1      -2.855 -11.529   1.339  0.00  0.00    +0.151 C 
BRANCH  10  11
ATOM     11  C   UNL     1      -2.370 -11.365  -0.075  0.00  0.00    -0.028 A 
ATOM     12  C   UNL     1      -3.247 -10.943  -1.085  0.00  0.00    +0.005 A 
ATOM     13  C   UNL     1      -1.032 -11.625  -0.410  0.00  0.00    +0.005 A 
ATOM     14  C   UNL     1      -2.789 -10.762  -2.392  0.00  0.00    +0.000 A 
ATOM     15  C   UNL     1      -0.579 -11.444  -1.717  0.00  0.00    +0.000 A 
ATOM     16  C   UNL     1      -1.458 -11.010  -2.707  0.00  0.00    +0.000 A 
ENDBRANCH  10  11
ENDBRANCH   1  10
TORSDOF 2
ENDMDL
MODEL 2
REMARK VINA RESULT:    -4.974     26.223     26.990
REMARK INTER + INTRA:          -5.685
REMARK INTER:                  -5.577
REMARK INTRA:                  -0.108
REMARK UNBOUND:                -0.129
REMARK  Name = 1550473
REMARK  2 active torsions:
REMARK  status: ('A' for Active; 'I' for Inactive)
REMARK    1  A    between atoms: N_1  and  C_4
REMARK    2  A    between atoms: C_4  and  C_5
REMARK                            x       y       z     vdW  Elec       q    Type
REMARK                         _______ _______ _______ _____ _____    ______ ____
ROOT
ATOM      1  N   UNL     1     -12.492  10.953  11.229  0.00  0.00    -0.354 N 
ATOM      2  N   UNL     1     -14.375  10.461  12.484  0.00  0.00    -0.372 N 
ATOM      3  N   UNL     1     -13.404   8.794  11.241  0.00  0.00    -0.372 N 
ATOM      4  C   UNL     1     -13.411  10.070  11.642  0.00  0.00    +0.166 C 
ATOM      5  H   UNL     1     -12.570  11.913  11.546  0.00  0.00    +0.163 HD
ATOM      6  H   UNL     1     -15.080   9.816  12.816  0.00  0.00    +0.159 HD
ATOM      7  H   UNL     1     -14.424  11.409  12.835  0.00  0.00    +0.159 HD
ATOM      8  H   UNL     1     -12.707   8.438  10.601  0.00  0.00    +0.159 HD
ATOM      9  H   UNL     1     -14.108   8.137  11.552  0.00  0.00    +0.159 HD
ENDROOT
BRANCH   1  10
ATOM     10  C   UNL     1     -11.370  10.617  10.355  0.00  0.00    +0.151 C 
BRANCH  10  11
ATOM     11  C   UNL     1     -10.764  11.886   9.822  0.00  0.00    -0.028 A 
ATOM     12  C   UNL     1     -10.551  12.983  10.670  0.00  0.00    +0.005 A 
ATOM     13  C   UNL     1     -10.396  11.996   8.473  0.00  0.00    +0.005 A 
ATOM     14  C   UNL     1      -9.961  14.152  10.182  0.00  0.00    +0.000 A 
ATOM     15  C   UNL     1      -9.808  13.165   7.990  0.00  0.00    +0.000 A 
ATOM     16  C   UNL     1      -9.588  14.242   8.846  0.00  0.00    +0.000 A 
ENDBRANCH  10  11
ENDBRANCH   1  10
TORSDOF 2
ENDMDL
MODEL 3
REMARK VINA RESULT:    -4.943     18.296     19.351
REMARK INTER + INTRA:          -5.650
REMARK INTER:                  -5.550
REMARK INTRA:                  -0.100
REMARK UNBOUND:                -0.129
REMARK  Name = 1550473
REMARK  2 active torsions:
REMARK  status: ('A' for Active; 'I' for Inactive)
REMARK    1  A    between atoms: N_1  and  C_4
REMARK    2  A    between atoms: C_4  and  C_5
REMARK                            x       y       z     vdW  Elec       q    Type
REMARK                         _______ _______ _______ _____ _____    ______ ____
ROOT
ATOM      1  N   UNL     1      -6.572  -5.813 -17.744  0.00  0.00    -0.354 N 
ATOM      2  N   UNL     1      -6.628  -3.610 -17.031  0.00  0.00    -0.372 N 
ATOM      3  N   UNL     1      -8.397  -4.430 -18.241  0.00  0.00    -0.372 N 
ATOM      4  C   UNL     1      -7.201  -4.632 -17.678  0.00  0.00    +0.166 C 
ATOM      5  H   UNL     1      -5.653  -5.893 -17.323  0.00  0.00    +0.163 HD
ATOM      6  H   UNL     1      -7.081  -2.708 -16.962  0.00  0.00    +0.159 HD
ATOM      7  H   UNL     1      -5.731  -3.706 -16.571  0.00  0.00    +0.159 HD
ATOM      8  H   UNL     1      -8.880  -5.159 -18.749  0.00  0.00    +0.159 HD
ATOM      9  H   UNL     1      -8.861  -3.531 -18.193  0.00  0.00    +0.159 HD
ENDROOT
BRANCH   1  10
ATOM     10  C   UNL     1      -7.133  -7.004 -18.378  0.00  0.00    +0.151 C 
BRANCH  10  11
ATOM     11  C   UNL     1      -6.576  -8.228 -17.705  0.00  0.00    -0.028 A 
ATOM     12  C   UNL     1      -7.423  -9.112 -17.021  0.00  0.00    +0.005 A 
ATOM     13  C   UNL     1      -5.202  -8.512 -17.752  0.00  0.00    +0.005 A 
ATOM     14  C   UNL     1      -6.910 -10.265 -16.421  0.00  0.00    +0.000 A 
ATOM     15  C   UNL     1      -4.694  -9.663 -17.151  0.00  0.00    +0.000 A 
ATOM     16  C   UNL     1      -5.548 -10.541 -16.488  0.00  0.00    +0.000 A 
ENDBRANCH  10  11
ENDBRANCH   1  10
TORSDOF 2
ENDMDL
MODEL 4
REMARK VINA RESULT:    -4.894     24.353     25.262
REMARK INTER + INTRA:          -5.596
REMARK INTER:                  -5.459
REMARK INTRA:                  -0.137
REMARK UNBOUND:                -0.129
REMARK  Name = 1550473
REMARK  2 active torsions:
REMARK  status: ('A' for Active; 'I' for Inactive)
REMARK    1  A    between atoms: N_1  and  C_4
REMARK    2  A    between atoms: C_4  and  C_5
REMARK                            x       y       z     vdW  Elec       q    Type
REMARK                         _______ _______ _______ _____ _____    ______ ____
ROOT
ATOM      1  N   UNL     1      -2.806  11.643   6.703  0.00  0.00    -0.354 N 
ATOM      2  N   UNL     1      -0.762  12.638   6.262  0.00  0.00    -0.372 N 
ATOM      3  N   UNL     1      -2.453  12.851   4.726  0.00  0.00    -0.372 N 
ATOM      4  C   UNL     1      -2.022  12.371   5.898  0.00  0.00    +0.166 C 
ATOM      5  H   UNL     1      -2.410  11.283   7.564  0.00  0.00    +0.163 HD
ATOM      6  H   UNL     1      -0.148  13.188   5.677  0.00  0.00    +0.159 HD
ATOM      7  H   UNL     1      -0.383  12.316   7.145  0.00  0.00    +0.159 HD
ATOM      8  H   UNL     1      -3.392  12.680   4.391  0.00  0.00    +0.159 HD
ATOM      9  H   UNL     1      -1.850  13.394   4.121  0.00  0.00    +0.159 HD
ENDROOT
BRANCH   1  10
ATOM     10  C   UNL     1      -4.209  11.341   6.424  0.00  0.00    +0.151 C 
BRANCH  10  11
ATOM     11  C   UNL     1      -5.079  12.165   7.333  0.00  0.00    -0.028 A 
ATOM     12  C   UNL     1      -4.542  12.764   8.482  0.00  0.00    +0.005 A 
ATOM     13  C   UNL     1      -6.440  12.355   7.048  0.00  0.00    +0.005 A 
ATOM     14  C   UNL     1      -5.343  13.554   9.310  0.00  0.00    +0.000 A 
ATOM     15  C   UNL     1      -7.236  13.144   7.878  0.00  0.00    +0.000 A 
ATOM     16  C   UNL     1      -6.687  13.745   9.007  0.00  0.00    +0.000 A 
ENDBRANCH  10  11
ENDBRANCH   1  10
TORSDOF 2
ENDMDL
MODEL 5
REMARK VINA RESULT:    -4.827     26.645     27.536
REMARK INTER + INTRA:          -5.521
REMARK INTER:                  -5.352
REMARK INTRA:                  -0.169
REMARK UNBOUND:                -0.129
REMARK  Name = 1550473
REMARK  2 active torsions:
REMARK  status: ('A' for Active; 'I' for Inactive)
REMARK    1  A    between atoms: N_1  and  C_4
REMARK    2  A    between atoms: C_4  and  C_5
REMARK                            x       y       z     vdW  Elec       q    Type
REMARK                         _______ _______ _______ _____ _____    ______ ____
ROOT
ATOM      1  N   UNL     1      -0.311  13.283   6.705  0.00  0.00    -0.354 N 
ATOM      2  N   UNL     1      -2.197  11.998   6.314  0.00  0.00    -0.372 N 
ATOM      3  N   UNL     1      -1.539  13.514   4.723  0.00  0.00    -0.372 N 
ATOM      4  C   UNL     1      -1.337  12.942   5.914  0.00  0.00    +0.166 C 
ATOM      5  H   UNL     1      -0.230  12.834   7.610  0.00  0.00    +0.163 HD
ATOM      6  H   UNL     1      -2.979  11.717   5.737  0.00  0.00    +0.159 HD
ATOM      7  H   UNL     1      -2.088  11.517   7.199  0.00  0.00    +0.159 HD
ATOM      8  H   UNL     1      -0.929  14.237   4.366  0.00  0.00    +0.159 HD
ATOM      9  H   UNL     1      -2.322  13.254   4.136  0.00  0.00    +0.159 HD
ENDROOT
BRANCH   1  10
ATOM     10  C   UNL     1       0.713  14.261   6.340  0.00  0.00    +0.151 C 
BRANCH  10  11
ATOM     11  C   UNL     1       0.424  15.560   7.041  0.00  0.00    -0.028 A 
ATOM     12  C   UNL     1       0.538  16.779   6.357  0.00  0.00    +0.005 A 
ATOM     13  C   UNL     1       0.030  15.578   8.388  0.00  0.00    +0.005 A 
ATOM     14  C   UNL     1       0.241  17.983   6.999  0.00  0.00    +0.000 A 
ATOM     15  C   UNL     1      -0.266  16.783   9.025  0.00  0.00    +0.000 A 
ATOM     16  C   UNL     1      -0.162  17.985   8.330  0.00  0.00    +0.000 A 
ENDBRANCH  10  11
ENDBRANCH   1  10
TORSDOF 2
ENDMDL
MODEL 6
REMARK VINA RESULT:    -4.778     20.890     22.226
REMARK INTER + INTRA:          -5.466
REMARK INTER:                  -5.336
REMARK INTRA:                  -0.130
REMARK UNBOUND:                -0.129
REMARK  Name = 1550473
REMARK  2 active torsions:
REMARK  status: ('A' for Active; 'I' for Inactive)
REMARK    1  A    between atoms: N_1  and  C_4
REMARK    2  A    between atoms: C_4  and  C_5
REMARK                            x       y       z     vdW  Elec       q    Type
REMARK                         _______ _______ _______ _____ _____    ______ ____
ROOT
ATOM      1  N   UNL     1      17.024  -7.750  -8.413  0.00  0.00    -0.354 N 
ATOM      2  N   UNL     1      15.446  -9.062  -7.340  0.00  0.00    -0.372 N 
ATOM      3  N   UNL     1      16.323  -7.254  -6.232  0.00  0.00    -0.372 N 
ATOM      4  C   UNL     1      16.276  -8.012  -7.333  0.00  0.00    +0.166 C 
ATOM      5  H   UNL     1      16.964  -8.380  -9.204  0.00  0.00    +0.163 HD
ATOM      6  H   UNL     1      14.866  -9.283  -6.541  0.00  0.00    +0.159 HD
ATOM      7  H   UNL     1      15.354  -9.664  -8.149  0.00  0.00    +0.159 HD
ATOM      8  H   UNL     1      16.933  -6.451  -6.161  0.00  0.00    +0.159 HD
ATOM      9  H   UNL     1      15.760  -7.466  -5.418  0.00  0.00    +0.159 HD
ENDROOT
BRANCH   1  10
ATOM     10  C   UNL     1      17.919  -6.600  -8.528  0.00  0.00    +0.151 C 
BRANCH  10  11
ATOM     11  C   UNL     1      17.941  -6.136  -9.958  0.00  0.00    -0.028 A 
ATOM     12  C   UNL     1      19.107  -5.585 -10.510  0.00  0.00    +0.005 A 
ATOM     13  C   UNL     1      16.801  -6.249 -10.768  0.00  0.00    +0.005 A 
ATOM     14  C   UNL     1      19.137  -5.181 -11.847  0.00  0.00    +0.000 A 
ATOM     15  C   UNL     1      16.835  -5.844 -12.103  0.00  0.00    +0.000 A 
ATOM     16  C   UNL     1      18.003  -5.313 -12.642  0.00  0.00    +0.000 A 
ENDBRANCH  10  11
ENDBRANCH   1  10
TORSDOF 2
ENDMDL
MODEL 7
REMARK VINA RESULT:    -4.767     24.445     25.142
REMARK INTER + INTRA:          -5.454
REMARK INTER:                  -5.282
REMARK INTRA:                  -0.172
REMARK UNBOUND:                -0.129
REMARK  Name = 1550473
REMARK  2 active torsions:
REMARK  status: ('A' for Active; 'I' for Inactive)
REMARK    1  A    between atoms: N_1  and  C_4
REMARK    2  A    between atoms: C_4  and  C_5
REMARK                            x       y       z     vdW  Elec       q    Type
REMARK                         _______ _______ _______ _____ _____    ______ ____
ROOT
ATOM      1  N   UNL     1      -6.823  13.856   3.712  0.00  0.00    -0.354 N 
ATOM      2  N   UNL     1      -6.099  15.860   2.803  0.00  0.00    -0.372 N 
ATOM      3  N   UNL     1      -5.016  13.922   2.221  0.00  0.00    -0.372 N 
ATOM      4  C   UNL     1      -5.982  14.531   2.917  0.00  0.00    +0.166 C 
ATOM      5  H   UNL     1      -7.514  14.380   4.236  0.00  0.00    +0.163 HD
ATOM      6  H   UNL     1      -5.482  16.395   2.208  0.00  0.00    +0.159 HD
ATOM      7  H   UNL     1      -6.821  16.375   3.292  0.00  0.00    +0.159 HD
ATOM      8  H   UNL     1      -4.871  12.923   2.268  0.00  0.00    +0.159 HD
ATOM      9  H   UNL     1      -4.380  14.443   1.630  0.00  0.00    +0.159 HD
ENDROOT
BRANCH   1  10
ATOM     10  C   UNL     1      -6.814  12.402   3.864  0.00  0.00    +0.151 C 
BRANCH  10  11
ATOM     11  C   UNL     1      -6.041  12.043   5.103  0.00  0.00    -0.028 A 
ATOM     12  C   UNL     1      -6.632  12.161   6.370  0.00  0.00    +0.005 A 
ATOM     13  C   UNL     1      -4.720  11.577   5.017  0.00  0.00    +0.005 A 
ATOM     14  C   UNL     1      -5.925  11.799   7.519  0.00  0.00    +0.000 A 
ATOM     15  C   UNL     1      -4.018  11.218   6.167  0.00  0.00    +0.000 A 
ATOM     16  C   UNL     1      -4.621  11.326   7.417  0.00  0.00    +0.000 A 
ENDBRANCH  10  11
ENDBRANCH   1  10
TORSDOF 2
ENDMDL
MODEL 8
REMARK VINA RESULT:    -4.761     17.476     18.745
REMARK INTER + INTRA:          -5.447
REMARK INTER:                  -5.285
REMARK INTRA:                  -0.162
REMARK UNBOUND:                -0.129
REMARK  Name = 1550473
REMARK  2 active torsions:
REMARK  status: ('A' for Active; 'I' for Inactive)
REMARK    1  A    between atoms: N_1  and  C_4
REMARK    2  A    between atoms: C_4  and  C_5
REMARK                            x       y       z     vdW  Elec       q    Type
REMARK                         _______ _______ _______ _____ _____    ______ ____
ROOT
ATOM      1  N   UNL     1      -8.424  -7.471 -17.492  0.00  0.00    -0.354 N 
ATOM      2  N   UNL     1      -9.350  -5.576 -16.536  0.00  0.00    -0.372 N 
ATOM      3  N   UNL     1     -10.666  -7.435 -16.810  0.00  0.00    -0.372 N 
ATOM      4  C   UNL     1      -9.476  -6.841 -16.952  0.00  0.00    +0.166 C 
ATOM      5  H   UNL     1      -7.558  -6.956 -17.600  0.00  0.00    +0.163 HD
ATOM      6  H   UNL     1     -10.125  -5.076 -16.121  0.00  0.00    +0.159 HD
ATOM      7  H   UNL     1      -8.470  -5.078 -16.602  0.00  0.00    +0.159 HD
ATOM      8  H   UNL     1     -10.829  -8.387 -17.110  0.00  0.00    +0.159 HD
ATOM      9  H   UNL     1     -11.457  -6.948 -16.409  0.00  0.00    +0.159 HD
ENDROOT
BRANCH   1  10
ATOM     10  C   UNL     1      -8.442  -8.866 -17.928  0.00  0.00    +0.151 C 
BRANCH  10  11
ATOM     11  C   UNL     1      -7.640  -9.693 -16.962  0.00  0.00    -0.028 A 
ATOM     12  C   UNL     1      -6.319  -9.341 -16.649  0.00  0.00    +0.005 A 
ATOM     13  C   UNL     1      -8.196 -10.827 -16.352  0.00  0.00    +0.005 A 
ATOM     14  C   UNL     1      -5.583 -10.091 -15.729  0.00  0.00    +0.000 A 
ATOM     15  C   UNL     1      -7.458 -11.575 -15.434  0.00  0.00    +0.000 A 
ATOM     16  C   UNL     1      -6.153 -11.205 -15.121  0.00  0.00    +0.000 A 
ENDBRANCH  10  11
ENDBRANCH   1  10
TORSDOF 2
ENDMDL
MODEL 9
REMARK VINA RESULT:    -4.735     17.513     19.024
REMARK INTER + INTRA:          -5.418
REMARK INTER:                  -5.326
REMARK INTRA:                  -0.092
REMARK UNBOUND:                -0.129
REMARK  Name = 1550473
REMARK  2 active torsions:
REMARK  status: ('A' for Active; 'I' for Inactive)
REMARK    1  A    between atoms: N_1  and  C_4
REMARK    2  A    between atoms: C_4  and  C_5
REMARK                            x       y       z     vdW  Elec       q    Type
REMARK                         _______ _______ _______ _____ _____    ______ ____
ROOT
ATOM      1  N   UNL     1      -7.937  -7.322 -17.496  0.00  0.00    -0.354 N 
ATOM      2  N   UNL     1      -8.843  -5.190 -17.518  0.00  0.00    -0.372 N 
ATOM      3  N   UNL     1      -7.300  -5.757 -19.120  0.00  0.00    -0.372 N 
ATOM      4  C   UNL     1      -8.019  -6.103 -18.047  0.00  0.00    +0.166 C 
ATOM      5  H   UNL     1      -8.486  -7.512 -16.665  0.00  0.00    +0.163 HD
ATOM      6  H   UNL     1      -8.928  -4.263 -17.914  0.00  0.00    +0.159 HD
ATOM      7  H   UNL     1      -9.424  -5.398 -16.716  0.00  0.00    +0.159 HD
ATOM      8  H   UNL     1      -6.656  -6.398 -19.562  0.00  0.00    +0.159 HD
ATOM      9  H   UNL     1      -7.363  -4.830 -19.523  0.00  0.00    +0.159 HD
ENDROOT
BRANCH   1  10
ATOM     10  C   UNL     1      -7.111  -8.405 -18.026  0.00  0.00    +0.151 C 
BRANCH  10  11
ATOM     11  C   UNL     1      -7.036  -9.509 -17.008  0.00  0.00    -0.028 A 
ATOM     12  C   UNL     1      -8.083 -10.433 -16.881  0.00  0.00    +0.005 A 
ATOM     13  C   UNL     1      -5.918  -9.639 -16.170  0.00  0.00    +0.005 A 
ATOM     14  C   UNL     1      -8.000 -11.477 -15.956  0.00  0.00    +0.000 A 
ATOM     15  C   UNL     1      -5.839 -10.682 -15.247  0.00  0.00    +0.000 A 
ATOM     16  C   UNL     1      -6.880 -11.602 -15.142  0.00  0.00    +0.000 A 
ENDBRANCH  10  11
ENDBRANCH   1  10
TORSDOF 2
ENDMDL
