MODEL 1
REMARK VINA RESULT:    -5.482      0.000      0.000
REMARK INTER + INTRA:          -6.236
REMARK INTER:                  -6.123
REMARK INTRA:                  -0.113
REMARK UNBOUND:                -0.113
REMARK  Name = 1550473
REMARK  2 active torsions:
REMARK  status: ('A' for Active; 'I' for Inactive)
REMARK    1  A    between atoms: N_1  and  C_4
REMARK    2  A    between atoms: C_4  and  C_5
REMARK                            x       y       z     vdW  Elec       q    Type
REMARK                         _______ _______ _______ _____ _____    ______ ____
ROOT
ATOM      1  N   UNL     1       1.691  -4.531  -2.093  0.00  0.00    -0.354 N 
ATOM      2  N   UNL     1      -0.332  -4.547  -0.966  0.00  0.00    -0.372 N 
ATOM      3  N   UNL     1       1.019  -2.700  -0.794  0.00  0.00    -0.372 N 
ATOM      4  C   UNL     1       0.807  -3.924  -1.291  0.00  0.00    +0.166 C 
ATOM      5  H   UNL     1       1.485  -5.471  -2.412  0.00  0.00    +0.163 HD
ATOM      6  H   UNL     1      -1.020  -4.112  -0.365  0.00  0.00    +0.159 HD
ATOM      7  H   UNL     1      -0.556  -5.468  -1.323  0.00  0.00    +0.159 HD
ATOM      8  H   UNL     1       1.861  -2.179  -0.997  0.00  0.00    +0.159 HD
ATOM      9  H   UNL     1       0.348  -2.253  -0.182  0.00  0.00    +0.159 HD
ENDROOT
BRANCH   1  10
ATOM     10  C   UNL     1       2.936  -3.918  -2.551  0.00  0.00    +0.151 C 
BRANCH  10  11
ATOM     11  C   UNL     1       3.507  -4.741  -3.672  0.00  0.00    -0.028 A 
ATOM     12  C   UNL     1       3.394  -6.139  -3.657  0.00  0.00    +0.005 A 
ATOM     13  C   UNL     1       4.155  -4.130  -4.756  0.00  0.00    +0.005 A 
ATOM     14  C   UNL     1       3.898  -6.903  -4.713  0.00  0.00    +0.000 A 
ATOM     15  C   UNL     1       4.657  -4.896  -5.808  0.00  0.00    +0.000 A 
ATOM     16  C   UNL     1       4.526  -6.282  -5.787  0.00  0.00    +0.000 A 
ENDBRANCH  10  11
ENDBRANCH   1  10
TORSDOF 2
ENDMDL
MODEL 2
REMARK VINA RESULT:    -5.221     16.725     17.770
REMARK INTER + INTRA:          -5.944
REMARK INTER:                  -5.827
REMARK INTRA:                  -0.117
REMARK UNBOUND:                -0.113
REMARK  Name = 1550473
REMARK  2 active torsions:
REMARK  status: ('A' for Active; 'I' for Inactive)
REMARK    1  A    between atoms: N_1  and  C_4
REMARK    2  A    between atoms: C_4  and  C_5
REMARK                            x       y       z     vdW  Elec       q    Type
REMARK                         _______ _______ _______ _____ _____    ______ ____
ROOT
ATOM      1  N   UNL     1       4.371 -12.922 -18.955  0.00  0.00    -0.354 N 
ATOM      2  N   UNL     1       2.407 -13.811 -19.804  0.00  0.00    -0.372 N 
ATOM      3  N   UNL     1       2.352 -12.729 -17.781  0.00  0.00    -0.372 N 
ATOM      4  C   UNL     1       3.055 -13.147 -18.839  0.00  0.00    +0.166 C 
ATOM      5  H   UNL     1       4.852 -13.291 -19.767  0.00  0.00    +0.163 HD
ATOM      6  H   UNL     1       1.414 -13.993 -19.745  0.00  0.00    +0.159 HD
ATOM      7  H   UNL     1       2.882 -14.139 -20.636  0.00  0.00    +0.159 HD
ATOM      8  H   UNL     1       2.783 -12.228 -17.016  0.00  0.00    +0.159 HD
ATOM      9  H   UNL     1       1.360 -12.912 -17.698  0.00  0.00    +0.159 HD
ENDROOT
BRANCH   1  10
ATOM     10  C   UNL     1       5.160 -12.163 -17.987  0.00  0.00    +0.151 C 
BRANCH  10  11
ATOM     11  C   UNL     1       6.494 -11.828 -18.594  0.00  0.00    -0.028 A 
ATOM     12  C   UNL     1       7.657 -11.845 -17.810  0.00  0.00    +0.005 A 
ATOM     13  C   UNL     1       6.603 -11.500 -19.954  0.00  0.00    +0.005 A 
ATOM     14  C   UNL     1       8.901 -11.563 -18.381  0.00  0.00    +0.000 A 
ATOM     15  C   UNL     1       7.846 -11.219 -20.520  0.00  0.00    +0.000 A 
ATOM     16  C   UNL     1       8.995 -11.253 -19.733  0.00  0.00    +0.000 A 
ENDBRANCH  10  11
ENDBRANCH   1  10
TORSDOF 2
ENDMDL
MODEL 3
REMARK VINA RESULT:    -5.182      1.165      2.015
REMARK INTER + INTRA:          -5.901
REMARK INTER:                  -5.776
REMARK INTRA:                  -0.125
REMARK UNBOUND:                -0.113
REMARK  Name = 1550473
REMARK  2 active torsions:
REMARK  status: ('A' for Active; 'I' for Inactive)
REMARK    1  A    between atoms: N_1  and  C_4
REMARK    2  A    between atoms: C_4  and  C_5
REMARK                            x       y       z     vdW  Elec       q    Type
REMARK                         _______ _______ _______ _____ _____    ______ ____
ROOT
ATOM      1  N   UNL     1       0.975  -4.463  -1.171  0.00  0.00    -0.354 N 
ATOM      2  N   UNL     1      -0.788  -5.252   0.107  0.00  0.00    -0.372 N 
ATOM      3  N   UNL     1      -0.670  -3.007  -0.353  0.00  0.00    -0.372 N 
ATOM      4  C   UNL     1      -0.150  -4.233  -0.481  0.00  0.00    +0.166 C 
ATOM      5  H   UNL     1       1.334  -5.410  -1.204  0.00  0.00    +0.163 HD
ATOM      6  H   UNL     1      -1.640  -5.110   0.631  0.00  0.00    +0.159 HD
ATOM      7  H   UNL     1      -0.452  -6.205   0.033  0.00  0.00    +0.159 HD
ATOM      8  H   UNL     1      -0.233  -2.195  -0.768  0.00  0.00    +0.159 HD
ATOM      9  H   UNL     1      -1.516  -2.843   0.177  0.00  0.00    +0.159 HD
ENDROOT
BRANCH   1  10
ATOM     10  C   UNL     1       1.717  -3.431  -1.893  0.00  0.00    +0.151 C 
BRANCH  10  11
ATOM     11  C   UNL     1       2.645  -4.089  -2.876  0.00  0.00    -0.028 A 
ATOM     12  C   UNL     1       3.440  -3.315  -3.734  0.00  0.00    +0.005 A 
ATOM     13  C   UNL     1       2.738  -5.488  -2.951  0.00  0.00    +0.005 A 
ATOM     14  C   UNL     1       4.324  -3.926  -4.626  0.00  0.00    +0.000 A 
ATOM     15  C   UNL     1       3.621  -6.094  -3.844  0.00  0.00    +0.000 A 
ATOM     16  C   UNL     1       4.416  -5.313  -4.680  0.00  0.00    +0.000 A 
ENDBRANCH  10  11
ENDBRANCH   1  10
TORSDOF 2
ENDMDL
MODEL 4
REMARK VINA RESULT:    -5.084      2.381      5.357
REMARK INTER + INTRA:          -5.791
REMARK INTER:                  -5.667
REMARK INTRA:                  -0.124
REMARK UNBOUND:                -0.113
REMARK  Name = 1550473
REMARK  2 active torsions:
REMARK  status: ('A' for Active; 'I' for Inactive)
REMARK    1  A    between atoms: N_1  and  C_4
REMARK    2  A    between atoms: C_4  and  C_5
REMARK                            x       y       z     vdW  Elec       q    Type
REMARK                         _______ _______ _______ _____ _____    ______ ____
ROOT
ATOM      1  N   UNL     1       2.920  -3.693  -3.223  0.00  0.00    -0.354 N 
ATOM      2  N   UNL     1       4.488  -2.700  -4.609  0.00  0.00    -0.372 N 
ATOM      3  N   UNL     1       4.449  -4.988  -4.440  0.00  0.00    -0.372 N 
ATOM      4  C   UNL     1       3.943  -3.803  -4.082  0.00  0.00    +0.166 C 
ATOM      5  H   UNL     1       2.602  -2.765  -2.969  0.00  0.00    +0.163 HD
ATOM      6  H   UNL     1       5.258  -2.751  -5.262  0.00  0.00    +0.159 HD
ATOM      7  H   UNL     1       4.138  -1.775  -4.388  0.00  0.00    +0.159 HD
ATOM      8  H   UNL     1       4.086  -5.858  -4.073  0.00  0.00    +0.159 HD
ATOM      9  H   UNL     1       5.227  -5.059  -5.083  0.00  0.00    +0.159 HD
ENDROOT
BRANCH   1  10
ATOM     10  C   UNL     1       2.221  -4.834  -2.634  0.00  0.00    +0.151 C 
BRANCH  10  11
ATOM     11  C   UNL     1       1.373  -4.353  -1.490  0.00  0.00    -0.028 A 
ATOM     12  C   UNL     1       0.382  -5.180  -0.941  0.00  0.00    +0.005 A 
ATOM     13  C   UNL     1       1.559  -3.073  -0.945  0.00  0.00    +0.005 A 
ATOM     14  C   UNL     1      -0.386  -4.745   0.142  0.00  0.00    +0.000 A 
ATOM     15  C   UNL     1       0.790  -2.642   0.136  0.00  0.00    +0.000 A 
ATOM     16  C   UNL     1      -0.181  -3.479   0.680  0.00  0.00    +0.000 A 
ENDBRANCH  10  11
ENDBRANCH   1  10
TORSDOF 2
ENDMDL
MODEL 5
REMARK VINA RESULT:    -4.911     12.050     13.176
REMARK INTER + INTRA:          -5.598
REMARK INTER:                  -5.457
REMARK INTRA:                  -0.141
REMARK UNBOUND:                -0.113
REMARK  Name = 1550473
REMARK  2 active torsions:
REMARK  status: ('A' for Active; 'I' for Inactive)
REMARK    1  A    between atoms: N_1  and  C_4
REMARK    2  A    between atoms: C_4  and  C_5
REMARK                            x       y       z     vdW  Elec       q    Type
REMARK                         _______ _______ _______ _____ _____    ______ ____
ROOT
ATOM      1  N   UNL     1       1.503   4.691 -12.858  0.00  0.00    -0.354 N 
ATOM      2  N   UNL     1       0.551   6.291 -14.236  0.00  0.00    -0.372 N 
ATOM      3  N   UNL     1       2.382   5.129 -14.986  0.00  0.00    -0.372 N 
ATOM      4  C   UNL     1       1.487   5.359 -14.019  0.00  0.00    +0.166 C 
ATOM      5  H   UNL     1       0.816   4.933 -12.154  0.00  0.00    +0.163 HD
ATOM      6  H   UNL     1       0.512   6.809 -15.103  0.00  0.00    +0.159 HD
ATOM      7  H   UNL     1      -0.162   6.499 -13.548  0.00  0.00    +0.159 HD
ATOM      8  H   UNL     1       3.118   4.442 -14.882  0.00  0.00    +0.159 HD
ATOM      9  H   UNL     1       2.367   5.645 -15.856  0.00  0.00    +0.159 HD
ENDROOT
BRANCH   1  10
ATOM     10  C   UNL     1       2.447   3.619 -12.544  0.00  0.00    +0.151 C 
BRANCH  10  11
ATOM     11  C   UNL     1       2.989   3.833 -11.158  0.00  0.00    -0.028 A 
ATOM     12  C   UNL     1       2.816   5.064 -10.508  0.00  0.00    +0.005 A 
ATOM     13  C   UNL     1       3.671   2.807 -10.487  0.00  0.00    +0.005 A 
ATOM     14  C   UNL     1       3.293   5.253  -9.208  0.00  0.00    +0.000 A 
ATOM     15  C   UNL     1       4.147   3.000  -9.190  0.00  0.00    +0.000 A 
ATOM     16  C   UNL     1       3.955   4.222  -8.550  0.00  0.00    +0.000 A 
ENDBRANCH  10  11
ENDBRANCH   1  10
TORSDOF 2
ENDMDL
MODEL 6
REMARK VINA RESULT:    -4.871     10.379     11.526
REMARK INTER + INTRA:          -5.553
REMARK INTER:                  -5.425
REMARK INTRA:                  -0.128
REMARK UNBOUND:                -0.113
REMARK  Name = 1550473
REMARK  2 active torsions:
REMARK  status: ('A' for Active; 'I' for Inactive)
REMARK    1  A    between atoms: N_1  and  C_4
REMARK    2  A    between atoms: C_4  and  C_5
REMARK                            x       y       z     vdW  Elec       q    Type
REMARK                         _______ _______ _______ _____ _____    ______ ____
ROOT
ATOM      1  N   UNL     1       2.453   6.103  -3.176  0.00  0.00    -0.354 N 
ATOM      2  N   UNL     1       4.171   5.565  -1.718  0.00  0.00    -0.372 N 
ATOM      3  N   UNL     1       2.562   3.991  -2.166  0.00  0.00    -0.372 N 
ATOM      4  C   UNL     1       3.049   5.221  -2.362  0.00  0.00    +0.166 C 
ATOM      5  H   UNL     1       2.856   7.030  -3.259  0.00  0.00    +0.163 HD
ATOM      6  H   UNL     1       4.645   4.920  -1.101  0.00  0.00    +0.159 HD
ATOM      7  H   UNL     1       4.596   6.476  -1.838  0.00  0.00    +0.159 HD
ATOM      8  H   UNL     1       1.716   3.672  -2.618  0.00  0.00    +0.159 HD
ATOM      9  H   UNL     1       3.016   3.335  -1.543  0.00  0.00    +0.159 HD
ENDROOT
BRANCH   1  10
ATOM     10  C   UNL     1       1.258   5.810  -3.965  0.00  0.00    +0.151 C 
BRANCH  10  11
ATOM     11  C   UNL     1       1.447   6.342  -5.359  0.00  0.00    -0.028 A 
ATOM     12  C   UNL     1       2.409   5.780  -6.211  0.00  0.00    +0.005 A 
ATOM     13  C   UNL     1       0.665   7.405  -5.834  0.00  0.00    +0.005 A 
ATOM     14  C   UNL     1       2.564   6.255  -7.516  0.00  0.00    +0.000 A 
ATOM     15  C   UNL     1       0.823   7.877  -7.137  0.00  0.00    +0.000 A 
ATOM     16  C   UNL     1       1.771   7.300  -7.979  0.00  0.00    +0.000 A 
ENDBRANCH  10  11
ENDBRANCH   1  10
TORSDOF 2
ENDMDL
MODEL 7
REMARK VINA RESULT:    -4.660     10.578     11.440
REMARK INTER + INTRA:          -5.318
REMARK INTER:                  -5.225
REMARK INTRA:                  -0.093
REMARK UNBOUND:                -0.113
REMARK  Name = 1550473
REMARK  2 active torsions:
REMARK  status: ('A' for Active; 'I' for Inactive)
REMARK    1  A    between atoms: N_1  and  C_4
REMARK    2  A    between atoms: C_4  and  C_5
REMARK                            x       y       z     vdW  Elec       q    Type
REMARK                         _______ _______ _______ _____ _____    ______ ____
ROOT
ATOM      1  N   UNL     1      -0.411   5.386  -3.962  0.00  0.00    -0.354 N 
ATOM      2  N   UNL     1      -2.325   4.386  -3.125  0.00  0.00    -0.372 N 
ATOM      3  N   UNL     1      -1.327   6.059  -1.913  0.00  0.00    -0.372 N 
ATOM      4  C   UNL     1      -1.341   5.285  -3.003  0.00  0.00    +0.166 C 
ATOM      5  H   UNL     1      -0.460   4.749  -4.749  0.00  0.00    +0.163 HD
ATOM      6  H   UNL     1      -3.043   4.289  -2.419  0.00  0.00    +0.159 HD
ATOM      7  H   UNL     1      -2.398   3.782  -3.935  0.00  0.00    +0.159 HD
ATOM      8  H   UNL     1      -0.608   6.754  -1.758  0.00  0.00    +0.159 HD
ATOM      9  H   UNL     1      -2.030   5.969  -1.190  0.00  0.00    +0.159 HD
ENDROOT
BRANCH   1  10
ATOM     10  C   UNL     1       0.671   6.369  -3.952  0.00  0.00    +0.151 C 
BRANCH  10  11
ATOM     11  C   UNL     1       1.236   6.492  -5.340  0.00  0.00    -0.028 A 
ATOM     12  C   UNL     1       0.742   7.460  -6.226  0.00  0.00    +0.005 A 
ATOM     13  C   UNL     1       2.269   5.647  -5.773  0.00  0.00    +0.005 A 
ATOM     14  C   UNL     1       1.287   7.595  -7.506  0.00  0.00    +0.000 A 
ATOM     15  C   UNL     1       2.810   5.784  -7.051  0.00  0.00    +0.000 A 
ATOM     16  C   UNL     1       2.321   6.760  -7.916  0.00  0.00    +0.000 A 
ENDBRANCH  10  11
ENDBRANCH   1  10
TORSDOF 2
ENDMDL
MODEL 8
REMARK VINA RESULT:    -4.585     16.752     17.502
REMARK INTER + INTRA:          -5.233
REMARK INTER:                  -5.136
REMARK INTRA:                  -0.097
REMARK UNBOUND:                -0.113
REMARK  Name = 1550473
REMARK  2 active torsions:
REMARK  status: ('A' for Active; 'I' for Inactive)
REMARK    1  A    between atoms: N_1  and  C_4
REMARK    2  A    between atoms: C_4  and  C_5
REMARK                            x       y       z     vdW  Elec       q    Type
REMARK                         _______ _______ _______ _____ _____    ______ ____
ROOT
ATOM      1  N   UNL     1       5.110 -12.894 -18.052  0.00  0.00    -0.354 N 
ATOM      2  N   UNL     1       2.851 -12.528 -17.699  0.00  0.00    -0.372 N 
ATOM      3  N   UNL     1       3.778 -14.502 -16.987  0.00  0.00    -0.372 N 
ATOM      4  C   UNL     1       3.928 -13.313 -17.580  0.00  0.00    +0.166 C 
ATOM      5  H   UNL     1       5.151 -11.996 -18.518  0.00  0.00    +0.163 HD
ATOM      6  H   UNL     1       1.946 -12.816 -17.350  0.00  0.00    +0.159 HD
ATOM      7  H   UNL     1       2.904 -11.610 -18.124  0.00  0.00    +0.159 HD
ATOM      8  H   UNL     1       4.551 -15.144 -16.872  0.00  0.00    +0.159 HD
ATOM      9  H   UNL     1       2.879 -14.813 -16.642  0.00  0.00    +0.159 HD
ENDROOT
BRANCH   1  10
ATOM     10  C   UNL     1       6.355 -13.650 -17.925  0.00  0.00    +0.151 C 
BRANCH  10  11
ATOM     11  C   UNL     1       7.508 -12.767 -18.317  0.00  0.00    -0.028 A 
ATOM     12  C   UNL     1       7.608 -12.266 -19.623  0.00  0.00    +0.005 A 
ATOM     13  C   UNL     1       8.499 -12.424 -17.386  0.00  0.00    +0.005 A 
ATOM     14  C   UNL     1       8.663 -11.422 -19.980  0.00  0.00    +0.000 A 
ATOM     15  C   UNL     1       9.551 -11.581 -17.746  0.00  0.00    +0.000 A 
ATOM     16  C   UNL     1       9.631 -11.078 -19.042  0.00  0.00    +0.000 A 
ENDBRANCH  10  11
ENDBRANCH   1  10
TORSDOF 2
ENDMDL
MODEL 9
REMARK VINA RESULT:    -4.571     19.490     21.049
REMARK INTER + INTRA:          -5.218
REMARK INTER:                  -5.094
REMARK INTRA:                  -0.124
REMARK UNBOUND:                -0.113
REMARK  Name = 1550473
REMARK  2 active torsions:
REMARK  status: ('A' for Active; 'I' for Inactive)
REMARK    1  A    between atoms: N_1  and  C_4
REMARK    2  A    between atoms: C_4  and  C_5
REMARK                            x       y       z     vdW  Elec       q    Type
REMARK                         _______ _______ _______ _____ _____    ______ ____
ROOT
ATOM      1  N   UNL     1       1.889 -10.163  16.372  0.00  0.00    -0.354 N 
ATOM      2  N   UNL     1       1.949  -7.875  16.726  0.00  0.00    -0.372 N 
ATOM      3  N   UNL     1       2.148  -8.671  14.583  0.00  0.00    -0.372 N 
ATOM      4  C   UNL     1       1.996  -8.918  15.888  0.00  0.00    +0.166 C 
ATOM      5  H   UNL     1       1.806 -10.285  17.374  0.00  0.00    +0.163 HD
ATOM      6  H   UNL     1       2.024  -6.924  16.390  0.00  0.00    +0.159 HD
ATOM      7  H   UNL     1       1.820  -7.998  17.723  0.00  0.00    +0.159 HD
ATOM      8  H   UNL     1       2.196  -9.414  13.899  0.00  0.00    +0.159 HD
ATOM      9  H   UNL     1       2.236  -7.727  14.229  0.00  0.00    +0.159 HD
ENDROOT
BRANCH   1  10
ATOM     10  C   UNL     1       1.873 -11.365  15.539  0.00  0.00    +0.151 C 
BRANCH  10  11
ATOM     11  C   UNL     1       0.804 -12.295  16.040  0.00  0.00    -0.028 A 
ATOM     12  C   UNL     1       0.047 -13.060  15.140  0.00  0.00    +0.005 A 
ATOM     13  C   UNL     1       0.546 -12.421  17.414  0.00  0.00    +0.005 A 
ATOM     14  C   UNL     1      -0.926 -13.947  15.607  0.00  0.00    +0.000 A 
ATOM     15  C   UNL     1      -0.427 -13.308  17.875  0.00  0.00    +0.000 A 
ATOM     16  C   UNL     1      -1.161 -14.072  16.972  0.00  0.00    +0.000 A 
ENDBRANCH  10  11
ENDBRANCH   1  10
TORSDOF 2
ENDMDL
