MODEL 1
REMARK VINA RESULT:    -5.072      0.000      0.000
REMARK INTER + INTRA:          -5.807
REMARK INTER:                  -5.665
REMARK INTRA:                  -0.143
REMARK UNBOUND:                -0.143
REMARK  Name = 1550473
REMARK  2 active torsions:
REMARK  status: ('A' for Active; 'I' for Inactive)
REMARK    1  A    between atoms: N_1  and  C_4
REMARK    2  A    between atoms: C_4  and  C_5
REMARK                            x       y       z     vdW  Elec       q    Type
REMARK                         _______ _______ _______ _____ _____    ______ ____
ROOT
ATOM      1  N   UNL     1      -6.579  -1.724 -10.319  0.00  0.00    -0.354 N 
ATOM      2  N   UNL     1      -7.909  -2.288  -8.509  0.00  0.00    -0.372 N 
ATOM      3  N   UNL     1      -6.117  -3.624  -9.028  0.00  0.00    -0.372 N 
ATOM      4  C   UNL     1      -6.858  -2.544  -9.297  0.00  0.00    +0.166 C 
ATOM      5  H   UNL     1      -7.197  -0.939 -10.489  0.00  0.00    +0.163 HD
ATOM      6  H   UNL     1      -8.142  -2.887  -7.728  0.00  0.00    +0.159 HD
ATOM      7  H   UNL     1      -8.498  -1.477  -8.653  0.00  0.00    +0.159 HD
ATOM      8  H   UNL     1      -5.314  -3.876  -9.589  0.00  0.00    +0.159 HD
ATOM      9  H   UNL     1      -6.341  -4.242  -8.258  0.00  0.00    +0.159 HD
ENDROOT
BRANCH   1  10
ATOM     10  C   UNL     1      -5.427  -1.883 -11.205  0.00  0.00    +0.151 C 
BRANCH  10  11
ATOM     11  C   UNL     1      -5.885  -1.770 -12.632  0.00  0.00    -0.028 A 
ATOM     12  C   UNL     1      -4.956  -1.801 -13.683  0.00  0.00    +0.005 A 
ATOM     13  C   UNL     1      -7.247  -1.639 -12.942  0.00  0.00    +0.005 A 
ATOM     14  C   UNL     1      -5.383  -1.727 -15.011  0.00  0.00    +0.000 A 
ATOM     15  C   UNL     1      -7.670  -1.564 -14.269  0.00  0.00    +0.000 A 
ATOM     16  C   UNL     1      -6.738  -1.611 -15.303  0.00  0.00    +0.000 A 
ENDBRANCH  10  11
ENDBRANCH   1  10
TORSDOF 2
ENDMDL
MODEL 2
REMARK VINA RESULT:    -4.992      1.394      1.729
REMARK INTER + INTRA:          -5.718
REMARK INTER:                  -5.600
REMARK INTRA:                  -0.118
REMARK UNBOUND:                -0.143
REMARK  Name = 1550473
REMARK  2 active torsions:
REMARK  status: ('A' for Active; 'I' for Inactive)
REMARK    1  A    between atoms: N_1  and  C_4
REMARK    2  A    between atoms: C_4  and  C_5
REMARK                            x       y       z     vdW  Elec       q    Type
REMARK                         _______ _______ _______ _____ _____    ______ ____
ROOT
ATOM      1  N   UNL     1      -8.074  -1.069 -10.121  0.00  0.00    -0.354 N 
ATOM      2  N   UNL     1      -9.634  -0.172  -8.663  0.00  0.00    -0.372 N 
ATOM      3  N   UNL     1      -7.900  -1.409  -7.809  0.00  0.00    -0.372 N 
ATOM      4  C   UNL     1      -8.524  -0.891  -8.872  0.00  0.00    +0.166 C 
ATOM      5  H   UNL     1      -8.610  -0.676 -10.887  0.00  0.00    +0.163 HD
ATOM      6  H   UNL     1      -9.996  -0.018  -7.731  0.00  0.00    +0.159 HD
ATOM      7  H   UNL     1     -10.142   0.258  -9.426  0.00  0.00    +0.159 HD
ATOM      8  H   UNL     1      -7.061  -1.965  -7.900  0.00  0.00    +0.159 HD
ATOM      9  H   UNL     1      -8.253  -1.275  -6.870  0.00  0.00    +0.159 HD
ENDROOT
BRANCH   1  10
ATOM     10  C   UNL     1      -6.846  -1.789 -10.453  0.00  0.00    +0.151 C 
BRANCH  10  11
ATOM     11  C   UNL     1      -6.648  -1.762 -11.943  0.00  0.00    -0.028 A 
ATOM     12  C   UNL     1      -5.373  -1.949 -12.496  0.00  0.00    +0.005 A 
ATOM     13  C   UNL     1      -7.734  -1.557 -12.809  0.00  0.00    +0.005 A 
ATOM     14  C   UNL     1      -5.193  -1.954 -13.881  0.00  0.00    +0.000 A 
ATOM     15  C   UNL     1      -7.550  -1.562 -14.192  0.00  0.00    +0.000 A 
ATOM     16  C   UNL     1      -6.280  -1.763 -14.727  0.00  0.00    +0.000 A 
ENDBRANCH  10  11
ENDBRANCH   1  10
TORSDOF 2
ENDMDL
MODEL 3
REMARK VINA RESULT:    -4.908      1.211      2.336
REMARK INTER + INTRA:          -5.625
REMARK INTER:                  -5.510
REMARK INTRA:                  -0.115
REMARK UNBOUND:                -0.143
REMARK  Name = 1550473
REMARK  2 active torsions:
REMARK  status: ('A' for Active; 'I' for Inactive)
REMARK    1  A    between atoms: N_1  and  C_4
REMARK    2  A    between atoms: C_4  and  C_5
REMARK                            x       y       z     vdW  Elec       q    Type
REMARK                         _______ _______ _______ _____ _____    ______ ____
ROOT
ATOM      1  N   UNL     1      -6.868  -2.411  -9.001  0.00  0.00    -0.354 N 
ATOM      2  N   UNL     1      -8.282  -1.037  -7.787  0.00  0.00    -0.372 N 
ATOM      3  N   UNL     1      -9.189  -2.491  -9.311  0.00  0.00    -0.372 N 
ATOM      4  C   UNL     1      -8.106  -1.990  -8.709  0.00  0.00    +0.166 C 
ATOM      5  H   UNL     1      -6.086  -1.969  -8.531  0.00  0.00    +0.163 HD
ATOM      6  H   UNL     1      -9.204  -0.701  -7.543  0.00  0.00    +0.159 HD
ATOM      7  H   UNL     1      -7.502  -0.629  -7.285  0.00  0.00    +0.159 HD
ATOM      8  H   UNL     1      -9.124  -3.209 -10.021  0.00  0.00    +0.159 HD
ATOM      9  H   UNL     1     -10.120  -2.160  -9.090  0.00  0.00    +0.159 HD
ENDROOT
BRANCH   1  10
ATOM     10  C   UNL     1      -6.571  -3.481  -9.952  0.00  0.00    +0.151 C 
BRANCH  10  11
ATOM     11  C   UNL     1      -6.330  -2.880 -11.309  0.00  0.00    -0.028 A 
ATOM     12  C   UNL     1      -7.346  -2.875 -12.276  0.00  0.00    +0.005 A 
ATOM     13  C   UNL     1      -5.089  -2.310 -11.632  0.00  0.00    +0.005 A 
ATOM     14  C   UNL     1      -7.132  -2.290 -13.526  0.00  0.00    +0.000 A 
ATOM     15  C   UNL     1      -4.879  -1.728 -12.882  0.00  0.00    +0.000 A 
ATOM     16  C   UNL     1      -5.902  -1.715 -13.828  0.00  0.00    +0.000 A 
ENDBRANCH  10  11
ENDBRANCH   1  10
TORSDOF 2
ENDMDL
MODEL 4
REMARK VINA RESULT:    -4.647      2.416      3.358
REMARK INTER + INTRA:          -5.333
REMARK INTER:                  -5.155
REMARK INTRA:                  -0.178
REMARK UNBOUND:                -0.143
REMARK  Name = 1550473
REMARK  2 active torsions:
REMARK  status: ('A' for Active; 'I' for Inactive)
REMARK    1  A    between atoms: N_1  and  C_4
REMARK    2  A    between atoms: C_4  and  C_5
REMARK                            x       y       z     vdW  Elec       q    Type
REMARK                         _______ _______ _______ _____ _____    ______ ____
ROOT
ATOM      1  N   UNL     1      -9.444  -0.300 -10.908  0.00  0.00    -0.354 N 
ATOM      2  N   UNL     1      -9.831   1.641  -9.705  0.00  0.00    -0.372 N 
ATOM      3  N   UNL     1      -9.212  -0.259  -8.577  0.00  0.00    -0.372 N 
ATOM      4  C   UNL     1      -9.493   0.346  -9.736  0.00  0.00    +0.166 C 
ATOM      5  H   UNL     1      -9.698   0.208 -11.748  0.00  0.00    +0.163 HD
ATOM      6  H   UNL     1      -9.873   2.155  -8.835  0.00  0.00    +0.159 HD
ATOM      7  H   UNL     1     -10.039   2.158 -10.551  0.00  0.00    +0.159 HD
ATOM      8  H   UNL     1      -8.956  -1.236  -8.531  0.00  0.00    +0.159 HD
ATOM      9  H   UNL     1      -9.260   0.236  -7.695  0.00  0.00    +0.159 HD
ENDROOT
BRANCH   1  10
ATOM     10  C   UNL     1      -9.035  -1.695 -11.057  0.00  0.00    +0.151 C 
BRANCH  10  11
ATOM     11  C   UNL     1      -7.643  -1.742 -11.623  0.00  0.00    -0.028 A 
ATOM     12  C   UNL     1      -7.438  -1.749 -13.010  0.00  0.00    +0.005 A 
ATOM     13  C   UNL     1      -6.524  -1.772 -10.776  0.00  0.00    +0.005 A 
ATOM     14  C   UNL     1      -6.144  -1.762 -13.536  0.00  0.00    +0.000 A 
ATOM     15  C   UNL     1      -5.233  -1.786 -11.306  0.00  0.00    +0.000 A 
ATOM     16  C   UNL     1      -5.044  -1.778 -12.685  0.00  0.00    +0.000 A 
ENDBRANCH  10  11
ENDBRANCH   1  10
TORSDOF 2
ENDMDL
MODEL 5
REMARK VINA RESULT:    -4.643     25.535     26.296
REMARK INTER + INTRA:          -5.329
REMARK INTER:                  -5.200
REMARK INTRA:                  -0.129
REMARK UNBOUND:                -0.143
REMARK  Name = 1550473
REMARK  2 active torsions:
REMARK  status: ('A' for Active; 'I' for Inactive)
REMARK    1  A    between atoms: N_1  and  C_4
REMARK    2  A    between atoms: C_4  and  C_5
REMARK                            x       y       z     vdW  Elec       q    Type
REMARK                         _______ _______ _______ _____ _____    ______ ____
ROOT
ATOM      1  N   UNL     1      13.913   2.978   3.487  0.00  0.00    -0.354 N 
ATOM      2  N   UNL     1      13.501   4.718   4.959  0.00  0.00    -0.372 N 
ATOM      3  N   UNL     1      14.839   5.102   3.135  0.00  0.00    -0.372 N 
ATOM      4  C   UNL     1      14.089   4.256   3.849  0.00  0.00    +0.166 C 
ATOM      5  H   UNL     1      13.358   2.380   4.087  0.00  0.00    +0.163 HD
ATOM      6  H   UNL     1      13.612   5.678   5.255  0.00  0.00    +0.159 HD
ATOM      7  H   UNL     1      12.909   4.130   5.532  0.00  0.00    +0.159 HD
ATOM      8  H   UNL     1      15.315   4.814   2.290  0.00  0.00    +0.159 HD
ATOM      9  H   UNL     1      14.972   6.064   3.422  0.00  0.00    +0.159 HD
ENDROOT
BRANCH   1  10
ATOM     10  C   UNL     1      14.466   2.390   2.267  0.00  0.00    +0.151 C 
BRANCH  10  11
ATOM     11  C   UNL     1      14.636   0.910   2.469  0.00  0.00    -0.028 A 
ATOM     12  C   UNL     1      14.836   0.060   1.371  0.00  0.00    +0.005 A 
ATOM     13  C   UNL     1      14.603   0.351   3.756  0.00  0.00    +0.005 A 
ATOM     14  C   UNL     1      15.024  -1.311   1.560  0.00  0.00    +0.000 A 
ATOM     15  C   UNL     1      14.790  -1.019   3.940  0.00  0.00    +0.000 A 
ATOM     16  C   UNL     1      15.003  -1.849   2.843  0.00  0.00    +0.000 A 
ENDBRANCH  10  11
ENDBRANCH   1  10
TORSDOF 2
ENDMDL
MODEL 6
REMARK VINA RESULT:    -4.640      2.662      4.303
REMARK INTER + INTRA:          -5.326
REMARK INTER:                  -5.161
REMARK INTRA:                  -0.165
REMARK UNBOUND:                -0.143
REMARK  Name = 1550473
REMARK  2 active torsions:
REMARK  status: ('A' for Active; 'I' for Inactive)
REMARK    1  A    between atoms: N_1  and  C_4
REMARK    2  A    between atoms: C_4  and  C_5
REMARK                            x       y       z     vdW  Elec       q    Type
REMARK                         _______ _______ _______ _____ _____    ______ ____
ROOT
ATOM      1  N   UNL     1      -6.805  -3.237 -11.218  0.00  0.00    -0.354 N 
ATOM      2  N   UNL     1      -6.197  -5.377 -10.575  0.00  0.00    -0.372 N 
ATOM      3  N   UNL     1      -4.942  -3.600  -9.843  0.00  0.00    -0.372 N 
ATOM      4  C   UNL     1      -5.983  -4.056 -10.549  0.00  0.00    +0.166 C 
ATOM      5  H   UNL     1      -7.558  -3.647 -11.759  0.00  0.00    +0.163 HD
ATOM      6  H   UNL     1      -5.596  -6.019 -10.076  0.00  0.00    +0.159 HD
ATOM      7  H   UNL     1      -6.977  -5.781 -11.078  0.00  0.00    +0.159 HD
ATOM      8  H   UNL     1      -4.723  -2.615  -9.788  0.00  0.00    +0.159 HD
ATOM      9  H   UNL     1      -4.322  -4.228  -9.347  0.00  0.00    +0.159 HD
ENDROOT
BRANCH   1  10
ATOM     10  C   UNL     1      -6.692  -1.780 -11.211  0.00  0.00    +0.151 C 
BRANCH  10  11
ATOM     11  C   UNL     1      -7.888  -1.198 -10.510  0.00  0.00    -0.028 A 
ATOM     12  C   UNL     1      -7.904  -1.073  -9.113  0.00  0.00    +0.005 A 
ATOM     13  C   UNL     1      -9.007  -0.763 -11.238  0.00  0.00    +0.005 A 
ATOM     14  C   UNL     1      -9.003  -0.505  -8.464  0.00  0.00    +0.000 A 
ATOM     15  C   UNL     1     -10.102  -0.197 -10.586  0.00  0.00    +0.000 A 
ATOM     16  C   UNL     1     -10.099  -0.066  -9.199  0.00  0.00    +0.000 A 
ENDBRANCH  10  11
ENDBRANCH   1  10
TORSDOF 2
ENDMDL
MODEL 7
REMARK VINA RESULT:    -4.517      8.169      9.434
REMARK INTER + INTRA:          -5.187
REMARK INTER:                  -5.079
REMARK INTRA:                  -0.108
REMARK UNBOUND:                -0.143
REMARK  Name = 1550473
REMARK  2 active torsions:
REMARK  status: ('A' for Active; 'I' for Inactive)
REMARK    1  A    between atoms: N_1  and  C_4
REMARK    2  A    between atoms: C_4  and  C_5
REMARK                            x       y       z     vdW  Elec       q    Type
REMARK                         _______ _______ _______ _____ _____    ______ ____
ROOT
ATOM      1  N   UNL     1      -1.834   5.101 -14.687  0.00  0.00    -0.354 N 
ATOM      2  N   UNL     1      -2.066   7.381 -14.358  0.00  0.00    -0.372 N 
ATOM      3  N   UNL     1      -1.945   6.577 -16.504  0.00  0.00    -0.372 N 
ATOM      4  C   UNL     1      -1.946   6.338 -15.188  0.00  0.00    +0.166 C 
ATOM      5  H   UNL     1      -1.811   4.989 -13.680  0.00  0.00    +0.163 HD
ATOM      6  H   UNL     1      -2.157   8.326 -14.707  0.00  0.00    +0.159 HD
ATOM      7  H   UNL     1      -2.090   7.263 -13.353  0.00  0.00    +0.159 HD
ATOM      8  H   UNL     1      -1.852   5.833 -17.183  0.00  0.00    +0.159 HD
ATOM      9  H   UNL     1      -2.023   7.517 -16.872  0.00  0.00    +0.159 HD
ENDROOT
BRANCH   1  10
ATOM     10  C   UNL     1      -1.752   3.892 -15.505  0.00  0.00    +0.151 C 
BRANCH  10  11
ATOM     11  C   UNL     1      -0.898   2.876 -14.797  0.00  0.00    -0.028 A 
ATOM     12  C   UNL     1      -1.162   2.531 -13.463  0.00  0.00    +0.005 A 
ATOM     13  C   UNL     1       0.172   2.251 -15.455  0.00  0.00    +0.005 A 
ATOM     14  C   UNL     1      -0.388   1.565 -12.814  0.00  0.00    +0.000 A 
ATOM     15  C   UNL     1       0.942   1.289 -14.804  0.00  0.00    +0.000 A 
ATOM     16  C   UNL     1       0.661   0.944 -13.484  0.00  0.00    +0.000 A 
ENDBRANCH  10  11
ENDBRANCH   1  10
TORSDOF 2
ENDMDL
MODEL 8
REMARK VINA RESULT:    -4.393      3.442      5.137
REMARK INTER + INTRA:          -5.050
REMARK INTER:                  -4.877
REMARK INTRA:                  -0.173
REMARK UNBOUND:                -0.143
REMARK  Name = 1550473
REMARK  2 active torsions:
REMARK  status: ('A' for Active; 'I' for Inactive)
REMARK    1  A    between atoms: N_1  and  C_4
REMARK    2  A    between atoms: C_4  and  C_5
REMARK                            x       y       z     vdW  Elec       q    Type
REMARK                         _______ _______ _______ _____ _____    ______ ____
ROOT
ATOM      1  N   UNL     1      -8.001  -2.978 -10.160  0.00  0.00    -0.354 N 
ATOM      2  N   UNL     1      -6.101  -3.535  -8.959  0.00  0.00    -0.372 N 
ATOM      3  N   UNL     1      -5.986  -1.827 -10.486  0.00  0.00    -0.372 N 
ATOM      4  C   UNL     1      -6.707  -2.775  -9.878  0.00  0.00    +0.166 C 
ATOM      5  H   UNL     1      -8.484  -3.733  -9.685  0.00  0.00    +0.163 HD
ATOM      6  H   UNL     1      -5.127  -3.403  -8.722  0.00  0.00    +0.159 HD
ATOM      7  H   UNL     1      -6.598  -4.258  -8.453  0.00  0.00    +0.159 HD
ATOM      8  H   UNL     1      -6.383  -1.224 -11.194  0.00  0.00    +0.159 HD
ATOM      9  H   UNL     1      -5.007  -1.687 -10.272  0.00  0.00    +0.159 HD
ENDROOT
BRANCH   1  10
ATOM     10  C   UNL     1      -8.769  -2.170 -11.105  0.00  0.00    +0.151 C 
BRANCH  10  11
ATOM     11  C   UNL     1      -9.668  -1.239 -10.339  0.00  0.00    -0.028 A 
ATOM     12  C   UNL     1     -10.994  -1.600 -10.060  0.00  0.00    +0.005 A 
ATOM     13  C   UNL     1      -9.197   0.002  -9.884  0.00  0.00    +0.005 A 
ATOM     14  C   UNL     1     -11.820  -0.748  -9.322  0.00  0.00    +0.000 A 
ATOM     15  C   UNL     1     -10.026   0.850  -9.149  0.00  0.00    +0.000 A 
ATOM     16  C   UNL     1     -11.336   0.473  -8.866  0.00  0.00    +0.000 A 
ENDBRANCH  10  11
ENDBRANCH   1  10
TORSDOF 2
ENDMDL
MODEL 9
REMARK VINA RESULT:    -4.282     22.194     22.981
REMARK INTER + INTRA:          -4.926
REMARK INTER:                  -4.827
REMARK INTRA:                  -0.098
REMARK UNBOUND:                -0.143
REMARK  Name = 1550473
REMARK  2 active torsions:
REMARK  status: ('A' for Active; 'I' for Inactive)
REMARK    1  A    between atoms: N_1  and  C_4
REMARK    2  A    between atoms: C_4  and  C_5
REMARK                            x       y       z     vdW  Elec       q    Type
REMARK                         _______ _______ _______ _____ _____    ______ ____
ROOT
ATOM      1  N   UNL     1      -5.308 -11.099   9.173  0.00  0.00    -0.354 N 
ATOM      2  N   UNL     1      -5.382 -13.308   9.868  0.00  0.00    -0.372 N 
ATOM      3  N   UNL     1      -6.577 -12.689   8.010  0.00  0.00    -0.372 N 
ATOM      4  C   UNL     1      -5.757 -12.351   9.010  0.00  0.00    +0.166 C 
ATOM      5  H   UNL     1      -4.713 -10.901   9.969  0.00  0.00    +0.163 HD
ATOM      6  H   UNL     1      -5.701 -14.262   9.768  0.00  0.00    +0.159 HD
ATOM      7  H   UNL     1      -4.750 -13.117  10.636  0.00  0.00    +0.159 HD
ATOM      8  H   UNL     1      -6.903 -12.012   7.332  0.00  0.00    +0.159 HD
ATOM      9  H   UNL     1      -6.918 -13.636   7.900  0.00  0.00    +0.159 HD
ENDROOT
BRANCH   1  10
ATOM     10  C   UNL     1      -5.614  -9.996   8.265  0.00  0.00    +0.151 C 
BRANCH  10  11
ATOM     11  C   UNL     1      -5.542  -8.700   9.024  0.00  0.00    -0.028 A 
ATOM     12  C   UNL     1      -6.710  -7.976   9.308  0.00  0.00    +0.005 A 
ATOM     13  C   UNL     1      -4.311  -8.193   9.467  0.00  0.00    +0.005 A 
ATOM     14  C   UNL     1      -6.647  -6.787  10.039  0.00  0.00    +0.000 A 
ATOM     15  C   UNL     1      -4.253  -7.006  10.197  0.00  0.00    +0.000 A 
ATOM     16  C   UNL     1      -5.421  -6.305  10.484  0.00  0.00    +0.000 A 
ENDBRANCH  10  11
ENDBRANCH   1  10
TORSDOF 2
ENDMDL
