MODEL 1
REMARK VINA RESULT:    -4.954      0.000      0.000
REMARK INTER + INTRA:          -5.647
REMARK INTER:                  -5.533
REMARK INTRA:                  -0.115
REMARK UNBOUND:                -0.115
REMARK  Name = 1550473
REMARK  2 active torsions:
REMARK  status: ('A' for Active; 'I' for Inactive)
REMARK    1  A    between atoms: N_1  and  C_4
REMARK    2  A    between atoms: C_4  and  C_5
REMARK                            x       y       z     vdW  Elec       q    Type
REMARK                         _______ _______ _______ _____ _____    ______ ____
ROOT
ATOM      1  N   UNL     1       2.262   8.083  11.271  0.00  0.00    -0.354 N 
ATOM      2  N   UNL     1       0.350   7.293  10.229  0.00  0.00    -0.372 N 
ATOM      3  N   UNL     1       1.327   9.216   9.445  0.00  0.00    -0.372 N 
ATOM      4  C   UNL     1       1.326   8.205  10.320  0.00  0.00    +0.166 C 
ATOM      5  H   UNL     1       2.188   7.310  11.922  0.00  0.00    +0.163 HD
ATOM      6  H   UNL     1      -0.368   7.357   9.520  0.00  0.00    +0.159 HD
ATOM      7  H   UNL     1       0.305   6.497  10.853  0.00  0.00    +0.159 HD
ATOM      8  H   UNL     1       2.032   9.941   9.465  0.00  0.00    +0.159 HD
ATOM      9  H   UNL     1       0.610   9.304   8.736  0.00  0.00    +0.159 HD
ENDROOT
BRANCH   1  10
ATOM     10  C   UNL     1       3.397   8.992  11.422  0.00  0.00    +0.151 C 
BRANCH  10  11
ATOM     11  C   UNL     1       4.129   8.656  12.692  0.00  0.00    -0.028 A 
ATOM     12  C   UNL     1       4.180   7.333  13.156  0.00  0.00    +0.005 A 
ATOM     13  C   UNL     1       4.779   9.655  13.433  0.00  0.00    +0.005 A 
ATOM     14  C   UNL     1       4.885   7.016  14.320  0.00  0.00    +0.000 A 
ATOM     15  C   UNL     1       5.481   9.335  14.594  0.00  0.00    +0.000 A 
ATOM     16  C   UNL     1       5.536   8.015  15.036  0.00  0.00    +0.000 A 
ENDBRANCH  10  11
ENDBRANCH   1  10
TORSDOF 2
ENDMDL
MODEL 2
REMARK VINA RESULT:    -4.927     42.567     43.820
REMARK INTER + INTRA:          -5.617
REMARK INTER:                  -5.464
REMARK INTRA:                  -0.153
REMARK UNBOUND:                -0.115
REMARK  Name = 1550473
REMARK  2 active torsions:
REMARK  status: ('A' for Active; 'I' for Inactive)
REMARK    1  A    between atoms: N_1  and  C_4
REMARK    2  A    between atoms: C_4  and  C_5
REMARK                            x       y       z     vdW  Elec       q    Type
REMARK                         _______ _______ _______ _____ _____    ______ ____
ROOT
ATOM      1  N   UNL     1     -18.780   1.191 -24.087  0.00  0.00    -0.354 N 
ATOM      2  N   UNL     1     -18.704  -1.032 -24.733  0.00  0.00    -0.372 N 
ATOM      3  N   UNL     1     -20.526   0.232 -25.322  0.00  0.00    -0.372 N 
ATOM      4  C   UNL     1     -19.340   0.146 -24.711  0.00  0.00    +0.166 C 
ATOM      5  H   UNL     1     -17.893   1.053 -23.617  0.00  0.00    +0.163 HD
ATOM      6  H   UNL     1     -19.099  -1.837 -25.198  0.00  0.00    +0.159 HD
ATOM      7  H   UNL     1     -17.796  -1.155 -24.301  0.00  0.00    +0.159 HD
ATOM      8  H   UNL     1     -21.060   1.091 -25.337  0.00  0.00    +0.159 HD
ATOM      9  H   UNL     1     -20.944  -0.566 -25.784  0.00  0.00    +0.159 HD
ENDROOT
BRANCH   1  10
ATOM     10  C   UNL     1     -19.365   2.531 -24.052  0.00  0.00    +0.151 C 
BRANCH  10  11
ATOM     11  C   UNL     1     -18.458   3.482 -24.781  0.00  0.00    -0.028 A 
ATOM     12  C   UNL     1     -18.736   3.860 -26.102  0.00  0.00    +0.005 A 
ATOM     13  C   UNL     1     -17.321   4.015 -24.153  0.00  0.00    +0.005 A 
ATOM     14  C   UNL     1     -17.910   4.768 -26.770  0.00  0.00    +0.000 A 
ATOM     15  C   UNL     1     -16.498   4.920 -24.824  0.00  0.00    +0.000 A 
ATOM     16  C   UNL     1     -16.794   5.298 -26.131  0.00  0.00    +0.000 A 
ENDBRANCH  10  11
ENDBRANCH   1  10
TORSDOF 2
ENDMDL
MODEL 3
REMARK VINA RESULT:    -4.900     16.342     17.035
REMARK INTER + INTRA:          -5.587
REMARK INTER:                  -5.424
REMARK INTRA:                  -0.163
REMARK UNBOUND:                -0.115
REMARK  Name = 1550473
REMARK  2 active torsions:
REMARK  status: ('A' for Active; 'I' for Inactive)
REMARK    1  A    between atoms: N_1  and  C_4
REMARK    2  A    between atoms: C_4  and  C_5
REMARK                            x       y       z     vdW  Elec       q    Type
REMARK                         _______ _______ _______ _____ _____    ______ ____
ROOT
ATOM      1  N   UNL     1      10.422  -4.726   5.218  0.00  0.00    -0.354 N 
ATOM      2  N   UNL     1      10.031  -4.411   2.957  0.00  0.00    -0.372 N 
ATOM      3  N   UNL     1      11.064  -6.340   3.645  0.00  0.00    -0.372 N 
ATOM      4  C   UNL     1      10.510  -5.164   3.955  0.00  0.00    +0.166 C 
ATOM      5  H   UNL     1      10.017  -3.812   5.384  0.00  0.00    +0.163 HD
ATOM      6  H   UNL     1      10.081  -4.716   1.994  0.00  0.00    +0.159 HD
ATOM      7  H   UNL     1       9.586  -3.517   3.130  0.00  0.00    +0.159 HD
ATOM      8  H   UNL     1      11.450  -6.953   4.351  0.00  0.00    +0.159 HD
ATOM      9  H   UNL     1      11.134  -6.658   2.686  0.00  0.00    +0.159 HD
ENDROOT
BRANCH   1  10
ATOM     10  C   UNL     1      10.863  -5.493   6.381  0.00  0.00    +0.151 C 
BRANCH  10  11
ATOM     11  C   UNL     1      12.148  -4.906   6.898  0.00  0.00    -0.028 A 
ATOM     12  C   UNL     1      12.143  -4.054   8.012  0.00  0.00    +0.005 A 
ATOM     13  C   UNL     1      13.373  -5.202   6.282  0.00  0.00    +0.005 A 
ATOM     14  C   UNL     1      13.339  -3.532   8.511  0.00  0.00    +0.000 A 
ATOM     15  C   UNL     1      14.565  -4.678   6.782  0.00  0.00    +0.000 A 
ATOM     16  C   UNL     1      14.548  -3.845   7.898  0.00  0.00    +0.000 A 
ENDBRANCH  10  11
ENDBRANCH   1  10
TORSDOF 2
ENDMDL
MODEL 4
REMARK VINA RESULT:    -4.869      2.925      5.106
REMARK INTER + INTRA:          -5.553
REMARK INTER:                  -5.414
REMARK INTRA:                  -0.139
REMARK UNBOUND:                -0.115
REMARK  Name = 1550473
REMARK  2 active torsions:
REMARK  status: ('A' for Active; 'I' for Inactive)
REMARK    1  A    between atoms: N_1  and  C_4
REMARK    2  A    between atoms: C_4  and  C_5
REMARK                            x       y       z     vdW  Elec       q    Type
REMARK                         _______ _______ _______ _____ _____    ______ ____
ROOT
ATOM      1  N   UNL     1       3.429   6.846  14.281  0.00  0.00    -0.354 N 
ATOM      2  N   UNL     1       3.279   6.192  16.498  0.00  0.00    -0.372 N 
ATOM      3  N   UNL     1       4.216   8.227  16.003  0.00  0.00    -0.372 N 
ATOM      4  C   UNL     1       3.644   7.095  15.580  0.00  0.00    +0.166 C 
ATOM      5  H   UNL     1       3.018   5.956  14.024  0.00  0.00    +0.163 HD
ATOM      6  H   UNL     1       3.425   6.354  17.486  0.00  0.00    +0.159 HD
ATOM      7  H   UNL     1       2.827   5.323  16.241  0.00  0.00    +0.159 HD
ATOM      8  H   UNL     1       4.520   8.946  15.360  0.00  0.00    +0.159 HD
ATOM      9  H   UNL     1       4.382   8.402  16.986  0.00  0.00    +0.159 HD
ENDROOT
BRANCH   1  10
ATOM     10  C   UNL     1       3.740   7.786  13.206  0.00  0.00    +0.151 C 
BRANCH  10  11
ATOM     11  C   UNL     1       2.594   7.814  12.232  0.00  0.00    -0.028 A 
ATOM     12  C   UNL     1       1.360   7.240  12.568  0.00  0.00    +0.005 A 
ATOM     13  C   UNL     1       2.736   8.419  10.974  0.00  0.00    +0.005 A 
ATOM     14  C   UNL     1       0.286   7.292  11.675  0.00  0.00    +0.000 A 
ATOM     15  C   UNL     1       1.662   8.469  10.085  0.00  0.00    +0.000 A 
ATOM     16  C   UNL     1       0.437   7.907  10.437  0.00  0.00    +0.000 A 
ENDBRANCH  10  11
ENDBRANCH   1  10
TORSDOF 2
ENDMDL
MODEL 5
REMARK VINA RESULT:    -4.808     16.441     17.210
REMARK INTER + INTRA:          -5.485
REMARK INTER:                  -5.312
REMARK INTRA:                  -0.173
REMARK UNBOUND:                -0.115
REMARK  Name = 1550473
REMARK  2 active torsions:
REMARK  status: ('A' for Active; 'I' for Inactive)
REMARK    1  A    between atoms: N_1  and  C_4
REMARK    2  A    between atoms: C_4  and  C_5
REMARK                            x       y       z     vdW  Elec       q    Type
REMARK                         _______ _______ _______ _____ _____    ______ ____
ROOT
ATOM      1  N   UNL     1      10.734  -6.763   6.634  0.00  0.00    -0.354 N 
ATOM      2  N   UNL     1      10.075  -8.765   7.594  0.00  0.00    -0.372 N 
ATOM      3  N   UNL     1       9.385  -6.797   8.551  0.00  0.00    -0.372 N 
ATOM      4  C   UNL     1      10.068  -7.427   7.589  0.00  0.00    +0.166 C 
ATOM      5  H   UNL     1      11.257  -7.298   5.951  0.00  0.00    +0.163 HD
ATOM      6  H   UNL     1       9.579  -9.293   8.300  0.00  0.00    +0.159 HD
ATOM      7  H   UNL     1      10.561  -9.298   6.883  0.00  0.00    +0.159 HD
ATOM      8  H   UNL     1       9.345  -5.788   8.606  0.00  0.00    +0.159 HD
ATOM      9  H   UNL     1       8.892  -7.308   9.272  0.00  0.00    +0.159 HD
ENDROOT
BRANCH   1  10
ATOM     10  C   UNL     1      10.745  -5.307   6.507  0.00  0.00    +0.151 C 
BRANCH  10  11
ATOM     11  C   UNL     1      12.079  -4.784   6.964  0.00  0.00    -0.028 A 
ATOM     12  C   UNL     1      13.251  -5.120   6.271  0.00  0.00    +0.005 A 
ATOM     13  C   UNL     1      12.177  -3.947   8.087  0.00  0.00    +0.005 A 
ATOM     14  C   UNL     1      14.486  -4.611   6.677  0.00  0.00    +0.000 A 
ATOM     15  C   UNL     1      13.413  -3.441   8.489  0.00  0.00    +0.000 A 
ATOM     16  C   UNL     1      14.567  -3.771   7.783  0.00  0.00    +0.000 A 
ENDBRANCH  10  11
ENDBRANCH   1  10
TORSDOF 2
ENDMDL
MODEL 6
REMARK VINA RESULT:    -4.685     25.166     26.524
REMARK INTER + INTRA:          -5.347
REMARK INTER:                  -5.194
REMARK INTRA:                  -0.153
REMARK UNBOUND:                -0.115
REMARK  Name = 1550473
REMARK  2 active torsions:
REMARK  status: ('A' for Active; 'I' for Inactive)
REMARK    1  A    between atoms: N_1  and  C_4
REMARK    2  A    between atoms: C_4  and  C_5
REMARK                            x       y       z     vdW  Elec       q    Type
REMARK                         _______ _______ _______ _____ _____    ______ ____
ROOT
ATOM      1  N   UNL     1       1.634   4.204 -12.612  0.00  0.00    -0.354 N 
ATOM      2  N   UNL     1       2.619   2.202 -13.232  0.00  0.00    -0.372 N 
ATOM      3  N   UNL     1       3.863   4.128 -13.332  0.00  0.00    -0.372 N 
ATOM      4  C   UNL     1       2.701   3.526 -13.056  0.00  0.00    +0.166 C 
ATOM      5  H   UNL     1       0.773   3.694 -12.450  0.00  0.00    +0.163 HD
ATOM      6  H   UNL     1       3.409   1.663 -13.562  0.00  0.00    +0.159 HD
ATOM      7  H   UNL     1       1.772   1.688 -13.025  0.00  0.00    +0.159 HD
ATOM      8  H   UNL     1       3.988   5.125 -13.225  0.00  0.00    +0.159 HD
ATOM      9  H   UNL     1       4.661   3.607 -13.674  0.00  0.00    +0.159 HD
ENDROOT
BRANCH   1  10
ATOM     10  C   UNL     1       1.635   5.640 -12.335  0.00  0.00    +0.151 C 
BRANCH  10  11
ATOM     11  C   UNL     1       0.596   6.306 -13.194  0.00  0.00    -0.028 A 
ATOM     12  C   UNL     1      -0.473   7.000 -12.609  0.00  0.00    +0.005 A 
ATOM     13  C   UNL     1       0.678   6.252 -14.594  0.00  0.00    +0.005 A 
ATOM     14  C   UNL     1      -1.422   7.645 -13.406  0.00  0.00    +0.000 A 
ATOM     15  C   UNL     1      -0.272   6.896 -15.387  0.00  0.00    +0.000 A 
ATOM     16  C   UNL     1      -1.320   7.595 -14.792  0.00  0.00    +0.000 A 
ENDBRANCH  10  11
ENDBRANCH   1  10
TORSDOF 2
ENDMDL
MODEL 7
REMARK VINA RESULT:    -4.429     43.459     45.592
REMARK INTER + INTRA:          -5.061
REMARK INTER:                  -4.908
REMARK INTRA:                  -0.153
REMARK UNBOUND:                -0.115
REMARK  Name = 1550473
REMARK  2 active torsions:
REMARK  status: ('A' for Active; 'I' for Inactive)
REMARK    1  A    between atoms: N_1  and  C_4
REMARK    2  A    between atoms: C_4  and  C_5
REMARK                            x       y       z     vdW  Elec       q    Type
REMARK                         _______ _______ _______ _____ _____    ______ ____
ROOT
ATOM      1  N   UNL     1      -7.575   0.312 -29.531  0.00  0.00    -0.354 N 
ATOM      2  N   UNL     1      -6.629  -1.688 -28.846  0.00  0.00    -0.372 N 
ATOM      3  N   UNL     1      -5.322   0.197 -28.898  0.00  0.00    -0.372 N 
ATOM      4  C   UNL     1      -6.512  -0.378 -29.096  0.00  0.00    +0.166 C 
ATOM      5  H   UNL     1      -8.442  -0.189 -29.690  0.00  0.00    +0.163 HD
ATOM      6  H   UNL     1      -5.845  -2.234 -28.513  0.00  0.00    +0.159 HD
ATOM      7  H   UNL     1      -7.508  -2.176 -28.962  0.00  0.00    +0.159 HD
ATOM      8  H   UNL     1      -5.166   1.181 -29.074  0.00  0.00    +0.159 HD
ATOM      9  H   UNL     1      -4.522  -0.335 -28.577  0.00  0.00    +0.159 HD
ENDROOT
BRANCH   1  10
ATOM     10  C   UNL     1      -7.568   1.752 -29.781  0.00  0.00    +0.151 C 
BRANCH  10  11
ATOM     11  C   UNL     1      -7.920   2.002 -31.222  0.00  0.00    -0.028 A 
ATOM     12  C   UNL     1      -6.930   1.964 -32.214  0.00  0.00    +0.005 A 
ATOM     13  C   UNL     1      -9.244   2.271 -31.602  0.00  0.00    +0.005 A 
ATOM     14  C   UNL     1      -7.261   2.166 -33.556  0.00  0.00    +0.000 A 
ATOM     15  C   UNL     1      -9.571   2.473 -32.943  0.00  0.00    +0.000 A 
ATOM     16  C   UNL     1      -8.580   2.418 -33.920  0.00  0.00    +0.000 A 
ENDBRANCH  10  11
ENDBRANCH   1  10
TORSDOF 2
ENDMDL
MODEL 8
REMARK VINA RESULT:    -4.350     24.458     25.308
REMARK INTER + INTRA:          -4.973
REMARK INTER:                  -4.884
REMARK INTRA:                  -0.089
REMARK UNBOUND:                -0.115
REMARK  Name = 1550473
REMARK  2 active torsions:
REMARK  status: ('A' for Active; 'I' for Inactive)
REMARK    1  A    between atoms: N_1  and  C_4
REMARK    2  A    between atoms: C_4  and  C_5
REMARK                            x       y       z     vdW  Elec       q    Type
REMARK                         _______ _______ _______ _____ _____    ______ ____
ROOT
ATOM      1  N   UNL     1      -0.579   6.983 -11.679  0.00  0.00    -0.354 N 
ATOM      2  N   UNL     1      -2.826   6.423 -11.663  0.00  0.00    -0.372 N 
ATOM      3  N   UNL     1      -1.886   7.182 -13.614  0.00  0.00    -0.372 N 
ATOM      4  C   UNL     1      -1.749   6.868 -12.321  0.00  0.00    +0.166 C 
ATOM      5  H   UNL     1      -0.547   6.757 -10.691  0.00  0.00    +0.163 HD
ATOM      6  H   UNL     1      -3.721   6.323 -12.122  0.00  0.00    +0.159 HD
ATOM      7  H   UNL     1      -2.781   6.155 -10.688  0.00  0.00    +0.159 HD
ATOM      8  H   UNL     1      -1.113   7.529 -14.166  0.00  0.00    +0.159 HD
ATOM      9  H   UNL     1      -2.777   7.099 -14.088  0.00  0.00    +0.159 HD
ENDROOT
BRANCH   1  10
ATOM     10  C   UNL     1       0.666   7.406 -12.318  0.00  0.00    +0.151 C 
BRANCH  10  11
ATOM     11  C   UNL     1       1.537   6.200 -12.543  0.00  0.00    -0.028 A 
ATOM     12  C   UNL     1       2.782   6.093 -11.908  0.00  0.00    +0.005 A 
ATOM     13  C   UNL     1       1.119   5.160 -13.387  0.00  0.00    +0.005 A 
ATOM     14  C   UNL     1       3.578   4.959 -12.093  0.00  0.00    +0.000 A 
ATOM     15  C   UNL     1       1.916   4.030 -13.570  0.00  0.00    +0.000 A 
ATOM     16  C   UNL     1       3.145   3.929 -12.921  0.00  0.00    +0.000 A 
ENDBRANCH  10  11
ENDBRANCH   1  10
TORSDOF 2
ENDMDL
MODEL 9
REMARK VINA RESULT:    -4.243     19.947     20.866
REMARK INTER + INTRA:          -4.853
REMARK INTER:                  -4.686
REMARK INTRA:                  -0.168
REMARK UNBOUND:                -0.115
REMARK  Name = 1550473
REMARK  2 active torsions:
REMARK  status: ('A' for Active; 'I' for Inactive)
REMARK    1  A    between atoms: N_1  and  C_4
REMARK    2  A    between atoms: C_4  and  C_5
REMARK                            x       y       z     vdW  Elec       q    Type
REMARK                         _______ _______ _______ _____ _____    ______ ____
ROOT
ATOM      1  N   UNL     1       4.350  -9.713   1.040  0.00  0.00    -0.354 N 
ATOM      2  N   UNL     1       2.834  -9.572  -0.705  0.00  0.00    -0.372 N 
ATOM      3  N   UNL     1       4.837 -10.634  -1.059  0.00  0.00    -0.372 N 
ATOM      4  C   UNL     1       4.019  -9.975  -0.232  0.00  0.00    +0.166 C 
ATOM      5  H   UNL     1       3.698  -9.183   1.607  0.00  0.00    +0.163 HD
ATOM      6  H   UNL     1       2.555  -9.759  -1.659  0.00  0.00    +0.159 HD
ATOM      7  H   UNL     1       2.166  -9.083  -0.123  0.00  0.00    +0.159 HD
ATOM      8  H   UNL     1       5.748 -10.960  -0.765  0.00  0.00    +0.159 HD
ATOM      9  H   UNL     1       4.581 -10.820  -2.021  0.00  0.00    +0.159 HD
ENDROOT
BRANCH   1  10
ATOM     10  C   UNL     1       5.594 -10.154   1.669  0.00  0.00    +0.151 C 
BRANCH  10  11
ATOM     11  C   UNL     1       6.552  -8.997   1.727  0.00  0.00    -0.028 A 
ATOM     12  C   UNL     1       7.915  -9.188   1.458  0.00  0.00    +0.005 A 
ATOM     13  C   UNL     1       6.103  -7.707   2.046  0.00  0.00    +0.005 A 
ATOM     14  C   UNL     1       8.801  -8.108   1.483  0.00  0.00    +0.000 A 
ATOM     15  C   UNL     1       6.990  -6.631   2.071  0.00  0.00    +0.000 A 
ATOM     16  C   UNL     1       8.339  -6.832   1.787  0.00  0.00    +0.000 A 
ENDBRANCH  10  11
ENDBRANCH   1  10
TORSDOF 2
ENDMDL
