MODEL 1
REMARK VINA RESULT:    -4.876      0.000      0.000
REMARK INTER + INTRA:          -5.581
REMARK INTER:                  -5.446
REMARK INTRA:                  -0.135
REMARK UNBOUND:                -0.135
REMARK  Name = 1550473
REMARK  2 active torsions:
REMARK  status: ('A' for Active; 'I' for Inactive)
REMARK    1  A    between atoms: N_1  and  C_4
REMARK    2  A    between atoms: C_4  and  C_5
REMARK                            x       y       z     vdW  Elec       q    Type
REMARK                         _______ _______ _______ _____ _____    ______ ____
ROOT
ATOM      1  N   UNL     1      10.239  10.817  17.697  0.00  0.00    -0.354 N 
ATOM      2  N   UNL     1      10.219  12.606  16.227  0.00  0.00    -0.372 N 
ATOM      3  N   UNL     1      10.159  13.023  18.482  0.00  0.00    -0.372 N 
ATOM      4  C   UNL     1      10.206  12.138  17.481  0.00  0.00    +0.166 C 
ATOM      5  H   UNL     1      10.243  10.197  16.895  0.00  0.00    +0.163 HD
ATOM      6  H   UNL     1      10.198  13.598  16.032  0.00  0.00    +0.159 HD
ATOM      7  H   UNL     1      10.269  11.986  15.427  0.00  0.00    +0.159 HD
ATOM      8  H   UNL     1      10.141  12.735  19.451  0.00  0.00    +0.159 HD
ATOM      9  H   UNL     1      10.126  14.020  18.307  0.00  0.00    +0.159 HD
ENDROOT
BRANCH   1  10
ATOM     10  C   UNL     1      10.283  10.207  19.025  0.00  0.00    +0.151 C 
BRANCH  10  11
ATOM     11  C   UNL     1       9.280   9.087  19.084  0.00  0.00    -0.028 A 
ATOM     12  C   UNL     1       8.864   8.441  17.911  0.00  0.00    +0.005 A 
ATOM     13  C   UNL     1       8.747   8.663  20.311  0.00  0.00    +0.005 A 
ATOM     14  C   UNL     1       7.956   7.382  17.968  0.00  0.00    +0.000 A 
ATOM     15  C   UNL     1       7.840   7.605  20.364  0.00  0.00    +0.000 A 
ATOM     16  C   UNL     1       7.446   6.963  19.193  0.00  0.00    +0.000 A 
ENDBRANCH  10  11
ENDBRANCH   1  10
TORSDOF 2
ENDMDL
MODEL 2
REMARK VINA RESULT:    -4.836     39.526     40.907
REMARK INTER + INTRA:          -5.537
REMARK INTER:                  -5.405
REMARK INTRA:                  -0.132
REMARK UNBOUND:                -0.135
REMARK  Name = 1550473
REMARK  2 active torsions:
REMARK  status: ('A' for Active; 'I' for Inactive)
REMARK    1  A    between atoms: N_1  and  C_4
REMARK    2  A    between atoms: C_4  and  C_5
REMARK                            x       y       z     vdW  Elec       q    Type
REMARK                         _______ _______ _______ _____ _____    ______ ____
ROOT
ATOM      1  N   UNL     1     -19.371  -3.425  -4.937  0.00  0.00    -0.354 N 
ATOM      2  N   UNL     1     -19.222  -3.758  -2.650  0.00  0.00    -0.372 N 
ATOM      3  N   UNL     1     -17.464  -4.393  -3.981  0.00  0.00    -0.372 N 
ATOM      4  C   UNL     1     -18.684  -3.858  -3.872  0.00  0.00    +0.166 C 
ATOM      5  H   UNL     1     -20.304  -3.057  -4.791  0.00  0.00    +0.163 HD
ATOM      6  H   UNL     1     -18.726  -4.073  -1.827  0.00  0.00    +0.159 HD
ATOM      7  H   UNL     1     -20.136  -3.348  -2.502  0.00  0.00    +0.159 HD
ATOM      8  H   UNL     1     -17.004  -4.502  -4.875  0.00  0.00    +0.159 HD
ATOM      9  H   UNL     1     -16.956  -4.725  -3.170  0.00  0.00    +0.159 HD
ENDROOT
BRANCH   1  10
ATOM     10  C   UNL     1     -18.854  -3.439  -6.304  0.00  0.00    +0.151 C 
BRANCH  10  11
ATOM     11  C   UNL     1     -19.999  -3.627  -7.260  0.00  0.00    -0.028 A 
ATOM     12  C   UNL     1     -21.309  -3.781  -6.782  0.00  0.00    +0.005 A 
ATOM     13  C   UNL     1     -19.782  -3.648  -8.647  0.00  0.00    +0.005 A 
ATOM     14  C   UNL     1     -22.377  -3.926  -7.671  0.00  0.00    +0.000 A 
ATOM     15  C   UNL     1     -20.851  -3.794  -9.531  0.00  0.00    +0.000 A 
ATOM     16  C   UNL     1     -22.148  -3.931  -9.043  0.00  0.00    +0.000 A 
ENDBRANCH  10  11
ENDBRANCH   1  10
TORSDOF 2
ENDMDL
MODEL 3
REMARK VINA RESULT:    -4.745     31.713     33.313
REMARK INTER + INTRA:          -5.435
REMARK INTER:                  -5.270
REMARK INTRA:                  -0.165
REMARK UNBOUND:                -0.135
REMARK  Name = 1550473
REMARK  2 active torsions:
REMARK  status: ('A' for Active; 'I' for Inactive)
REMARK    1  A    between atoms: N_1  and  C_4
REMARK    2  A    between atoms: C_4  and  C_5
REMARK                            x       y       z     vdW  Elec       q    Type
REMARK                         _______ _______ _______ _____ _____    ______ ____
ROOT
ATOM      1  N   UNL     1       3.431 -13.569  -1.813  0.00  0.00    -0.354 N 
ATOM      2  N   UNL     1       2.462 -14.221   0.187  0.00  0.00    -0.372 N 
ATOM      3  N   UNL     1       1.240 -14.397  -1.746  0.00  0.00    -0.372 N 
ATOM      4  C   UNL     1       2.382 -14.058  -1.139  0.00  0.00    +0.166 C 
ATOM      5  H   UNL     1       4.257 -13.303  -1.290  0.00  0.00    +0.163 HD
ATOM      6  H   UNL     1       1.688 -14.592   0.722  0.00  0.00    +0.159 HD
ATOM      7  H   UNL     1       3.306 -13.997   0.702  0.00  0.00    +0.159 HD
ATOM      8  H   UNL     1       1.113 -14.293  -2.744  0.00  0.00    +0.159 HD
ATOM      9  H   UNL     1       0.450 -14.759  -1.227  0.00  0.00    +0.159 HD
ENDROOT
BRANCH   1  10
ATOM     10  C   UNL     1       3.465 -13.403  -3.265  0.00  0.00    +0.151 C 
BRANCH  10  11
ATOM     11  C   UNL     1       4.353 -14.462  -3.859  0.00  0.00    -0.028 A 
ATOM     12  C   UNL     1       3.870 -15.315  -4.862  0.00  0.00    +0.005 A 
ATOM     13  C   UNL     1       5.680 -14.612  -3.428  0.00  0.00    +0.005 A 
ATOM     14  C   UNL     1       4.703 -16.279  -5.435  0.00  0.00    +0.000 A 
ATOM     15  C   UNL     1       6.508 -15.576  -4.002  0.00  0.00    +0.000 A 
ATOM     16  C   UNL     1       6.021 -16.407  -5.008  0.00  0.00    +0.000 A 
ENDBRANCH  10  11
ENDBRANCH   1  10
TORSDOF 2
ENDMDL
MODEL 4
REMARK VINA RESULT:    -4.654     34.103     35.532
REMARK INTER + INTRA:          -5.333
REMARK INTER:                  -5.200
REMARK INTRA:                  -0.133
REMARK UNBOUND:                -0.135
REMARK  Name = 1550473
REMARK  2 active torsions:
REMARK  status: ('A' for Active; 'I' for Inactive)
REMARK    1  A    between atoms: N_1  and  C_4
REMARK    2  A    between atoms: C_4  and  C_5
REMARK                            x       y       z     vdW  Elec       q    Type
REMARK                         _______ _______ _______ _____ _____    ______ ____
ROOT
ATOM      1  N   UNL     1      -5.843  -2.745 -11.818  0.00  0.00    -0.354 N 
ATOM      2  N   UNL     1      -6.396  -4.992 -11.726  0.00  0.00    -0.372 N 
ATOM      3  N   UNL     1      -7.775  -3.556 -12.867  0.00  0.00    -0.372 N 
ATOM      4  C   UNL     1      -6.670  -3.748 -12.139  0.00  0.00    +0.166 C 
ATOM      5  H   UNL     1      -5.038  -2.951 -11.238  0.00  0.00    +0.163 HD
ATOM      6  H   UNL     1      -7.000  -5.770 -11.956  0.00  0.00    +0.159 HD
ATOM      7  H   UNL     1      -5.566  -5.203 -11.186  0.00  0.00    +0.159 HD
ATOM      8  H   UNL     1      -8.042  -2.640 -13.204  0.00  0.00    +0.159 HD
ATOM      9  H   UNL     1      -8.398  -4.320 -13.097  0.00  0.00    +0.159 HD
ENDROOT
BRANCH   1  10
ATOM     10  C   UNL     1      -6.022  -1.364 -12.262  0.00  0.00    +0.151 C 
BRANCH  10  11
ATOM     11  C   UNL     1      -6.385  -0.510 -11.079  0.00  0.00    -0.028 A 
ATOM     12  C   UNL     1      -6.308  -1.027  -9.778  0.00  0.00    +0.005 A 
ATOM     13  C   UNL     1      -6.802   0.819 -11.252  0.00  0.00    +0.005 A 
ATOM     14  C   UNL     1      -6.616  -0.225  -8.676  0.00  0.00    +0.000 A 
ATOM     15  C   UNL     1      -7.110   1.616 -10.150  0.00  0.00    +0.000 A 
ATOM     16  C   UNL     1      -7.014   1.095  -8.862  0.00  0.00    +0.000 A 
ENDBRANCH  10  11
ENDBRANCH   1  10
TORSDOF 2
ENDMDL
MODEL 5
REMARK VINA RESULT:    -4.635     16.158     17.953
REMARK INTER + INTRA:          -5.312
REMARK INTER:                  -5.175
REMARK INTRA:                  -0.137
REMARK UNBOUND:                -0.135
REMARK  Name = 1550473
REMARK  2 active torsions:
REMARK  status: ('A' for Active; 'I' for Inactive)
REMARK    1  A    between atoms: N_1  and  C_4
REMARK    2  A    between atoms: C_4  and  C_5
REMARK                            x       y       z     vdW  Elec       q    Type
REMARK                         _______ _______ _______ _____ _____    ______ ____
ROOT
ATOM      1  N   UNL     1      -4.178   0.512  18.687  0.00  0.00    -0.354 N 
ATOM      2  N   UNL     1      -2.462   0.497  20.242  0.00  0.00    -0.372 N 
ATOM      3  N   UNL     1      -1.953   0.193  18.025  0.00  0.00    -0.372 N 
ATOM      4  C   UNL     1      -2.874   0.400  18.972  0.00  0.00    +0.166 C 
ATOM      5  H   UNL     1      -4.829   0.638  19.453  0.00  0.00    +0.163 HD
ATOM      6  H   UNL     1      -1.484   0.420  20.487  0.00  0.00    +0.159 HD
ATOM      7  H   UNL     1      -3.110   0.668  21.001  0.00  0.00    +0.159 HD
ATOM      8  H   UNL     1      -2.199   0.106  17.048  0.00  0.00    +0.159 HD
ATOM      9  H   UNL     1      -0.970   0.102  18.252  0.00  0.00    +0.159 HD
ENDROOT
BRANCH   1  10
ATOM     10  C   UNL     1      -4.725   0.476  17.331  0.00  0.00    +0.151 C 
BRANCH  10  11
ATOM     11  C   UNL     1      -5.694  -0.669  17.223  0.00  0.00    -0.028 A 
ATOM     12  C   UNL     1      -6.806  -0.743  18.074  0.00  0.00    +0.005 A 
ATOM     13  C   UNL     1      -5.508  -1.680  16.268  0.00  0.00    +0.005 A 
ATOM     14  C   UNL     1      -7.722  -1.791  17.954  0.00  0.00    +0.000 A 
ATOM     15  C   UNL     1      -6.425  -2.725  16.151  0.00  0.00    +0.000 A 
ATOM     16  C   UNL     1      -7.533  -2.778  16.993  0.00  0.00    +0.000 A 
ENDBRANCH  10  11
ENDBRANCH   1  10
TORSDOF 2
ENDMDL
MODEL 6
REMARK VINA RESULT:    -4.626     39.841     41.231
REMARK INTER + INTRA:          -5.302
REMARK INTER:                  -5.195
REMARK INTRA:                  -0.107
REMARK UNBOUND:                -0.135
REMARK  Name = 1550473
REMARK  2 active torsions:
REMARK  status: ('A' for Active; 'I' for Inactive)
REMARK    1  A    between atoms: N_1  and  C_4
REMARK    2  A    between atoms: C_4  and  C_5
REMARK                            x       y       z     vdW  Elec       q    Type
REMARK                         _______ _______ _______ _____ _____    ______ ____
ROOT
ATOM      1  N   UNL     1     -18.650  -4.288  -6.038  0.00  0.00    -0.354 N 
ATOM      2  N   UNL     1     -17.442  -4.744  -4.116  0.00  0.00    -0.372 N 
ATOM      3  N   UNL     1     -19.194  -3.267  -4.000  0.00  0.00    -0.372 N 
ATOM      4  C   UNL     1     -18.438  -4.095  -4.730  0.00  0.00    +0.166 C 
ATOM      5  H   UNL     1     -18.023  -4.905  -6.542  0.00  0.00    +0.163 HD
ATOM      6  H   UNL     1     -17.260  -4.621  -3.129  0.00  0.00    +0.159 HD
ATOM      7  H   UNL     1     -16.845  -5.395  -4.612  0.00  0.00    +0.159 HD
ATOM      8  H   UNL     1     -19.958  -2.743  -4.405  0.00  0.00    +0.159 HD
ATOM      9  H   UNL     1     -19.021  -3.122  -3.013  0.00  0.00    +0.159 HD
ENDROOT
BRANCH   1  10
ATOM     10  C   UNL     1     -19.742  -3.671  -6.790  0.00  0.00    +0.151 C 
BRANCH  10  11
ATOM     11  C   UNL     1     -19.710  -4.176  -8.206  0.00  0.00    -0.028 A 
ATOM     12  C   UNL     1     -19.773  -3.280  -9.283  0.00  0.00    +0.005 A 
ATOM     13  C   UNL     1     -19.612  -5.549  -8.477  0.00  0.00    +0.005 A 
ATOM     14  C   UNL     1     -19.713  -3.746 -10.599  0.00  0.00    +0.000 A 
ATOM     15  C   UNL     1     -19.554  -6.011  -9.792  0.00  0.00    +0.000 A 
ATOM     16  C   UNL     1     -19.602  -5.109 -10.852  0.00  0.00    +0.000 A 
ENDBRANCH  10  11
ENDBRANCH   1  10
TORSDOF 2
ENDMDL
MODEL 7
REMARK VINA RESULT:    -4.570     13.524     14.437
REMARK INTER + INTRA:          -5.239
REMARK INTER:                  -5.059
REMARK INTRA:                  -0.180
REMARK UNBOUND:                -0.135
REMARK  Name = 1550473
REMARK  2 active torsions:
REMARK  status: ('A' for Active; 'I' for Inactive)
REMARK    1  A    between atoms: N_1  and  C_4
REMARK    2  A    between atoms: C_4  and  C_5
REMARK                            x       y       z     vdW  Elec       q    Type
REMARK                         _______ _______ _______ _____ _____    ______ ____
ROOT
ATOM      1  N   UNL     1      -0.700  20.074  13.262  0.00  0.00    -0.354 N 
ATOM      2  N   UNL     1      -0.792  20.441  10.977  0.00  0.00    -0.372 N 
ATOM      3  N   UNL     1      -2.742  20.024  12.113  0.00  0.00    -0.372 N 
ATOM      4  C   UNL     1      -1.413  20.177  12.133  0.00  0.00    +0.166 C 
ATOM      5  H   UNL     1       0.308  20.171  13.205  0.00  0.00    +0.163 HD
ATOM      6  H   UNL     1      -1.305  20.528  10.109  0.00  0.00    +0.159 HD
ATOM      7  H   UNL     1       0.209  20.583  10.930  0.00  0.00    +0.159 HD
ATOM      8  H   UNL     1      -3.269  19.817  12.950  0.00  0.00    +0.159 HD
ATOM      9  H   UNL     1      -3.271  20.095  11.253  0.00  0.00    +0.159 HD
ENDROOT
BRANCH   1  10
ATOM     10  C   UNL     1      -1.285  19.842  14.581  0.00  0.00    +0.151 C 
BRANCH  10  11
ATOM     11  C   UNL     1      -1.181  18.379  14.914  0.00  0.00    -0.028 A 
ATOM     12  C   UNL     1      -2.337  17.598  15.057  0.00  0.00    +0.005 A 
ATOM     13  C   UNL     1       0.070  17.767  15.082  0.00  0.00    +0.005 A 
ATOM     14  C   UNL     1      -2.241  16.233  15.337  0.00  0.00    +0.000 A 
ATOM     15  C   UNL     1       0.162  16.404  15.362  0.00  0.00    +0.000 A 
ATOM     16  C   UNL     1      -0.993  15.637  15.487  0.00  0.00    +0.000 A 
ENDBRANCH  10  11
ENDBRANCH   1  10
TORSDOF 2
ENDMDL
MODEL 8
REMARK VINA RESULT:    -4.549     21.753     22.838
REMARK INTER + INTRA:          -5.217
REMARK INTER:                  -5.070
REMARK INTRA:                  -0.146
REMARK UNBOUND:                -0.135
REMARK  Name = 1550473
REMARK  2 active torsions:
REMARK  status: ('A' for Active; 'I' for Inactive)
REMARK    1  A    between atoms: N_1  and  C_4
REMARK    2  A    between atoms: C_4  and  C_5
REMARK                            x       y       z     vdW  Elec       q    Type
REMARK                         _______ _______ _______ _____ _____    ______ ____
ROOT
ATOM      1  N   UNL     1      14.364   7.950  -3.509  0.00  0.00    -0.354 N 
ATOM      2  N   UNL     1      16.552   7.559  -4.161  0.00  0.00    -0.372 N 
ATOM      3  N   UNL     1      16.164   8.807  -2.276  0.00  0.00    -0.372 N 
ATOM      4  C   UNL     1      15.679   8.110  -3.309  0.00  0.00    +0.166 C 
ATOM      5  H   UNL     1      14.061   7.436  -4.328  0.00  0.00    +0.163 HD
ATOM      6  H   UNL     1      17.550   7.659  -4.034  0.00  0.00    +0.159 HD
ATOM      7  H   UNL     1      16.247   7.006  -4.953  0.00  0.00    +0.159 HD
ATOM      8  H   UNL     1      15.558   9.253  -1.600  0.00  0.00    +0.159 HD
ATOM      9  H   UNL     1      17.159   8.928  -2.138  0.00  0.00    +0.159 HD
ENDROOT
BRANCH   1  10
ATOM     10  C   UNL     1      13.332   8.464  -2.610  0.00  0.00    +0.151 C 
BRANCH  10  11
ATOM     11  C   UNL     1      12.505   9.483  -3.344  0.00  0.00    -0.028 A 
ATOM     12  C   UNL     1      12.074   9.240  -4.656  0.00  0.00    +0.005 A 
ATOM     13  C   UNL     1      12.144  10.693  -2.730  0.00  0.00    +0.005 A 
ATOM     14  C   UNL     1      11.281  10.173  -5.327  0.00  0.00    +0.000 A 
ATOM     15  C   UNL     1      11.352  11.622  -3.404  0.00  0.00    +0.000 A 
ATOM     16  C   UNL     1      10.919  11.361  -4.701  0.00  0.00    +0.000 A 
ENDBRANCH  10  11
ENDBRANCH   1  10
TORSDOF 2
ENDMDL
MODEL 9
REMARK VINA RESULT:    -4.478     35.510     36.915
REMARK INTER + INTRA:          -5.137
REMARK INTER:                  -4.966
REMARK INTRA:                  -0.171
REMARK UNBOUND:                -0.135
REMARK  Name = 1550473
REMARK  2 active torsions:
REMARK  status: ('A' for Active; 'I' for Inactive)
REMARK    1  A    between atoms: N_1  and  C_4
REMARK    2  A    between atoms: C_4  and  C_5
REMARK                            x       y       z     vdW  Elec       q    Type
REMARK                         _______ _______ _______ _____ _____    ______ ____
ROOT
ATOM      1  N   UNL     1      -3.347  -2.407 -11.882  0.00  0.00    -0.354 N 
ATOM      2  N   UNL     1      -2.937  -3.099  -9.710  0.00  0.00    -0.372 N 
ATOM      3  N   UNL     1      -4.874  -1.955 -10.163  0.00  0.00    -0.372 N 
ATOM      4  C   UNL     1      -3.725  -2.481 -10.599  0.00  0.00    +0.166 C 
ATOM      5  H   UNL     1      -2.450  -2.799 -12.143  0.00  0.00    +0.163 HD
ATOM      6  H   UNL     1      -3.198  -3.174  -8.736  0.00  0.00    +0.159 HD
ATOM      7  H   UNL     1      -2.063  -3.531  -9.983  0.00  0.00    +0.159 HD
ATOM      8  H   UNL     1      -5.510  -1.470 -10.782  0.00  0.00    +0.159 HD
ATOM      9  H   UNL     1      -5.146  -2.009  -9.189  0.00  0.00    +0.159 HD
ENDROOT
BRANCH   1  10
ATOM     10  C   UNL     1      -4.156  -1.803 -12.939  0.00  0.00    +0.151 C 
BRANCH  10  11
ATOM     11  C   UNL     1      -4.662  -2.886 -13.851  0.00  0.00    -0.028 A 
ATOM     12  C   UNL     1      -3.986  -3.187 -15.043  0.00  0.00    +0.005 A 
ATOM     13  C   UNL     1      -5.813  -3.621 -13.526  0.00  0.00    +0.005 A 
ATOM     14  C   UNL     1      -4.438  -4.213 -15.875  0.00  0.00    +0.000 A 
ATOM     15  C   UNL     1      -6.261  -4.645 -14.360  0.00  0.00    +0.000 A 
ATOM     16  C   UNL     1      -5.572  -4.942 -15.533  0.00  0.00    +0.000 A 
ENDBRANCH  10  11
ENDBRANCH   1  10
TORSDOF 2
ENDMDL
