MODEL 1
REMARK VINA RESULT:    -5.188      0.000      0.000
REMARK INTER + INTRA:          -5.945
REMARK INTER:                  -5.795
REMARK INTRA:                  -0.150
REMARK UNBOUND:                -0.150
REMARK  Name = 1550473
REMARK  2 active torsions:
REMARK  status: ('A' for Active; 'I' for Inactive)
REMARK    1  A    between atoms: N_1  and  C_4
REMARK    2  A    between atoms: C_4  and  C_5
REMARK                            x       y       z     vdW  Elec       q    Type
REMARK                         _______ _______ _______ _____ _____    ______ ____
ROOT
ATOM      1  N   UNL     1     -16.453   0.537 -13.438  0.00  0.00    -0.354 N 
ATOM      2  N   UNL     1     -16.747   0.992 -15.690  0.00  0.00    -0.372 N 
ATOM      3  N   UNL     1     -14.702   1.400 -14.735  0.00  0.00    -0.372 N 
ATOM      4  C   UNL     1     -15.963   0.974 -14.606  0.00  0.00    +0.166 C 
ATOM      5  H   UNL     1     -17.427   0.257 -13.400  0.00  0.00    +0.163 HD
ATOM      6  H   UNL     1     -16.404   1.313 -16.586  0.00  0.00    +0.159 HD
ATOM      7  H   UNL     1     -17.706   0.668 -15.659  0.00  0.00    +0.159 HD
ATOM      8  H   UNL     1     -14.060   1.417 -13.953  0.00  0.00    +0.159 HD
ATOM      9  H   UNL     1     -14.343   1.735 -15.620  0.00  0.00    +0.159 HD
ENDROOT
BRANCH   1  10
ATOM     10  C   UNL     1     -15.667   0.428 -12.211  0.00  0.00    +0.151 C 
BRANCH  10  11
ATOM     11  C   UNL     1     -15.667  -1.005 -11.754  0.00  0.00    -0.028 A 
ATOM     12  C   UNL     1     -16.214  -1.356 -10.511  0.00  0.00    +0.005 A 
ATOM     13  C   UNL     1     -15.126  -2.017 -12.562  0.00  0.00    +0.005 A 
ATOM     14  C   UNL     1     -16.242  -2.691 -10.100  0.00  0.00    +0.000 A 
ATOM     15  C   UNL     1     -15.154  -3.348 -12.147  0.00  0.00    +0.000 A 
ATOM     16  C   UNL     1     -15.714  -3.685 -10.917  0.00  0.00    +0.000 A 
ENDBRANCH  10  11
ENDBRANCH   1  10
TORSDOF 2
ENDMDL
MODEL 2
REMARK VINA RESULT:    -5.043     16.880     17.780
REMARK INTER + INTRA:          -5.782
REMARK INTER:                  -5.644
REMARK INTRA:                  -0.138
REMARK UNBOUND:                -0.150
REMARK  Name = 1550473
REMARK  2 active torsions:
REMARK  status: ('A' for Active; 'I' for Inactive)
REMARK    1  A    between atoms: N_1  and  C_4
REMARK    2  A    between atoms: C_4  and  C_5
REMARK                            x       y       z     vdW  Elec       q    Type
REMARK                         _______ _______ _______ _____ _____    ______ ____
ROOT
ATOM      1  N   UNL     1      -6.767  -3.691   2.685  0.00  0.00    -0.354 N 
ATOM      2  N   UNL     1      -5.362  -2.240   3.820  0.00  0.00    -0.372 N 
ATOM      3  N   UNL     1      -5.718  -1.912   1.577  0.00  0.00    -0.372 N 
ATOM      4  C   UNL     1      -5.958  -2.623   2.684  0.00  0.00    +0.166 C 
ATOM      5  H   UNL     1      -6.884  -4.205   3.551  0.00  0.00    +0.163 HD
ATOM      6  H   UNL     1      -4.749  -1.437   3.850  0.00  0.00    +0.159 HD
ATOM      7  H   UNL     1      -5.517  -2.729   4.693  0.00  0.00    +0.159 HD
ATOM      8  H   UNL     1      -6.133  -2.152   0.686  0.00  0.00    +0.159 HD
ATOM      9  H   UNL     1      -5.099  -1.112   1.585  0.00  0.00    +0.159 HD
ENDROOT
BRANCH   1  10
ATOM     10  C   UNL     1      -7.506  -4.158   1.514  0.00  0.00    +0.151 C 
BRANCH  10  11
ATOM     11  C   UNL     1      -7.366  -5.651   1.408  0.00  0.00    -0.028 A 
ATOM     12  C   UNL     1      -6.105  -6.257   1.509  0.00  0.00    +0.005 A 
ATOM     13  C   UNL     1      -8.491  -6.467   1.212  0.00  0.00    +0.005 A 
ATOM     14  C   UNL     1      -5.977  -7.646   1.441  0.00  0.00    +0.000 A 
ATOM     15  C   UNL     1      -8.359  -7.854   1.143  0.00  0.00    +0.000 A 
ATOM     16  C   UNL     1      -7.103  -8.443   1.260  0.00  0.00    +0.000 A 
ENDBRANCH  10  11
ENDBRANCH   1  10
TORSDOF 2
ENDMDL
MODEL 3
REMARK VINA RESULT:    -4.985     28.387     29.308
REMARK INTER + INTRA:          -5.718
REMARK INTER:                  -5.557
REMARK INTRA:                  -0.161
REMARK UNBOUND:                -0.150
REMARK  Name = 1550473
REMARK  2 active torsions:
REMARK  status: ('A' for Active; 'I' for Inactive)
REMARK    1  A    between atoms: N_1  and  C_4
REMARK    2  A    between atoms: C_4  and  C_5
REMARK                            x       y       z     vdW  Elec       q    Type
REMARK                         _______ _______ _______ _____ _____    ______ ____
ROOT
ATOM      1  N   UNL     1      12.818  -7.945  -7.628  0.00  0.00    -0.354 N 
ATOM      2  N   UNL     1      11.814  -9.873  -6.829  0.00  0.00    -0.372 N 
ATOM      3  N   UNL     1      12.920  -8.506  -5.355  0.00  0.00    -0.372 N 
ATOM      4  C   UNL     1      12.525  -8.761  -6.607  0.00  0.00    +0.166 C 
ATOM      5  H   UNL     1      12.515  -8.210  -8.558  0.00  0.00    +0.163 HD
ATOM      6  H   UNL     1      11.574 -10.506  -6.077  0.00  0.00    +0.159 HD
ATOM      7  H   UNL     1      11.473 -10.112  -7.752  0.00  0.00    +0.159 HD
ATOM      8  H   UNL     1      13.465  -7.687  -5.122  0.00  0.00    +0.159 HD
ATOM      9  H   UNL     1      12.701  -9.134  -4.591  0.00  0.00    +0.159 HD
ENDROOT
BRANCH   1  10
ATOM     10  C   UNL     1      13.541  -6.683  -7.484  0.00  0.00    +0.151 C 
BRANCH  10  11
ATOM     11  C   UNL     1      12.565  -5.543  -7.590  0.00  0.00    -0.028 A 
ATOM     12  C   UNL     1      12.425  -4.835  -8.792  0.00  0.00    +0.005 A 
ATOM     13  C   UNL     1      11.773  -5.171  -6.492  0.00  0.00    +0.005 A 
ATOM     14  C   UNL     1      11.497  -3.796  -8.899  0.00  0.00    +0.000 A 
ATOM     15  C   UNL     1      10.849  -4.132  -6.603  0.00  0.00    +0.000 A 
ATOM     16  C   UNL     1      10.709  -3.447  -7.807  0.00  0.00    +0.000 A 
ENDBRANCH  10  11
ENDBRANCH   1  10
TORSDOF 2
ENDMDL
MODEL 4
REMARK VINA RESULT:    -4.963     28.357     29.184
REMARK INTER + INTRA:          -5.693
REMARK INTER:                  -5.548
REMARK INTRA:                  -0.145
REMARK UNBOUND:                -0.150
REMARK  Name = 1550473
REMARK  2 active torsions:
REMARK  status: ('A' for Active; 'I' for Inactive)
REMARK    1  A    between atoms: N_1  and  C_4
REMARK    2  A    between atoms: C_4  and  C_5
REMARK                            x       y       z     vdW  Elec       q    Type
REMARK                         _______ _______ _______ _____ _____    ______ ____
ROOT
ATOM      1  N   UNL     1      13.283  -5.153 -11.048  0.00  0.00    -0.354 N 
ATOM      2  N   UNL     1      14.221  -3.983 -12.813  0.00  0.00    -0.372 N 
ATOM      3  N   UNL     1      15.600  -4.827 -11.185  0.00  0.00    -0.372 N 
ATOM      4  C   UNL     1      14.364  -4.662 -11.669  0.00  0.00    +0.166 C 
ATOM      5  H   UNL     1      12.371  -4.968 -11.451  0.00  0.00    +0.163 HD
ATOM      6  H   UNL     1      15.018  -3.604 -13.306  0.00  0.00    +0.159 HD
ATOM      7  H   UNL     1      13.312  -3.839 -13.237  0.00  0.00    +0.159 HD
ATOM      8  H   UNL     1      15.775  -5.325 -10.322  0.00  0.00    +0.159 HD
ATOM      9  H   UNL     1      16.409  -4.445 -11.657  0.00  0.00    +0.159 HD
ENDROOT
BRANCH   1  10
ATOM     10  C   UNL     1      13.335  -5.953  -9.826  0.00  0.00    +0.151 C 
BRANCH  10  11
ATOM     11  C   UNL     1      12.492  -5.293  -8.770  0.00  0.00    -0.028 A 
ATOM     12  C   UNL     1      12.446  -5.811  -7.468  0.00  0.00    +0.005 A 
ATOM     13  C   UNL     1      11.741  -4.144  -9.064  0.00  0.00    +0.005 A 
ATOM     14  C   UNL     1      11.686  -5.181  -6.479  0.00  0.00    +0.000 A 
ATOM     15  C   UNL     1      10.984  -3.518  -8.075  0.00  0.00    +0.000 A 
ATOM     16  C   UNL     1      10.959  -4.035  -6.782  0.00  0.00    +0.000 A 
ENDBRANCH  10  11
ENDBRANCH   1  10
TORSDOF 2
ENDMDL
MODEL 5
REMARK VINA RESULT:    -4.881     36.689     37.658
REMARK INTER + INTRA:          -5.602
REMARK INTER:                  -5.449
REMARK INTRA:                  -0.152
REMARK UNBOUND:                -0.150
REMARK  Name = 1550473
REMARK  2 active torsions:
REMARK  status: ('A' for Active; 'I' for Inactive)
REMARK    1  A    between atoms: N_1  and  C_4
REMARK    2  A    between atoms: C_4  and  C_5
REMARK                            x       y       z     vdW  Elec       q    Type
REMARK                         _______ _______ _______ _____ _____    ______ ____
ROOT
ATOM      1  N   UNL     1      -6.136  10.932  22.069  0.00  0.00    -0.354 N 
ATOM      2  N   UNL     1      -5.082  12.371  20.592  0.00  0.00    -0.372 N 
ATOM      3  N   UNL     1      -6.958  11.248  19.897  0.00  0.00    -0.372 N 
ATOM      4  C   UNL     1      -6.068  11.506  20.861  0.00  0.00    +0.166 C 
ATOM      5  H   UNL     1      -5.413  11.147  22.746  0.00  0.00    +0.163 HD
ATOM      6  H   UNL     1      -5.007  12.823  19.691  0.00  0.00    +0.159 HD
ATOM      7  H   UNL     1      -4.387  12.620  21.286  0.00  0.00    +0.159 HD
ATOM      8  H   UNL     1      -7.722  10.600  20.034  0.00  0.00    +0.159 HD
ATOM      9  H   UNL     1      -6.893  11.681  18.985  0.00  0.00    +0.159 HD
ENDROOT
BRANCH   1  10
ATOM     10  C   UNL     1      -7.200  10.017  22.480  0.00  0.00    +0.151 C 
BRANCH  10  11
ATOM     11  C   UNL     1      -6.586   8.717  22.922  0.00  0.00    -0.028 A 
ATOM     12  C   UNL     1      -6.722   8.280  24.248  0.00  0.00    +0.005 A 
ATOM     13  C   UNL     1      -5.873   7.915  22.018  0.00  0.00    +0.005 A 
ATOM     14  C   UNL     1      -6.178   7.058  24.652  0.00  0.00    +0.000 A 
ATOM     15  C   UNL     1      -5.330   6.696  22.425  0.00  0.00    +0.000 A 
ATOM     16  C   UNL     1      -5.485   6.267  23.741  0.00  0.00    +0.000 A 
ENDBRANCH  10  11
ENDBRANCH   1  10
TORSDOF 2
ENDMDL
MODEL 6
REMARK VINA RESULT:    -4.838     35.225     36.454
REMARK INTER + INTRA:          -5.554
REMARK INTER:                  -5.407
REMARK INTRA:                  -0.146
REMARK UNBOUND:                -0.150
REMARK  Name = 1550473
REMARK  2 active torsions:
REMARK  status: ('A' for Active; 'I' for Inactive)
REMARK    1  A    between atoms: N_1  and  C_4
REMARK    2  A    between atoms: C_4  and  C_5
REMARK                            x       y       z     vdW  Elec       q    Type
REMARK                         _______ _______ _______ _____ _____    ______ ____
ROOT
ATOM      1  N   UNL     1       3.532 -10.507  16.143  0.00  0.00    -0.354 N 
ATOM      2  N   UNL     1       4.441  -8.554  16.994  0.00  0.00    -0.372 N 
ATOM      3  N   UNL     1       4.270 -10.386  18.364  0.00  0.00    -0.372 N 
ATOM      4  C   UNL     1       4.075  -9.830  17.164  0.00  0.00    +0.166 C 
ATOM      5  H   UNL     1       3.383 -10.019  15.267  0.00  0.00    +0.163 HD
ATOM      6  H   UNL     1       4.856  -8.019  17.744  0.00  0.00    +0.159 HD
ATOM      7  H   UNL     1       4.333  -8.083  16.104  0.00  0.00    +0.159 HD
ATOM      8  H   UNL     1       4.010 -11.344  18.559  0.00  0.00    +0.159 HD
ATOM      9  H   UNL     1       4.673  -9.864  19.131  0.00  0.00    +0.159 HD
ENDROOT
BRANCH   1  10
ATOM     10  C   UNL     1       3.148 -11.916  16.208  0.00  0.00    +0.151 C 
BRANCH  10  11
ATOM     11  C   UNL     1       3.950 -12.690  15.199  0.00  0.00    -0.028 A 
ATOM     12  C   UNL     1       3.571 -12.705  13.848  0.00  0.00    +0.005 A 
ATOM     13  C   UNL     1       5.093 -13.407  15.585  0.00  0.00    +0.005 A 
ATOM     14  C   UNL     1       4.333 -13.399  12.905  0.00  0.00    +0.000 A 
ATOM     15  C   UNL     1       5.850 -14.100  14.641  0.00  0.00    +0.000 A 
ATOM     16  C   UNL     1       5.471 -14.094  13.300  0.00  0.00    +0.000 A 
ENDBRANCH  10  11
ENDBRANCH   1  10
TORSDOF 2
ENDMDL
MODEL 7
REMARK VINA RESULT:    -4.712     29.261     30.153
REMARK INTER + INTRA:          -5.412
REMARK INTER:                  -5.317
REMARK INTRA:                  -0.095
REMARK UNBOUND:                -0.150
REMARK  Name = 1550473
REMARK  2 active torsions:
REMARK  status: ('A' for Active; 'I' for Inactive)
REMARK    1  A    between atoms: N_1  and  C_4
REMARK    2  A    between atoms: C_4  and  C_5
REMARK                            x       y       z     vdW  Elec       q    Type
REMARK                         _______ _______ _______ _____ _____    ______ ____
ROOT
ATOM      1  N   UNL     1      14.157  -7.237  -6.888  0.00  0.00    -0.354 N 
ATOM      2  N   UNL     1      15.643  -7.146  -5.113  0.00  0.00    -0.372 N 
ATOM      3  N   UNL     1      16.059  -5.871  -6.974  0.00  0.00    -0.372 N 
ATOM      4  C   UNL     1      15.278  -6.750  -6.338  0.00  0.00    +0.166 C 
ATOM      5  H   UNL     1      13.625  -7.924  -6.366  0.00  0.00    +0.163 HD
ATOM      6  H   UNL     1      16.481  -6.794  -4.671  0.00  0.00    +0.159 HD
ATOM      7  H   UNL     1      15.084  -7.798  -4.575  0.00  0.00    +0.159 HD
ATOM      8  H   UNL     1      15.843  -5.536  -7.904  0.00  0.00    +0.159 HD
ATOM      9  H   UNL     1      16.909  -5.515  -6.553  0.00  0.00    +0.159 HD
ENDROOT
BRANCH   1  10
ATOM     10  C   UNL     1      13.644  -6.830  -8.194  0.00  0.00    +0.151 C 
BRANCH  10  11
ATOM     11  C   UNL     1      12.656  -5.711  -8.007  0.00  0.00    -0.028 A 
ATOM     12  C   UNL     1      11.991  -5.546  -6.783  0.00  0.00    +0.005 A 
ATOM     13  C   UNL     1      12.384  -4.810  -9.048  0.00  0.00    +0.005 A 
ATOM     14  C   UNL     1      11.096  -4.489  -6.599  0.00  0.00    +0.000 A 
ATOM     15  C   UNL     1      11.489  -3.757  -8.860  0.00  0.00    +0.000 A 
ATOM     16  C   UNL     1      10.847  -3.596  -7.635  0.00  0.00    +0.000 A 
ENDBRANCH  10  11
ENDBRANCH   1  10
TORSDOF 2
ENDMDL
MODEL 8
REMARK VINA RESULT:    -4.641     22.775     23.996
REMARK INTER + INTRA:          -5.334
REMARK INTER:                  -5.193
REMARK INTRA:                  -0.141
REMARK UNBOUND:                -0.150
REMARK  Name = 1550473
REMARK  2 active torsions:
REMARK  status: ('A' for Active; 'I' for Inactive)
REMARK    1  A    between atoms: N_1  and  C_4
REMARK    2  A    between atoms: C_4  and  C_5
REMARK                            x       y       z     vdW  Elec       q    Type
REMARK                         _______ _______ _______ _____ _____    ______ ____
ROOT
ATOM      1  N   UNL     1       3.105 -15.058 -20.815  0.00  0.00    -0.354 N 
ATOM      2  N   UNL     1       5.344 -14.477 -20.937  0.00  0.00    -0.372 N 
ATOM      3  N   UNL     1       3.763 -12.814 -20.970  0.00  0.00    -0.372 N 
ATOM      4  C   UNL     1       4.055 -14.117 -20.907  0.00  0.00    +0.166 C 
ATOM      5  H   UNL     1       3.390 -16.030 -20.801  0.00  0.00    +0.163 HD
ATOM      6  H   UNL     1       6.083 -13.790 -21.003  0.00  0.00    +0.159 HD
ATOM      7  H   UNL     1       5.628 -15.447 -20.877  0.00  0.00    +0.159 HD
ATOM      8  H   UNL     1       2.810 -12.477 -20.958  0.00  0.00    +0.159 HD
ATOM      9  H   UNL     1       4.488 -12.112 -21.048  0.00  0.00    +0.159 HD
ENDROOT
BRANCH   1  10
ATOM     10  C   UNL     1       1.675 -14.769 -20.721  0.00  0.00    +0.151 C 
BRANCH  10  11
ATOM     11  C   UNL     1       1.107 -15.484 -19.525  0.00  0.00    -0.028 A 
ATOM     12  C   UNL     1      -0.276 -15.494 -19.293  0.00  0.00    +0.005 A 
ATOM     13  C   UNL     1       1.947 -16.158 -18.625  0.00  0.00    +0.005 A 
ATOM     14  C   UNL     1      -0.806 -16.183 -18.199  0.00  0.00    +0.000 A 
ATOM     15  C   UNL     1       1.414 -16.844 -17.534  0.00  0.00    +0.000 A 
ATOM     16  C   UNL     1       0.037 -16.858 -17.323  0.00  0.00    +0.000 A 
ENDBRANCH  10  11
ENDBRANCH   1  10
TORSDOF 2
ENDMDL
MODEL 9
REMARK VINA RESULT:    -4.553     37.315     38.388
REMARK INTER + INTRA:          -5.236
REMARK INTER:                  -5.082
REMARK INTRA:                  -0.154
REMARK UNBOUND:                -0.150
REMARK  Name = 1550473
REMARK  2 active torsions:
REMARK  status: ('A' for Active; 'I' for Inactive)
REMARK    1  A    between atoms: N_1  and  C_4
REMARK    2  A    between atoms: C_4  and  C_5
REMARK                            x       y       z     vdW  Elec       q    Type
REMARK                         _______ _______ _______ _____ _____    ______ ____
ROOT
ATOM      1  N   UNL     1      -6.279  11.633  22.803  0.00  0.00    -0.354 N 
ATOM      2  N   UNL     1      -5.219  13.524  23.619  0.00  0.00    -0.372 N 
ATOM      3  N   UNL     1      -4.506  12.622  21.633  0.00  0.00    -0.372 N 
ATOM      4  C   UNL     1      -5.340  12.580  22.677  0.00  0.00    +0.166 C 
ATOM      5  H   UNL     1      -6.860  11.639  23.634  0.00  0.00    +0.163 HD
ATOM      6  H   UNL     1      -4.522  14.254  23.549  0.00  0.00    +0.159 HD
ATOM      7  H   UNL     1      -5.832  13.555  24.424  0.00  0.00    +0.159 HD
ATOM      8  H   UNL     1      -4.541  11.935  20.892  0.00  0.00    +0.159 HD
ATOM      9  H   UNL     1      -3.794  13.337  21.552  0.00  0.00    +0.159 HD
ENDROOT
BRANCH   1  10
ATOM     10  C   UNL     1      -6.529  10.592  21.808  0.00  0.00    +0.151 C 
BRANCH  10  11
ATOM     11  C   UNL     1      -6.169   9.255  22.395  0.00  0.00    -0.028 A 
ATOM     12  C   UNL     1      -5.855   8.172  21.561  0.00  0.00    +0.005 A 
ATOM     13  C   UNL     1      -6.134   9.067  23.786  0.00  0.00    +0.005 A 
ATOM     14  C   UNL     1      -5.491   6.939  22.106  0.00  0.00    +0.000 A 
ATOM     15  C   UNL     1      -5.771   7.833  24.326  0.00  0.00    +0.000 A 
ATOM     16  C   UNL     1      -5.447   6.770  23.486  0.00  0.00    +0.000 A 
ENDBRANCH  10  11
ENDBRANCH   1  10
TORSDOF 2
ENDMDL
