MODEL 1
REMARK VINA RESULT:    -5.178      0.000      0.000
REMARK INTER + INTRA:          -5.930
REMARK INTER:                  -5.783
REMARK INTRA:                  -0.147
REMARK UNBOUND:                -0.147
REMARK  Name = 1550473
REMARK  2 active torsions:
REMARK  status: ('A' for Active; 'I' for Inactive)
REMARK    1  A    between atoms: N_1  and  C_4
REMARK    2  A    between atoms: C_4  and  C_5
REMARK                            x       y       z     vdW  Elec       q    Type
REMARK                         _______ _______ _______ _____ _____    ______ ____
ROOT
ATOM      1  N   UNL     1       9.355   4.835  10.182  0.00  0.00    -0.354 N 
ATOM      2  N   UNL     1       9.587   5.495   7.975  0.00  0.00    -0.372 N 
ATOM      3  N   UNL     1       9.742   3.264   8.487  0.00  0.00    -0.372 N 
ATOM      4  C   UNL     1       9.561   4.524   8.895  0.00  0.00    +0.166 C 
ATOM      5  H   UNL     1       9.255   5.812  10.431  0.00  0.00    +0.163 HD
ATOM      6  H   UNL     1       9.737   5.291   6.996  0.00  0.00    +0.159 HD
ATOM      7  H   UNL     1       9.441   6.467   8.220  0.00  0.00    +0.159 HD
ATOM      8  H   UNL     1       9.739   2.486   9.133  0.00  0.00    +0.159 HD
ATOM      9  H   UNL     1       9.905   3.041   7.513  0.00  0.00    +0.159 HD
ENDROOT
BRANCH   1  10
ATOM     10  C   UNL     1       9.255   3.848  11.256  0.00  0.00    +0.151 C 
BRANCH  10  11
ATOM     11  C   UNL     1       7.951   4.041  11.980  0.00  0.00    -0.028 A 
ATOM     12  C   UNL     1       7.935   4.331  13.352  0.00  0.00    +0.005 A 
ATOM     13  C   UNL     1       6.729   3.940  11.299  0.00  0.00    +0.005 A 
ATOM     14  C   UNL     1       6.726   4.540  14.019  0.00  0.00    +0.000 A 
ATOM     15  C   UNL     1       5.523   4.148  11.968  0.00  0.00    +0.000 A 
ATOM     16  C   UNL     1       5.522   4.451  13.328  0.00  0.00    +0.000 A 
ENDBRANCH  10  11
ENDBRANCH   1  10
TORSDOF 2
ENDMDL
MODEL 2
REMARK VINA RESULT:    -4.974      1.921      3.135
REMARK INTER + INTRA:          -5.702
REMARK INTER:                  -5.536
REMARK INTRA:                  -0.166
REMARK UNBOUND:                -0.147
REMARK  Name = 1550473
REMARK  2 active torsions:
REMARK  status: ('A' for Active; 'I' for Inactive)
REMARK    1  A    between atoms: N_1  and  C_4
REMARK    2  A    between atoms: C_4  and  C_5
REMARK                            x       y       z     vdW  Elec       q    Type
REMARK                         _______ _______ _______ _____ _____    ______ ____
ROOT
ATOM      1  N   UNL     1       9.289   5.932   7.700  0.00  0.00    -0.354 N 
ATOM      2  N   UNL     1       8.626   6.766   5.644  0.00  0.00    -0.372 N 
ATOM      3  N   UNL     1       8.753   8.197   7.432  0.00  0.00    -0.372 N 
ATOM      4  C   UNL     1       8.893   6.962   6.940  0.00  0.00    +0.166 C 
ATOM      5  H   UNL     1       9.347   5.014   7.274  0.00  0.00    +0.163 HD
ATOM      6  H   UNL     1       8.329   7.524   5.045  0.00  0.00    +0.159 HD
ATOM      7  H   UNL     1       8.729   5.856   5.210  0.00  0.00    +0.159 HD
ATOM      8  H   UNL     1       8.933   8.410   8.404  0.00  0.00    +0.159 HD
ATOM      9  H   UNL     1       8.445   8.967   6.852  0.00  0.00    +0.159 HD
ENDROOT
BRANCH   1  10
ATOM     10  C   UNL     1       9.656   6.049   9.110  0.00  0.00    +0.151 C 
BRANCH  10  11
ATOM     11  C   UNL     1       8.674   5.269   9.940  0.00  0.00    -0.028 A 
ATOM     12  C   UNL     1       7.445   5.836  10.309  0.00  0.00    +0.005 A 
ATOM     13  C   UNL     1       8.963   3.961  10.356  0.00  0.00    +0.005 A 
ATOM     14  C   UNL     1       6.520   5.102  11.055  0.00  0.00    +0.000 A 
ATOM     15  C   UNL     1       8.037   3.231  11.101  0.00  0.00    +0.000 A 
ATOM     16  C   UNL     1       6.815   3.801  11.448  0.00  0.00    +0.000 A 
ENDBRANCH  10  11
ENDBRANCH   1  10
TORSDOF 2
ENDMDL
MODEL 3
REMARK VINA RESULT:    -4.973      7.728      8.891
REMARK INTER + INTRA:          -5.701
REMARK INTER:                  -5.605
REMARK INTRA:                  -0.096
REMARK UNBOUND:                -0.147
REMARK  Name = 1550473
REMARK  2 active torsions:
REMARK  status: ('A' for Active; 'I' for Inactive)
REMARK    1  A    between atoms: N_1  and  C_4
REMARK    2  A    between atoms: C_4  and  C_5
REMARK                            x       y       z     vdW  Elec       q    Type
REMARK                         _______ _______ _______ _____ _____    ______ ____
ROOT
ATOM      1  N   UNL     1      10.214  10.536   6.128  0.00  0.00    -0.354 N 
ATOM      2  N   UNL     1      10.579  12.804   6.423  0.00  0.00    -0.372 N 
ATOM      3  N   UNL     1       9.225  11.697   7.908  0.00  0.00    -0.372 N 
ATOM      4  C   UNL     1      10.001  11.664   6.819  0.00  0.00    +0.166 C 
ATOM      5  H   UNL     1      10.789  10.584   5.294  0.00  0.00    +0.163 HD
ATOM      6  H   UNL     1      10.440  13.670   6.927  0.00  0.00    +0.159 HD
ATOM      7  H   UNL     1      11.190  12.840   5.616  0.00  0.00    +0.159 HD
ATOM      8  H   UNL     1       8.755  10.871   8.256  0.00  0.00    +0.159 HD
ATOM      9  H   UNL     1       9.064  12.556   8.418  0.00  0.00    +0.159 HD
ENDROOT
BRANCH   1  10
ATOM     10  C   UNL     1       9.675   9.231   6.507  0.00  0.00    +0.151 C 
BRANCH  10  11
ATOM     11  C   UNL     1       9.627   8.348   5.290  0.00  0.00    -0.028 A 
ATOM     12  C   UNL     1       8.408   8.088   4.647  0.00  0.00    +0.005 A 
ATOM     13  C   UNL     1      10.798   7.773   4.773  0.00  0.00    +0.005 A 
ATOM     14  C   UNL     1       8.367   7.292   3.500  0.00  0.00    +0.000 A 
ATOM     15  C   UNL     1      10.752   6.978   3.628  0.00  0.00    +0.000 A 
ATOM     16  C   UNL     1       9.537   6.740   2.990  0.00  0.00    +0.000 A 
ENDBRANCH  10  11
ENDBRANCH   1  10
TORSDOF 2
ENDMDL
MODEL 4
REMARK VINA RESULT:    -4.931     17.305     18.401
REMARK INTER + INTRA:          -5.654
REMARK INTER:                  -5.504
REMARK INTRA:                  -0.150
REMARK UNBOUND:                -0.147
REMARK  Name = 1550473
REMARK  2 active torsions:
REMARK  status: ('A' for Active; 'I' for Inactive)
REMARK    1  A    between atoms: N_1  and  C_4
REMARK    2  A    between atoms: C_4  and  C_5
REMARK                            x       y       z     vdW  Elec       q    Type
REMARK                         _______ _______ _______ _____ _____    ______ ____
ROOT
ATOM      1  N   UNL     1      -2.505  -2.675  -0.045  0.00  0.00    -0.354 N 
ATOM      2  N   UNL     1      -1.658  -0.546   0.290  0.00  0.00    -0.372 N 
ATOM      3  N   UNL     1      -2.184  -1.830   2.117  0.00  0.00    -0.372 N 
ATOM      4  C   UNL     1      -2.122  -1.698   0.788  0.00  0.00    +0.166 C 
ATOM      5  H   UNL     1      -2.462  -2.502  -1.042  0.00  0.00    +0.163 HD
ATOM      6  H   UNL     1      -1.358   0.208   0.894  0.00  0.00    +0.159 HD
ATOM      7  H   UNL     1      -1.573  -0.393  -0.708  0.00  0.00    +0.159 HD
ATOM      8  H   UNL     1      -2.530  -2.673   2.556  0.00  0.00    +0.159 HD
ATOM      9  H   UNL     1      -1.899  -1.083   2.738  0.00  0.00    +0.159 HD
ENDROOT
BRANCH   1  10
ATOM     10  C   UNL     1      -2.974  -3.988   0.396  0.00  0.00    +0.151 C 
BRANCH  10  11
ATOM     11  C   UNL     1      -4.411  -4.159  -0.013  0.00  0.00    -0.028 A 
ATOM     12  C   UNL     1      -4.895  -3.556  -1.184  0.00  0.00    +0.005 A 
ATOM     13  C   UNL     1      -5.293  -4.928   0.762  0.00  0.00    +0.005 A 
ATOM     14  C   UNL     1      -6.222  -3.739  -1.580  0.00  0.00    +0.000 A 
ATOM     15  C   UNL     1      -6.617  -5.107   0.363  0.00  0.00    +0.000 A 
ATOM     16  C   UNL     1      -7.081  -4.515  -0.809  0.00  0.00    +0.000 A 
ENDBRANCH  10  11
ENDBRANCH   1  10
TORSDOF 2
ENDMDL
MODEL 5
REMARK VINA RESULT:    -4.840     16.762     17.824
REMARK INTER + INTRA:          -5.553
REMARK INTER:                  -5.414
REMARK INTRA:                  -0.139
REMARK UNBOUND:                -0.147
REMARK  Name = 1550473
REMARK  2 active torsions:
REMARK  status: ('A' for Active; 'I' for Inactive)
REMARK    1  A    between atoms: N_1  and  C_4
REMARK    2  A    between atoms: C_4  and  C_5
REMARK                            x       y       z     vdW  Elec       q    Type
REMARK                         _______ _______ _______ _____ _____    ______ ____
ROOT
ATOM      1  N   UNL     1      -2.864  -2.669  -0.804  0.00  0.00    -0.354 N 
ATOM      2  N   UNL     1      -0.670  -3.108  -1.400  0.00  0.00    -0.372 N 
ATOM      3  N   UNL     1      -1.080  -1.688   0.355  0.00  0.00    -0.372 N 
ATOM      4  C   UNL     1      -1.552  -2.483  -0.610  0.00  0.00    +0.166 C 
ATOM      5  H   UNL     1      -3.159  -3.261  -1.573  0.00  0.00    +0.163 HD
ATOM      6  H   UNL     1       0.327  -2.990  -1.275  0.00  0.00    +0.159 HD
ATOM      7  H   UNL     1      -0.966  -3.735  -2.138  0.00  0.00    +0.159 HD
ATOM      8  H   UNL     1      -1.693  -1.183   0.981  0.00  0.00    +0.159 HD
ATOM      9  H   UNL     1      -0.086  -1.548   0.488  0.00  0.00    +0.159 HD
ENDROOT
BRANCH   1  10
ATOM     10  C   UNL     1      -3.906  -2.077   0.033  0.00  0.00    +0.151 C 
BRANCH  10  11
ATOM     11  C   UNL     1      -4.693  -3.178   0.689  0.00  0.00    -0.028 A 
ATOM     12  C   UNL     1      -4.810  -3.236   2.086  0.00  0.00    +0.005 A 
ATOM     13  C   UNL     1      -5.330  -4.164  -0.081  0.00  0.00    +0.005 A 
ATOM     14  C   UNL     1      -5.565  -4.241   2.694  0.00  0.00    +0.000 A 
ATOM     15  C   UNL     1      -6.082  -5.167   0.530  0.00  0.00    +0.000 A 
ATOM     16  C   UNL     1      -6.202  -5.203   1.917  0.00  0.00    +0.000 A 
ENDBRANCH  10  11
ENDBRANCH   1  10
TORSDOF 2
ENDMDL
MODEL 6
REMARK VINA RESULT:    -4.804      7.979     10.217
REMARK INTER + INTRA:          -5.512
REMARK INTER:                  -5.403
REMARK INTRA:                  -0.109
REMARK UNBOUND:                -0.147
REMARK  Name = 1550473
REMARK  2 active torsions:
REMARK  status: ('A' for Active; 'I' for Inactive)
REMARK    1  A    between atoms: N_1  and  C_4
REMARK    2  A    between atoms: C_4  and  C_5
REMARK                            x       y       z     vdW  Elec       q    Type
REMARK                         _______ _______ _______ _____ _____    ______ ____
ROOT
ATOM      1  N   UNL     1      10.238   7.032   4.249  0.00  0.00    -0.354 N 
ATOM      2  N   UNL     1       8.357   7.782   5.374  0.00  0.00    -0.372 N 
ATOM      3  N   UNL     1       8.255   7.515   3.097  0.00  0.00    -0.372 N 
ATOM      4  C   UNL     1       8.962   7.438   4.230  0.00  0.00    +0.166 C 
ATOM      5  H   UNL     1      10.728   7.025   5.136  0.00  0.00    +0.163 HD
ATOM      6  H   UNL     1       7.394   8.088   5.391  0.00  0.00    +0.159 HD
ATOM      7  H   UNL     1       8.835   7.730   6.265  0.00  0.00    +0.159 HD
ATOM      8  H   UNL     1       8.655   7.275   2.199  0.00  0.00    +0.159 HD
ATOM      9  H   UNL     1       7.293   7.831   3.092  0.00  0.00    +0.159 HD
ENDROOT
BRANCH   1  10
ATOM     10  C   UNL     1      10.972   6.585   3.066  0.00  0.00    +0.151 C 
BRANCH  10  11
ATOM     11  C   UNL     1      12.377   7.117   3.130  0.00  0.00    -0.028 A 
ATOM     12  C   UNL     1      12.847   8.005   2.152  0.00  0.00    +0.005 A 
ATOM     13  C   UNL     1      13.242   6.739   4.169  0.00  0.00    +0.005 A 
ATOM     14  C   UNL     1      14.142   8.523   2.227  0.00  0.00    +0.000 A 
ATOM     15  C   UNL     1      14.535   7.258   4.240  0.00  0.00    +0.000 A 
ATOM     16  C   UNL     1      14.984   8.151   3.271  0.00  0.00    +0.000 A 
ENDBRANCH  10  11
ENDBRANCH   1  10
TORSDOF 2
ENDMDL
MODEL 7
REMARK VINA RESULT:    -4.734      6.837      7.876
REMARK INTER + INTRA:          -5.434
REMARK INTER:                  -5.291
REMARK INTRA:                  -0.143
REMARK UNBOUND:                -0.147
REMARK  Name = 1550473
REMARK  2 active torsions:
REMARK  status: ('A' for Active; 'I' for Inactive)
REMARK    1  A    between atoms: N_1  and  C_4
REMARK    2  A    between atoms: C_4  and  C_5
REMARK                            x       y       z     vdW  Elec       q    Type
REMARK                         _______ _______ _______ _____ _____    ______ ____
ROOT
ATOM      1  N   UNL     1      11.861   6.070   6.757  0.00  0.00    -0.354 N 
ATOM      2  N   UNL     1      12.763   4.127   7.636  0.00  0.00    -0.372 N 
ATOM      3  N   UNL     1      13.974   5.309   6.086  0.00  0.00    -0.372 N 
ATOM      4  C   UNL     1      12.862   5.182   6.818  0.00  0.00    +0.166 C 
ATOM      5  H   UNL     1      11.033   5.901   7.315  0.00  0.00    +0.163 HD
ATOM      6  H   UNL     1      13.504   3.442   7.706  0.00  0.00    +0.159 HD
ATOM      7  H   UNL     1      11.954   3.984   8.227  0.00  0.00    +0.159 HD
ATOM      8  H   UNL     1      14.108   6.080   5.445  0.00  0.00    +0.159 HD
ATOM      9  H   UNL     1      14.721   4.628   6.134  0.00  0.00    +0.159 HD
ENDROOT
BRANCH   1  10
ATOM     10  C   UNL     1      11.893   7.282   5.940  0.00  0.00    +0.151 C 
BRANCH  10  11
ATOM     11  C   UNL     1      10.727   7.265   4.990  0.00  0.00    -0.028 A 
ATOM     12  C   UNL     1       9.474   7.751   5.393  0.00  0.00    +0.005 A 
ATOM     13  C   UNL     1      10.869   6.768   3.686  0.00  0.00    +0.005 A 
ATOM     14  C   UNL     1       8.398   7.763   4.501  0.00  0.00    +0.000 A 
ATOM     15  C   UNL     1       9.792   6.781   2.799  0.00  0.00    +0.000 A 
ATOM     16  C   UNL     1       8.558   7.281   3.207  0.00  0.00    +0.000 A 
ENDBRANCH  10  11
ENDBRANCH   1  10
TORSDOF 2
ENDMDL
MODEL 8
REMARK VINA RESULT:    -4.721     15.927     16.962
REMARK INTER + INTRA:          -5.420
REMARK INTER:                  -5.315
REMARK INTRA:                  -0.105
REMARK UNBOUND:                -0.147
REMARK  Name = 1550473
REMARK  2 active torsions:
REMARK  status: ('A' for Active; 'I' for Inactive)
REMARK    1  A    between atoms: N_1  and  C_4
REMARK    2  A    between atoms: C_4  and  C_5
REMARK                            x       y       z     vdW  Elec       q    Type
REMARK                         _______ _______ _______ _____ _____    ______ ____
ROOT
ATOM      1  N   UNL     1      -2.246  -1.897   0.234  0.00  0.00    -0.354 N 
ATOM      2  N   UNL     1      -1.175   0.121  -0.148  0.00  0.00    -0.372 N 
ATOM      3  N   UNL     1      -0.022  -1.832  -0.501  0.00  0.00    -0.372 N 
ATOM      4  C   UNL     1      -1.153  -1.218  -0.136  0.00  0.00    +0.166 C 
ATOM      5  H   UNL     1      -3.062  -1.372   0.529  0.00  0.00    +0.163 HD
ATOM      6  H   UNL     1      -0.366   0.660  -0.426  0.00  0.00    +0.159 HD
ATOM      7  H   UNL     1      -2.006   0.642   0.103  0.00  0.00    +0.159 HD
ATOM      8  H   UNL     1       0.062  -2.839  -0.508  0.00  0.00    +0.159 HD
ATOM      9  H   UNL     1       0.802  -1.309  -0.771  0.00  0.00    +0.159 HD
ENDROOT
BRANCH   1  10
ATOM     10  C   UNL     1      -2.343  -3.355   0.230  0.00  0.00    +0.151 C 
BRANCH  10  11
ATOM     11  C   UNL     1      -3.543  -3.770   1.036  0.00  0.00    -0.028 A 
ATOM     12  C   UNL     1      -4.573  -4.517   0.446  0.00  0.00    +0.005 A 
ATOM     13  C   UNL     1      -3.653  -3.424   2.392  0.00  0.00    +0.005 A 
ATOM     14  C   UNL     1      -5.674  -4.929   1.202  0.00  0.00    +0.000 A 
ATOM     15  C   UNL     1      -4.754  -3.836   3.143  0.00  0.00    +0.000 A 
ATOM     16  C   UNL     1      -5.763  -4.590   2.548  0.00  0.00    +0.000 A 
ENDBRANCH  10  11
ENDBRANCH   1  10
TORSDOF 2
ENDMDL
MODEL 9
REMARK VINA RESULT:    -4.620     16.640     17.794
REMARK INTER + INTRA:          -5.307
REMARK INTER:                  -5.153
REMARK INTRA:                  -0.154
REMARK UNBOUND:                -0.147
REMARK  Name = 1550473
REMARK  2 active torsions:
REMARK  status: ('A' for Active; 'I' for Inactive)
REMARK    1  A    between atoms: N_1  and  C_4
REMARK    2  A    between atoms: C_4  and  C_5
REMARK                            x       y       z     vdW  Elec       q    Type
REMARK                         _______ _______ _______ _____ _____    ______ ____
ROOT
ATOM      1  N   UNL     1      -3.717  -1.984   2.323  0.00  0.00    -0.354 N 
ATOM      2  N   UNL     1      -1.968  -1.111   1.080  0.00  0.00    -0.372 N 
ATOM      3  N   UNL     1      -1.656  -3.092   2.195  0.00  0.00    -0.372 N 
ATOM      4  C   UNL     1      -2.457  -2.070   1.875  0.00  0.00    +0.166 C 
ATOM      5  H   UNL     1      -4.263  -1.169   2.068  0.00  0.00    +0.163 HD
ATOM      6  H   UNL     1      -1.022  -1.151   0.724  0.00  0.00    +0.159 HD
ATOM      7  H   UNL     1      -2.531  -0.321   0.790  0.00  0.00    +0.159 HD
ATOM      8  H   UNL     1      -1.962  -3.845   2.797  0.00  0.00    +0.159 HD
ATOM      9  H   UNL     1      -0.702  -3.143   1.859  0.00  0.00    +0.159 HD
ENDROOT
BRANCH   1  10
ATOM     10  C   UNL     1      -4.362  -3.002   3.150  0.00  0.00    +0.151 C 
BRANCH  10  11
ATOM     11  C   UNL     1      -5.429  -3.688   2.341  0.00  0.00    -0.028 A 
ATOM     12  C   UNL     1      -6.786  -3.475   2.627  0.00  0.00    +0.005 A 
ATOM     13  C   UNL     1      -5.090  -4.547   1.285  0.00  0.00    +0.005 A 
ATOM     14  C   UNL     1      -7.777  -4.088   1.857  0.00  0.00    +0.000 A 
ATOM     15  C   UNL     1      -6.083  -5.158   0.519  0.00  0.00    +0.000 A 
ATOM     16  C   UNL     1      -7.427  -4.926   0.804  0.00  0.00    +0.000 A 
ENDBRANCH  10  11
ENDBRANCH   1  10
TORSDOF 2
ENDMDL
