MODEL 1
REMARK VINA RESULT:    -4.595      0.000      0.000
REMARK INTER + INTRA:          -5.312
REMARK INTER:                  -5.132
REMARK INTRA:                  -0.179
REMARK UNBOUND:                -0.179
REMARK  Name = 1550473
REMARK  2 active torsions:
REMARK  status: ('A' for Active; 'I' for Inactive)
REMARK    1  A    between atoms: N_1  and  C_4
REMARK    2  A    between atoms: C_4  and  C_5
REMARK                            x       y       z     vdW  Elec       q    Type
REMARK                         _______ _______ _______ _____ _____    ______ ____
ROOT
ATOM      1  N   UNL     1      10.321   0.515 -10.394  0.00  0.00    -0.354 N 
ATOM      2  N   UNL     1      11.047   0.797  -8.212  0.00  0.00    -0.372 N 
ATOM      3  N   UNL     1      10.967   2.623  -9.600  0.00  0.00    -0.372 N 
ATOM      4  C   UNL     1      10.774   1.312  -9.417  0.00  0.00    +0.166 C 
ATOM      5  H   UNL     1      10.225  -0.476 -10.201  0.00  0.00    +0.163 HD
ATOM      6  H   UNL     1      11.387   1.374  -7.455  0.00  0.00    +0.159 HD
ATOM      7  H   UNL     1      10.906  -0.185  -8.009  0.00  0.00    +0.159 HD
ATOM      8  H   UNL     1      10.785   3.072 -10.487  0.00  0.00    +0.159 HD
ATOM      9  H   UNL     1      11.317   3.215  -8.857  0.00  0.00    +0.159 HD
ENDROOT
BRANCH   1  10
ATOM     10  C   UNL     1       9.943   0.986 -11.725  0.00  0.00    +0.151 C 
BRANCH  10  11
ATOM     11  C   UNL     1       8.443   1.042 -11.818  0.00  0.00    -0.028 A 
ATOM     12  C   UNL     1       7.757   2.234 -11.540  0.00  0.00    +0.005 A 
ATOM     13  C   UNL     1       7.703  -0.090 -12.191  0.00  0.00    +0.005 A 
ATOM     14  C   UNL     1       6.366   2.295 -11.656  0.00  0.00    +0.000 A 
ATOM     15  C   UNL     1       6.314  -0.025 -12.304  0.00  0.00    +0.000 A 
ATOM     16  C   UNL     1       5.647   1.168 -12.039  0.00  0.00    +0.000 A 
ENDBRANCH  10  11
ENDBRANCH   1  10
TORSDOF 2
ENDMDL
MODEL 2
REMARK VINA RESULT:    -4.531      1.163      2.176
REMARK INTER + INTRA:          -5.240
REMARK INTER:                  -5.124
REMARK INTRA:                  -0.116
REMARK UNBOUND:                -0.179
REMARK  Name = 1550473
REMARK  2 active torsions:
REMARK  status: ('A' for Active; 'I' for Inactive)
REMARK    1  A    between atoms: N_1  and  C_4
REMARK    2  A    between atoms: C_4  and  C_5
REMARK                            x       y       z     vdW  Elec       q    Type
REMARK                         _______ _______ _______ _____ _____    ______ ____
ROOT
ATOM      1  N   UNL     1      10.701   2.143 -10.144  0.00  0.00    -0.354 N 
ATOM      2  N   UNL     1      12.676   3.301  -9.799  0.00  0.00    -0.372 N 
ATOM      3  N   UNL     1      12.288   1.387  -8.595  0.00  0.00    -0.372 N 
ATOM      4  C   UNL     1      11.876   2.267  -9.513  0.00  0.00    +0.166 C 
ATOM      5  H   UNL     1      10.432   2.860 -10.808  0.00  0.00    +0.163 HD
ATOM      6  H   UNL     1      13.570   3.420  -9.341  0.00  0.00    +0.159 HD
ATOM      7  H   UNL     1      12.426   3.992 -10.496  0.00  0.00    +0.159 HD
ATOM      8  H   UNL     1      11.728   0.588  -8.330  0.00  0.00    +0.159 HD
ATOM      9  H   UNL     1      13.175   1.495  -8.118  0.00  0.00    +0.159 HD
ENDROOT
BRANCH   1  10
ATOM     10  C   UNL     1       9.780   1.025  -9.945  0.00  0.00    +0.151 C 
BRANCH  10  11
ATOM     11  C   UNL     1       8.491   1.316 -10.662  0.00  0.00    -0.028 A 
ATOM     12  C   UNL     1       7.747   0.277 -11.239  0.00  0.00    +0.005 A 
ATOM     13  C   UNL     1       8.005   2.629 -10.763  0.00  0.00    +0.005 A 
ATOM     14  C   UNL     1       6.534   0.544 -11.880  0.00  0.00    +0.000 A 
ATOM     15  C   UNL     1       6.795   2.891 -11.404  0.00  0.00    +0.000 A 
ATOM     16  C   UNL     1       6.058   1.848 -11.960  0.00  0.00    +0.000 A 
ENDBRANCH  10  11
ENDBRANCH   1  10
TORSDOF 2
ENDMDL
MODEL 3
REMARK VINA RESULT:    -4.490     19.156     20.119
REMARK INTER + INTRA:          -5.194
REMARK INTER:                  -5.051
REMARK INTRA:                  -0.143
REMARK UNBOUND:                -0.179
REMARK  Name = 1550473
REMARK  2 active torsions:
REMARK  status: ('A' for Active; 'I' for Inactive)
REMARK    1  A    between atoms: N_1  and  C_4
REMARK    2  A    between atoms: C_4  and  C_5
REMARK                            x       y       z     vdW  Elec       q    Type
REMARK                         _______ _______ _______ _____ _____    ______ ____
ROOT
ATOM      1  N   UNL     1      -0.187 -13.948  -1.187  0.00  0.00    -0.354 N 
ATOM      2  N   UNL     1       1.056 -12.133  -0.463  0.00  0.00    -0.372 N 
ATOM      3  N   UNL     1       2.155 -14.016  -1.179  0.00  0.00    -0.372 N 
ATOM      4  C   UNL     1       1.002 -13.379  -0.948  0.00  0.00    +0.166 C 
ATOM      5  H   UNL     1      -1.025 -13.424  -0.962  0.00  0.00    +0.163 HD
ATOM      6  H   UNL     1       1.939 -11.677  -0.276  0.00  0.00    +0.159 HD
ATOM      7  H   UNL     1       0.218 -11.594  -0.282  0.00  0.00    +0.159 HD
ATOM      8  H   UNL     1       2.183 -14.960  -1.539  0.00  0.00    +0.159 HD
ATOM      9  H   UNL     1       3.049 -13.580  -0.988  0.00  0.00    +0.159 HD
ENDROOT
BRANCH   1  10
ATOM     10  C   UNL     1      -0.355 -15.280  -1.765  0.00  0.00    +0.151 C 
BRANCH  10  11
ATOM     11  C   UNL     1      -1.217 -15.177  -2.993  0.00  0.00    -0.028 A 
ATOM     12  C   UNL     1      -0.686 -14.691  -4.197  0.00  0.00    +0.005 A 
ATOM     13  C   UNL     1      -2.564 -15.569  -2.961  0.00  0.00    +0.005 A 
ATOM     14  C   UNL     1      -1.478 -14.624  -5.346  0.00  0.00    +0.000 A 
ATOM     15  C   UNL     1      -3.352 -15.499  -4.110  0.00  0.00    +0.000 A 
ATOM     16  C   UNL     1      -2.808 -15.029  -5.302  0.00  0.00    +0.000 A 
ENDBRANCH  10  11
ENDBRANCH   1  10
TORSDOF 2
ENDMDL
MODEL 4
REMARK VINA RESULT:    -4.421      1.423      2.130
REMARK INTER + INTRA:          -5.117
REMARK INTER:                  -4.965
REMARK INTRA:                  -0.152
REMARK UNBOUND:                -0.179
REMARK  Name = 1550473
REMARK  2 active torsions:
REMARK  status: ('A' for Active; 'I' for Inactive)
REMARK    1  A    between atoms: N_1  and  C_4
REMARK    2  A    between atoms: C_4  and  C_5
REMARK                            x       y       z     vdW  Elec       q    Type
REMARK                         _______ _______ _______ _____ _____    ______ ____
ROOT
ATOM      1  N   UNL     1      10.168   0.679 -10.542  0.00  0.00    -0.354 N 
ATOM      2  N   UNL     1      12.213   1.755 -10.703  0.00  0.00    -0.372 N 
ATOM      3  N   UNL     1      10.357   2.979 -10.135  0.00  0.00    -0.372 N 
ATOM      4  C   UNL     1      10.898   1.799 -10.458  0.00  0.00    +0.166 C 
ATOM      5  H   UNL     1      10.632  -0.178 -10.821  0.00  0.00    +0.163 HD
ATOM      6  H   UNL     1      12.790   2.583 -10.644  0.00  0.00    +0.159 HD
ATOM      7  H   UNL     1      12.682   0.888 -10.937  0.00  0.00    +0.159 HD
ATOM      8  H   UNL     1       9.370   3.081  -9.945  0.00  0.00    +0.159 HD
ATOM      9  H   UNL     1      10.916   3.822 -10.083  0.00  0.00    +0.159 HD
ENDROOT
BRANCH   1  10
ATOM     10  C   UNL     1       8.739   0.609 -10.243  0.00  0.00    +0.151 C 
BRANCH  10  11
ATOM     11  C   UNL     1       7.993   0.234 -11.494  0.00  0.00    -0.028 A 
ATOM     12  C   UNL     1       8.640  -0.459 -12.527  0.00  0.00    +0.005 A 
ATOM     13  C   UNL     1       6.638   0.563 -11.648  0.00  0.00    +0.005 A 
ATOM     14  C   UNL     1       7.940  -0.834 -13.677  0.00  0.00    +0.000 A 
ATOM     15  C   UNL     1       5.943   0.187 -12.797  0.00  0.00    +0.000 A 
ATOM     16  C   UNL     1       6.593  -0.514 -13.810  0.00  0.00    +0.000 A 
ENDBRANCH  10  11
ENDBRANCH   1  10
TORSDOF 2
ENDMDL
MODEL 5
REMARK VINA RESULT:    -4.332     25.486     26.407
REMARK INTER + INTRA:          -5.018
REMARK INTER:                  -4.916
REMARK INTRA:                  -0.101
REMARK UNBOUND:                -0.179
REMARK  Name = 1550473
REMARK  2 active torsions:
REMARK  status: ('A' for Active; 'I' for Inactive)
REMARK    1  A    between atoms: N_1  and  C_4
REMARK    2  A    between atoms: C_4  and  C_5
REMARK                            x       y       z     vdW  Elec       q    Type
REMARK                         _______ _______ _______ _____ _____    ______ ____
ROOT
ATOM      1  N   UNL     1     -10.754   5.059   6.237  0.00  0.00    -0.354 N 
ATOM      2  N   UNL     1     -10.281   2.872   6.835  0.00  0.00    -0.372 N 
ATOM      3  N   UNL     1     -11.712   4.095   8.146  0.00  0.00    -0.372 N 
ATOM      4  C   UNL     1     -10.921   4.024   7.071  0.00  0.00    +0.166 C 
ATOM      5  H   UNL     1     -10.117   4.950   5.456  0.00  0.00    +0.163 HD
ATOM      6  H   UNL     1     -10.389   2.073   7.445  0.00  0.00    +0.159 HD
ATOM      7  H   UNL     1      -9.680   2.752   6.029  0.00  0.00    +0.159 HD
ATOM      8  H   UNL     1     -12.218   4.938   8.384  0.00  0.00    +0.159 HD
ATOM      9  H   UNL     1     -11.825   3.310   8.775  0.00  0.00    +0.159 HD
ENDROOT
BRANCH   1  10
ATOM     10  C   UNL     1     -11.447   6.339   6.374  0.00  0.00    +0.151 C 
BRANCH  10  11
ATOM     11  C   UNL     1     -11.604   6.960   5.014  0.00  0.00    -0.028 A 
ATOM     12  C   UNL     1     -10.658   7.879   4.537  0.00  0.00    +0.005 A 
ATOM     13  C   UNL     1     -12.695   6.630   4.194  0.00  0.00    +0.005 A 
ATOM     14  C   UNL     1     -10.788   8.434   3.261  0.00  0.00    +0.000 A 
ATOM     15  C   UNL     1     -12.821   7.187   2.922  0.00  0.00    +0.000 A 
ATOM     16  C   UNL     1     -11.866   8.087   2.455  0.00  0.00    +0.000 A 
ENDBRANCH  10  11
ENDBRANCH   1  10
TORSDOF 2
ENDMDL
MODEL 6
REMARK VINA RESULT:    -4.288     12.547     14.021
REMARK INTER + INTRA:          -4.968
REMARK INTER:                  -4.790
REMARK INTRA:                  -0.179
REMARK UNBOUND:                -0.179
REMARK  Name = 1550473
REMARK  2 active torsions:
REMARK  status: ('A' for Active; 'I' for Inactive)
REMARK    1  A    between atoms: N_1  and  C_4
REMARK    2  A    between atoms: C_4  and  C_5
REMARK                            x       y       z     vdW  Elec       q    Type
REMARK                         _______ _______ _______ _____ _____    ______ ____
ROOT
ATOM      1  N   UNL     1       0.569  10.023  -7.593  0.00  0.00    -0.354 N 
ATOM      2  N   UNL     1       0.819   8.476  -9.298  0.00  0.00    -0.372 N 
ATOM      3  N   UNL     1      -1.254   9.381  -8.917  0.00  0.00    -0.372 N 
ATOM      4  C   UNL     1       0.040   9.304  -8.591  0.00  0.00    +0.166 C 
ATOM      5  H   UNL     1       1.551   9.896  -7.376  0.00  0.00    +0.163 HD
ATOM      6  H   UNL     1       0.449   7.923 -10.059  0.00  0.00    +0.159 HD
ATOM      7  H   UNL     1       1.810   8.385  -9.109  0.00  0.00    +0.159 HD
ATOM      8  H   UNL     1      -1.897   9.982  -8.419  0.00  0.00    +0.159 HD
ATOM      9  H   UNL     1      -1.646   8.827  -9.669  0.00  0.00    +0.159 HD
ENDROOT
BRANCH   1  10
ATOM     10  C   UNL     1      -0.181  10.993  -6.797  0.00  0.00    +0.151 C 
BRANCH  10  11
ATOM     11  C   UNL     1      -0.517  10.382  -5.465  0.00  0.00    -0.028 A 
ATOM     12  C   UNL     1      -1.854  10.200  -5.082  0.00  0.00    +0.005 A 
ATOM     13  C   UNL     1       0.497   9.977  -4.584  0.00  0.00    +0.005 A 
ATOM     14  C   UNL     1      -2.167   9.605  -3.857  0.00  0.00    +0.000 A 
ATOM     15  C   UNL     1       0.181   9.383  -3.362  0.00  0.00    +0.000 A 
ATOM     16  C   UNL     1      -1.151   9.195  -3.000  0.00  0.00    +0.000 A 
ENDBRANCH  10  11
ENDBRANCH   1  10
TORSDOF 2
ENDMDL
MODEL 7
REMARK VINA RESULT:    -4.243     19.695     20.906
REMARK INTER + INTRA:          -4.919
REMARK INTER:                  -4.789
REMARK INTRA:                  -0.129
REMARK UNBOUND:                -0.179
REMARK  Name = 1550473
REMARK  2 active torsions:
REMARK  status: ('A' for Active; 'I' for Inactive)
REMARK    1  A    between atoms: N_1  and  C_4
REMARK    2  A    between atoms: C_4  and  C_5
REMARK                            x       y       z     vdW  Elec       q    Type
REMARK                         _______ _______ _______ _____ _____    ______ ____
ROOT
ATOM      1  N   UNL     1      -0.953 -15.383  -5.927  0.00  0.00    -0.354 N 
ATOM      2  N   UNL     1       1.260 -15.814  -6.457  0.00  0.00    -0.372 N 
ATOM      3  N   UNL     1       0.613 -13.646  -6.073  0.00  0.00    -0.372 N 
ATOM      4  C   UNL     1       0.292 -14.942  -6.149  0.00  0.00    +0.166 C 
ATOM      5  H   UNL     1      -1.139 -16.374  -6.030  0.00  0.00    +0.163 HD
ATOM      6  H   UNL     1       2.210 -15.511  -6.626  0.00  0.00    +0.159 HD
ATOM      7  H   UNL     1       1.082 -16.809  -6.513  0.00  0.00    +0.159 HD
ATOM      8  H   UNL     1      -0.072 -12.936  -5.851  0.00  0.00    +0.159 HD
ATOM      9  H   UNL     1       1.556 -13.322  -6.250  0.00  0.00    +0.159 HD
ENDROOT
BRANCH   1  10
ATOM     10  C   UNL     1      -2.067 -14.522  -5.533  0.00  0.00    +0.151 C 
BRANCH  10  11
ATOM     11  C   UNL     1      -2.834 -15.188  -4.424  0.00  0.00    -0.028 A 
ATOM     12  C   UNL     1      -2.218 -15.454  -3.192  0.00  0.00    +0.005 A 
ATOM     13  C   UNL     1      -4.179 -15.550  -4.596  0.00  0.00    +0.005 A 
ATOM     14  C   UNL     1      -2.938 -16.045  -2.152  0.00  0.00    +0.000 A 
ATOM     15  C   UNL     1      -4.894 -16.141  -3.555  0.00  0.00    +0.000 A 
ATOM     16  C   UNL     1      -4.274 -16.386  -2.332  0.00  0.00    +0.000 A 
ENDBRANCH  10  11
ENDBRANCH   1  10
TORSDOF 2
ENDMDL
MODEL 8
REMARK VINA RESULT:    -4.179      1.914      2.503
REMARK INTER + INTRA:          -4.847
REMARK INTER:                  -4.680
REMARK INTRA:                  -0.167
REMARK UNBOUND:                -0.179
REMARK  Name = 1550473
REMARK  2 active torsions:
REMARK  status: ('A' for Active; 'I' for Inactive)
REMARK    1  A    between atoms: N_1  and  C_4
REMARK    2  A    between atoms: C_4  and  C_5
REMARK                            x       y       z     vdW  Elec       q    Type
REMARK                         _______ _______ _______ _____ _____    ______ ____
ROOT
ATOM      1  N   UNL     1       8.631   2.302 -10.295  0.00  0.00    -0.354 N 
ATOM      2  N   UNL     1       8.949   4.565 -10.673  0.00  0.00    -0.372 N 
ATOM      3  N   UNL     1      10.359   3.063 -11.684  0.00  0.00    -0.372 N 
ATOM      4  C   UNL     1       9.313   3.294 -10.883  0.00  0.00    +0.166 C 
ATOM      5  H   UNL     1       7.867   2.544  -9.676  0.00  0.00    +0.163 HD
ATOM      6  H   UNL     1       9.442   5.334 -11.106  0.00  0.00    +0.159 HD
ATOM      7  H   UNL     1       8.156   4.802 -10.090  0.00  0.00    +0.159 HD
ATOM      8  H   UNL     1      10.688   2.127 -11.878  0.00  0.00    +0.159 HD
ATOM      9  H   UNL     1      10.873   3.820 -12.117  0.00  0.00    +0.159 HD
ENDROOT
BRANCH   1  10
ATOM     10  C   UNL     1       8.913   0.882 -10.501  0.00  0.00    +0.151 C 
BRANCH  10  11
ATOM     11  C   UNL     1       8.055   0.368 -11.623  0.00  0.00    -0.028 A 
ATOM     12  C   UNL     1       6.684   0.664 -11.664  0.00  0.00    +0.005 A 
ATOM     13  C   UNL     1       8.607  -0.410 -12.652  0.00  0.00    +0.005 A 
ATOM     14  C   UNL     1       5.892   0.212 -12.723  0.00  0.00    +0.000 A 
ATOM     15  C   UNL     1       7.812  -0.861 -13.706  0.00  0.00    +0.000 A 
ATOM     16  C   UNL     1       6.456  -0.547 -13.743  0.00  0.00    +0.000 A 
ENDBRANCH  10  11
ENDBRANCH   1  10
TORSDOF 2
ENDMDL
MODEL 9
REMARK VINA RESULT:    -4.104     11.548     13.182
REMARK INTER + INTRA:          -4.763
REMARK INTER:                  -4.663
REMARK INTRA:                  -0.100
REMARK UNBOUND:                -0.179
REMARK  Name = 1550473
REMARK  2 active torsions:
REMARK  status: ('A' for Active; 'I' for Inactive)
REMARK    1  A    between atoms: N_1  and  C_4
REMARK    2  A    between atoms: C_4  and  C_5
REMARK                            x       y       z     vdW  Elec       q    Type
REMARK                         _______ _______ _______ _____ _____    ______ ____
ROOT
ATOM      1  N   UNL     1      -3.801  -3.366 -13.452  0.00  0.00    -0.354 N 
ATOM      2  N   UNL     1      -5.202  -2.871 -11.675  0.00  0.00    -0.372 N 
ATOM      3  N   UNL     1      -6.056  -2.838 -13.805  0.00  0.00    -0.372 N 
ATOM      4  C   UNL     1      -5.012  -3.027 -12.991  0.00  0.00    +0.166 C 
ATOM      5  H   UNL     1      -3.043  -3.465 -12.786  0.00  0.00    +0.163 HD
ATOM      6  H   UNL     1      -6.106  -2.620 -11.298  0.00  0.00    +0.159 HD
ATOM      7  H   UNL     1      -4.454  -3.016 -11.008  0.00  0.00    +0.159 HD
ATOM      8  H   UNL     1      -5.978  -2.934 -14.808  0.00  0.00    +0.159 HD
ATOM      9  H   UNL     1      -6.966  -2.574 -13.447  0.00  0.00    +0.159 HD
ENDROOT
BRANCH   1  10
ATOM     10  C   UNL     1      -3.502  -3.613 -14.861  0.00  0.00    +0.151 C 
BRANCH  10  11
ATOM     11  C   UNL     1      -2.012  -3.563 -15.064  0.00  0.00    -0.028 A 
ATOM     12  C   UNL     1      -1.331  -2.337 -15.038  0.00  0.00    +0.005 A 
ATOM     13  C   UNL     1      -1.276  -4.738 -15.275  0.00  0.00    +0.005 A 
ATOM     14  C   UNL     1       0.056  -2.293 -15.196  0.00  0.00    +0.000 A 
ATOM     15  C   UNL     1       0.109  -4.690 -15.433  0.00  0.00    +0.000 A 
ATOM     16  C   UNL     1       0.775  -3.467 -15.391  0.00  0.00    +0.000 A 
ENDBRANCH  10  11
ENDBRANCH   1  10
TORSDOF 2
ENDMDL
