MODEL 1
REMARK VINA RESULT:    -5.067      0.000      0.000
REMARK INTER + INTRA:          -5.787
REMARK INTER:                  -5.659
REMARK INTRA:                  -0.128
REMARK UNBOUND:                -0.128
REMARK  Name = 1550473
REMARK  2 active torsions:
REMARK  status: ('A' for Active; 'I' for Inactive)
REMARK    1  A    between atoms: N_1  and  C_4
REMARK    2  A    between atoms: C_4  and  C_5
REMARK                            x       y       z     vdW  Elec       q    Type
REMARK                         _______ _______ _______ _____ _____    ______ ____
ROOT
ATOM      1  N   UNL     1      -3.381 -13.209 -16.827  0.00  0.00    -0.354 N 
ATOM      2  N   UNL     1      -1.470 -13.164 -18.136  0.00  0.00    -0.372 N 
ATOM      3  N   UNL     1      -3.088 -14.726 -18.589  0.00  0.00    -0.372 N 
ATOM      4  C   UNL     1      -2.660 -13.702 -17.843  0.00  0.00    +0.166 C 
ATOM      5  H   UNL     1      -2.987 -12.451 -16.281  0.00  0.00    +0.163 HD
ATOM      6  H   UNL     1      -0.906 -13.512 -18.899  0.00  0.00    +0.159 HD
ATOM      7  H   UNL     1      -1.100 -12.376 -17.617  0.00  0.00    +0.159 HD
ATOM      8  H   UNL     1      -3.975 -15.181 -18.416  0.00  0.00    +0.159 HD
ATOM      9  H   UNL     1      -2.532 -15.097 -19.349  0.00  0.00    +0.159 HD
ENDROOT
BRANCH   1  10
ATOM     10  C   UNL     1      -4.712 -13.688 -16.460  0.00  0.00    +0.151 C 
BRANCH  10  11
ATOM     11  C   UNL     1      -5.444 -12.596 -15.731  0.00  0.00    -0.028 A 
ATOM     12  C   UNL     1      -5.023 -11.262 -15.838  0.00  0.00    +0.005 A 
ATOM     13  C   UNL     1      -6.564 -12.887 -14.937  0.00  0.00    +0.005 A 
ATOM     14  C   UNL     1      -5.720 -10.243 -15.185  0.00  0.00    +0.000 A 
ATOM     15  C   UNL     1      -7.257 -11.866 -14.286  0.00  0.00    +0.000 A 
ATOM     16  C   UNL     1      -6.837 -10.545 -14.412  0.00  0.00    +0.000 A 
ENDBRANCH  10  11
ENDBRANCH   1  10
TORSDOF 2
ENDMDL
MODEL 2
REMARK VINA RESULT:    -4.832      3.662      4.691
REMARK INTER + INTRA:          -5.525
REMARK INTER:                  -5.351
REMARK INTRA:                  -0.174
REMARK UNBOUND:                -0.128
REMARK  Name = 1550473
REMARK  2 active torsions:
REMARK  status: ('A' for Active; 'I' for Inactive)
REMARK    1  A    between atoms: N_1  and  C_4
REMARK    2  A    between atoms: C_4  and  C_5
REMARK                            x       y       z     vdW  Elec       q    Type
REMARK                         _______ _______ _______ _____ _____    ______ ____
ROOT
ATOM      1  N   UNL     1      -9.318 -13.855 -15.637  0.00  0.00    -0.354 N 
ATOM      2  N   UNL     1     -10.549 -14.647 -17.432  0.00  0.00    -0.372 N 
ATOM      3  N   UNL     1      -8.623 -15.744 -16.838  0.00  0.00    -0.372 N 
ATOM      4  C   UNL     1      -9.486 -14.745 -16.624  0.00  0.00    +0.166 C 
ATOM      5  H   UNL     1      -9.992 -13.104 -15.547  0.00  0.00    +0.163 HD
ATOM      6  H   UNL     1     -10.704 -15.306 -18.183  0.00  0.00    +0.159 HD
ATOM      7  H   UNL     1     -11.246 -13.922 -17.311  0.00  0.00    +0.159 HD
ATOM      8  H   UNL     1      -7.798 -15.870 -16.267  0.00  0.00    +0.159 HD
ATOM      9  H   UNL     1      -8.755 -16.407 -17.592  0.00  0.00    +0.159 HD
ENDROOT
BRANCH   1  10
ATOM     10  C   UNL     1      -8.224 -13.905 -14.669  0.00  0.00    +0.151 C 
BRANCH  10  11
ATOM     11  C   UNL     1      -7.267 -12.780 -14.951  0.00  0.00    -0.028 A 
ATOM     12  C   UNL     1      -6.269 -12.921 -15.926  0.00  0.00    +0.005 A 
ATOM     13  C   UNL     1      -7.357 -11.567 -14.250  0.00  0.00    +0.005 A 
ATOM     14  C   UNL     1      -5.399 -11.865 -16.209  0.00  0.00    +0.000 A 
ATOM     15  C   UNL     1      -6.486 -10.516 -14.535  0.00  0.00    +0.000 A 
ATOM     16  C   UNL     1      -5.509 -10.665 -15.516  0.00  0.00    +0.000 A 
ENDBRANCH  10  11
ENDBRANCH   1  10
TORSDOF 2
ENDMDL
MODEL 3
REMARK VINA RESULT:    -4.792      4.350      5.739
REMARK INTER + INTRA:          -5.480
REMARK INTER:                  -5.355
REMARK INTRA:                  -0.125
REMARK UNBOUND:                -0.128
REMARK  Name = 1550473
REMARK  2 active torsions:
REMARK  status: ('A' for Active; 'I' for Inactive)
REMARK    1  A    between atoms: N_1  and  C_4
REMARK    2  A    between atoms: C_4  and  C_5
REMARK                            x       y       z     vdW  Elec       q    Type
REMARK                         _______ _______ _______ _____ _____    ______ ____
ROOT
ATOM      1  N   UNL     1      -9.204 -13.345 -13.621  0.00  0.00    -0.354 N 
ATOM      2  N   UNL     1     -10.715 -13.714 -11.904  0.00  0.00    -0.372 N 
ATOM      3  N   UNL     1     -10.078 -15.482 -13.220  0.00  0.00    -0.372 N 
ATOM      4  C   UNL     1      -9.989 -14.181 -12.928  0.00  0.00    +0.166 C 
ATOM      5  H   UNL     1      -9.204 -12.363 -13.368  0.00  0.00    +0.163 HD
ATOM      6  H   UNL     1     -11.313 -14.321 -11.361  0.00  0.00    +0.159 HD
ATOM      7  H   UNL     1     -10.677 -12.741 -11.625  0.00  0.00    +0.159 HD
ATOM      8  H   UNL     1      -9.561 -15.896 -13.985  0.00  0.00    +0.159 HD
ATOM      9  H   UNL     1     -10.680 -16.104 -12.695  0.00  0.00    +0.159 HD
ENDROOT
BRANCH   1  10
ATOM     10  C   UNL     1      -8.334 -13.762 -14.719  0.00  0.00    +0.151 C 
BRANCH  10  11
ATOM     11  C   UNL     1      -7.320 -12.683 -14.979  0.00  0.00    -0.028 A 
ATOM     12  C   UNL     1      -6.308 -12.872 -15.932  0.00  0.00    +0.005 A 
ATOM     13  C   UNL     1      -7.369 -11.467 -14.280  0.00  0.00    +0.005 A 
ATOM     14  C   UNL     1      -5.383 -11.858 -16.195  0.00  0.00    +0.000 A 
ATOM     15  C   UNL     1      -6.443 -10.458 -14.546  0.00  0.00    +0.000 A 
ATOM     16  C   UNL     1      -5.453 -10.653 -15.505  0.00  0.00    +0.000 A 
ENDBRANCH  10  11
ENDBRANCH   1  10
TORSDOF 2
ENDMDL
MODEL 4
REMARK VINA RESULT:    -4.637     14.599     15.643
REMARK INTER + INTRA:          -5.307
REMARK INTER:                  -5.189
REMARK INTRA:                  -0.118
REMARK UNBOUND:                -0.128
REMARK  Name = 1550473
REMARK  2 active torsions:
REMARK  status: ('A' for Active; 'I' for Inactive)
REMARK    1  A    between atoms: N_1  and  C_4
REMARK    2  A    between atoms: C_4  and  C_5
REMARK                            x       y       z     vdW  Elec       q    Type
REMARK                         _______ _______ _______ _____ _____    ______ ____
ROOT
ATOM      1  N   UNL     1      -9.614 -15.409 -31.659  0.00  0.00    -0.354 N 
ATOM      2  N   UNL     1      -8.819 -17.173 -32.933  0.00  0.00    -0.372 N 
ATOM      3  N   UNL     1     -10.021 -17.630 -31.032  0.00  0.00    -0.372 N 
ATOM      4  C   UNL     1      -9.491 -16.727 -31.864  0.00  0.00    +0.166 C 
ATOM      5  H   UNL     1      -9.163 -14.777 -32.311  0.00  0.00    +0.163 HD
ATOM      6  H   UNL     1      -8.712 -18.162 -33.115  0.00  0.00    +0.159 HD
ATOM      7  H   UNL     1      -8.409 -16.538 -33.607  0.00  0.00    +0.159 HD
ATOM      8  H   UNL     1     -10.534 -17.359 -30.204  0.00  0.00    +0.159 HD
ATOM      9  H   UNL     1      -9.915 -18.624 -31.192  0.00  0.00    +0.159 HD
ENDROOT
BRANCH   1  10
ATOM     10  C   UNL     1     -10.371 -14.820 -30.556  0.00  0.00    +0.151 C 
BRANCH  10  11
ATOM     11  C   UNL     1      -9.883 -13.418 -30.318  0.00  0.00    -0.028 A 
ATOM     12  C   UNL     1      -9.954 -12.846 -29.040  0.00  0.00    +0.005 A 
ATOM     13  C   UNL     1      -9.343 -12.658 -31.367  0.00  0.00    +0.005 A 
ATOM     14  C   UNL     1      -9.473 -11.555 -28.812  0.00  0.00    +0.000 A 
ATOM     15  C   UNL     1      -8.864 -11.368 -31.136  0.00  0.00    +0.000 A 
ATOM     16  C   UNL     1      -8.927 -10.818 -29.858  0.00  0.00    +0.000 A 
ENDBRANCH  10  11
ENDBRANCH   1  10
TORSDOF 2
ENDMDL
MODEL 5
REMARK VINA RESULT:    -4.586     38.620     39.656
REMARK INTER + INTRA:          -5.249
REMARK INTER:                  -5.157
REMARK INTRA:                  -0.093
REMARK UNBOUND:                -0.128
REMARK  Name = 1550473
REMARK  2 active torsions:
REMARK  status: ('A' for Active; 'I' for Inactive)
REMARK    1  A    between atoms: N_1  and  C_4
REMARK    2  A    between atoms: C_4  and  C_5
REMARK                            x       y       z     vdW  Elec       q    Type
REMARK                         _______ _______ _______ _____ _____    ______ ____
ROOT
ATOM      1  N   UNL     1       0.997   6.967  18.320  0.00  0.00    -0.354 N 
ATOM      2  N   UNL     1      -0.248   8.722  19.174  0.00  0.00    -0.372 N 
ATOM      3  N   UNL     1      -1.294   7.153  17.867  0.00  0.00    -0.372 N 
ATOM      4  C   UNL     1      -0.176   7.601  18.446  0.00  0.00    +0.166 C 
ATOM      5  H   UNL     1       1.815   7.374  18.759  0.00  0.00    +0.163 HD
ATOM      6  H   UNL     1      -1.120   9.221  19.290  0.00  0.00    +0.159 HD
ATOM      7  H   UNL     1       0.561   9.102  19.650  0.00  0.00    +0.159 HD
ATOM      8  H   UNL     1      -1.305   6.316  17.300  0.00  0.00    +0.159 HD
ATOM      9  H   UNL     1      -2.174   7.645  17.961  0.00  0.00    +0.159 HD
ENDROOT
BRANCH   1  10
ATOM     10  C   UNL     1       1.173   5.710  17.595  0.00  0.00    +0.151 C 
BRANCH  10  11
ATOM     11  C   UNL     1       2.643   5.442  17.424  0.00  0.00    -0.028 A 
ATOM     12  C   UNL     1       3.272   5.678  16.193  0.00  0.00    +0.005 A 
ATOM     13  C   UNL     1       3.414   4.958  18.492  0.00  0.00    +0.005 A 
ATOM     14  C   UNL     1       4.643   5.459  16.043  0.00  0.00    +0.000 A 
ATOM     15  C   UNL     1       4.783   4.739  18.338  0.00  0.00    +0.000 A 
ATOM     16  C   UNL     1       5.398   4.991  17.114  0.00  0.00    +0.000 A 
ENDBRANCH  10  11
ENDBRANCH   1  10
TORSDOF 2
ENDMDL
MODEL 6
REMARK VINA RESULT:    -4.402      2.981      4.497
REMARK INTER + INTRA:          -5.044
REMARK INTER:                  -4.907
REMARK INTRA:                  -0.137
REMARK UNBOUND:                -0.128
REMARK  Name = 1550473
REMARK  2 active torsions:
REMARK  status: ('A' for Active; 'I' for Inactive)
REMARK    1  A    between atoms: N_1  and  C_4
REMARK    2  A    between atoms: C_4  and  C_5
REMARK                            x       y       z     vdW  Elec       q    Type
REMARK                         _______ _______ _______ _____ _____    ______ ____
ROOT
ATOM      1  N   UNL     1      -5.293 -12.336 -14.512  0.00  0.00    -0.354 N 
ATOM      2  N   UNL     1      -4.526 -11.067 -12.732  0.00  0.00    -0.372 N 
ATOM      3  N   UNL     1      -5.529 -10.004 -14.501  0.00  0.00    -0.372 N 
ATOM      4  C   UNL     1      -5.122 -11.142 -13.928  0.00  0.00    +0.166 C 
ATOM      5  H   UNL     1      -4.935 -13.158 -14.040  0.00  0.00    +0.163 HD
ATOM      6  H   UNL     1      -4.387 -10.181 -12.265  0.00  0.00    +0.159 HD
ATOM      7  H   UNL     1      -4.211 -11.895 -12.241  0.00  0.00    +0.159 HD
ATOM      8  H   UNL     1      -5.979  -9.992 -15.406  0.00  0.00    +0.159 HD
ATOM      9  H   UNL     1      -5.387  -9.106 -14.055  0.00  0.00    +0.159 HD
ENDROOT
BRANCH   1  10
ATOM     10  C   UNL     1      -5.977 -12.531 -15.789  0.00  0.00    +0.151 C 
BRANCH  10  11
ATOM     11  C   UNL     1      -7.197 -13.382 -15.567  0.00  0.00    -0.028 A 
ATOM     12  C   UNL     1      -8.161 -13.010 -14.619  0.00  0.00    +0.005 A 
ATOM     13  C   UNL     1      -7.397 -14.558 -16.306  0.00  0.00    +0.005 A 
ATOM     14  C   UNL     1      -9.309 -13.784 -14.434  0.00  0.00    +0.000 A 
ATOM     15  C   UNL     1      -8.545 -15.328 -16.118  0.00  0.00    +0.000 A 
ATOM     16  C   UNL     1      -9.502 -14.940 -15.184  0.00  0.00    +0.000 A 
ENDBRANCH  10  11
ENDBRANCH   1  10
TORSDOF 2
ENDMDL
MODEL 7
REMARK VINA RESULT:    -4.392     11.484     12.618
REMARK INTER + INTRA:          -5.033
REMARK INTER:                  -4.938
REMARK INTRA:                  -0.095
REMARK UNBOUND:                -0.128
REMARK  Name = 1550473
REMARK  2 active torsions:
REMARK  status: ('A' for Active; 'I' for Inactive)
REMARK    1  A    between atoms: N_1  and  C_4
REMARK    2  A    between atoms: C_4  and  C_5
REMARK                            x       y       z     vdW  Elec       q    Type
REMARK                         _______ _______ _______ _____ _____    ______ ____
ROOT
ATOM      1  N   UNL     1      -2.436  -8.548  -6.334  0.00  0.00    -0.354 N 
ATOM      2  N   UNL     1      -1.890  -8.729  -8.577  0.00  0.00    -0.372 N 
ATOM      3  N   UNL     1      -3.896  -9.576  -7.852  0.00  0.00    -0.372 N 
ATOM      4  C   UNL     1      -2.747  -8.951  -7.573  0.00  0.00    +0.166 C 
ATOM      5  H   UNL     1      -1.536  -8.107  -6.183  0.00  0.00    +0.163 HD
ATOM      6  H   UNL     1      -2.099  -9.019  -9.523  0.00  0.00    +0.159 HD
ATOM      7  H   UNL     1      -1.012  -8.248  -8.432  0.00  0.00    +0.159 HD
ATOM      8  H   UNL     1      -4.582  -9.778  -7.137  0.00  0.00    +0.159 HD
ATOM      9  H   UNL     1      -4.118  -9.884  -8.790  0.00  0.00    +0.159 HD
ENDROOT
BRANCH   1  10
ATOM     10  C   UNL     1      -3.322  -8.693  -5.180  0.00  0.00    +0.151 C 
BRANCH  10  11
ATOM     11  C   UNL     1      -2.949  -7.670  -4.143  0.00  0.00    -0.028 A 
ATOM     12  C   UNL     1      -3.773  -6.559  -3.911  0.00  0.00    +0.005 A 
ATOM     13  C   UNL     1      -1.777  -7.809  -3.385  0.00  0.00    +0.005 A 
ATOM     14  C   UNL     1      -3.443  -5.624  -2.927  0.00  0.00    +0.000 A 
ATOM     15  C   UNL     1      -1.450  -6.873  -2.403  0.00  0.00    +0.000 A 
ATOM     16  C   UNL     1      -2.284  -5.782  -2.173  0.00  0.00    +0.000 A 
ENDBRANCH  10  11
ENDBRANCH   1  10
TORSDOF 2
ENDMDL
MODEL 8
REMARK VINA RESULT:    -4.364     37.079     38.496
REMARK INTER + INTRA:          -5.002
REMARK INTER:                  -4.820
REMARK INTRA:                  -0.181
REMARK UNBOUND:                -0.128
REMARK  Name = 1550473
REMARK  2 active torsions:
REMARK  status: ('A' for Active; 'I' for Inactive)
REMARK    1  A    between atoms: N_1  and  C_4
REMARK    2  A    between atoms: C_4  and  C_5
REMARK                            x       y       z     vdW  Elec       q    Type
REMARK                         _______ _______ _______ _____ _____    ______ ____
ROOT
ATOM      1  N   UNL     1       0.078   5.635  18.082  0.00  0.00    -0.354 N 
ATOM      2  N   UNL     1      -1.572   7.235  17.794  0.00  0.00    -0.372 N 
ATOM      3  N   UNL     1       0.531   7.910  18.415  0.00  0.00    -0.372 N 
ATOM      4  C   UNL     1      -0.308   6.918  18.100  0.00  0.00    +0.166 C 
ATOM      5  H   UNL     1      -0.614   4.927  17.864  0.00  0.00    +0.163 HD
ATOM      6  H   UNL     1      -1.891   8.194  17.795  0.00  0.00    +0.159 HD
ATOM      7  H   UNL     1      -2.250   6.529  17.532  0.00  0.00    +0.159 HD
ATOM      8  H   UNL     1       1.496   7.737  18.661  0.00  0.00    +0.159 HD
ATOM      9  H   UNL     1       0.227   8.876  18.434  0.00  0.00    +0.159 HD
ENDROOT
BRANCH   1  10
ATOM     10  C   UNL     1       1.444   5.189  18.347  0.00  0.00    +0.151 C 
BRANCH  10  11
ATOM     11  C   UNL     1       2.119   4.870  17.041  0.00  0.00    -0.028 A 
ATOM     12  C   UNL     1       3.147   5.690  16.553  0.00  0.00    +0.005 A 
ATOM     13  C   UNL     1       1.738   3.748  16.290  0.00  0.00    +0.005 A 
ATOM     14  C   UNL     1       3.795   5.378  15.355  0.00  0.00    +0.000 A 
ATOM     15  C   UNL     1       2.386   3.440  15.094  0.00  0.00    +0.000 A 
ATOM     16  C   UNL     1       3.416   4.254  14.628  0.00  0.00    +0.000 A 
ENDBRANCH  10  11
ENDBRANCH   1  10
TORSDOF 2
ENDMDL
MODEL 9
REMARK VINA RESULT:    -4.134      8.342     10.081
REMARK INTER + INTRA:          -4.745
REMARK INTER:                  -4.621
REMARK INTRA:                  -0.124
REMARK UNBOUND:                -0.128
REMARK  Name = 1550473
REMARK  2 active torsions:
REMARK  status: ('A' for Active; 'I' for Inactive)
REMARK    1  A    between atoms: N_1  and  C_4
REMARK    2  A    between atoms: C_4  and  C_5
REMARK                            x       y       z     vdW  Elec       q    Type
REMARK                         _______ _______ _______ _____ _____    ______ ____
ROOT
ATOM      1  N   UNL     1      -4.426 -20.444 -24.472  0.00  0.00    -0.354 N 
ATOM      2  N   UNL     1      -4.948 -21.713 -26.337  0.00  0.00    -0.372 N 
ATOM      3  N   UNL     1      -2.795 -20.966 -26.071  0.00  0.00    -0.372 N 
ATOM      4  C   UNL     1      -4.050 -21.032 -25.615  0.00  0.00    +0.166 C 
ATOM      5  H   UNL     1      -5.400 -20.505 -24.196  0.00  0.00    +0.163 HD
ATOM      6  H   UNL     1      -4.693 -22.171 -27.202  0.00  0.00    +0.159 HD
ATOM      7  H   UNL     1      -5.910 -21.812 -26.036  0.00  0.00    +0.159 HD
ATOM      8  H   UNL     1      -2.071 -20.463 -25.576  0.00  0.00    +0.159 HD
ATOM      9  H   UNL     1      -2.523 -21.408 -26.941  0.00  0.00    +0.159 HD
ENDROOT
BRANCH   1  10
ATOM     10  C   UNL     1      -3.514 -19.724 -23.585  0.00  0.00    +0.151 C 
BRANCH  10  11
ATOM     11  C   UNL     1      -4.249 -18.573 -22.954  0.00  0.00    -0.028 A 
ATOM     12  C   UNL     1      -4.207 -18.376 -21.566  0.00  0.00    +0.005 A 
ATOM     13  C   UNL     1      -4.984 -17.672 -23.740  0.00  0.00    +0.005 A 
ATOM     14  C   UNL     1      -4.864 -17.289 -20.984  0.00  0.00    +0.000 A 
ATOM     15  C   UNL     1      -5.639 -16.589 -23.155  0.00  0.00    +0.000 A 
ATOM     16  C   UNL     1      -5.577 -16.397 -21.777  0.00  0.00    +0.000 A 
ENDBRANCH  10  11
ENDBRANCH   1  10
TORSDOF 2
ENDMDL
