MODEL 1
REMARK VINA RESULT:    -5.909      0.000      0.000
REMARK INTER + INTRA:          -6.769
REMARK INTER:                  -6.600
REMARK INTRA:                  -0.169
REMARK UNBOUND:                -0.169
REMARK  Name = 1550473
REMARK  2 active torsions:
REMARK  status: ('A' for Active; 'I' for Inactive)
REMARK    1  A    between atoms: N_1  and  C_4
REMARK    2  A    between atoms: C_4  and  C_5
REMARK                            x       y       z     vdW  Elec       q    Type
REMARK                         _______ _______ _______ _____ _____    ______ ____
ROOT
ATOM      1  N   UNL     1      -1.659 -12.612 -14.044  0.00  0.00    -0.354 N 
ATOM      2  N   UNL     1      -2.887 -12.216 -12.121  0.00  0.00    -0.372 N 
ATOM      3  N   UNL     1      -2.334 -10.443 -13.469  0.00  0.00    -0.372 N 
ATOM      4  C   UNL     1      -2.285 -11.757 -13.225  0.00  0.00    +0.166 C 
ATOM      5  H   UNL     1      -1.631 -13.592 -13.787  0.00  0.00    +0.163 HD
ATOM      6  H   UNL     1      -3.370 -11.595 -11.486  0.00  0.00    +0.159 HD
ATOM      7  H   UNL     1      -2.898 -13.202 -11.891  0.00  0.00    +0.159 HD
ATOM      8  H   UNL     1      -1.894 -10.033 -14.282  0.00  0.00    +0.159 HD
ATOM      9  H   UNL     1      -2.803  -9.804 -12.839  0.00  0.00    +0.159 HD
ENDROOT
BRANCH   1  10
ATOM     10  C   UNL     1      -1.018 -12.222 -15.299  0.00  0.00    +0.151 C 
BRANCH  10  11
ATOM     11  C   UNL     1       0.466 -12.120 -15.082  0.00  0.00    -0.028 A 
ATOM     12  C   UNL     1       1.149 -13.108 -14.357  0.00  0.00    +0.005 A 
ATOM     13  C   UNL     1       1.197 -11.041 -15.602  0.00  0.00    +0.005 A 
ATOM     14  C   UNL     1       2.533 -13.029 -14.181  0.00  0.00    +0.000 A 
ATOM     15  C   UNL     1       2.578 -10.965 -15.423  0.00  0.00    +0.000 A 
ATOM     16  C   UNL     1       3.246 -11.961 -14.714  0.00  0.00    +0.000 A 
ENDBRANCH  10  11
ENDBRANCH   1  10
TORSDOF 2
ENDMDL
MODEL 2
REMARK VINA RESULT:    -5.806     29.631     30.592
REMARK INTER + INTRA:          -6.654
REMARK INTER:                  -6.515
REMARK INTRA:                  -0.139
REMARK UNBOUND:                -0.169
REMARK  Name = 1550473
REMARK  2 active torsions:
REMARK  status: ('A' for Active; 'I' for Inactive)
REMARK    1  A    between atoms: N_1  and  C_4
REMARK    2  A    between atoms: C_4  and  C_5
REMARK                            x       y       z     vdW  Elec       q    Type
REMARK                         _______ _______ _______ _____ _____    ______ ____
ROOT
ATOM      1  N   UNL     1      -8.665  14.197  -0.273  0.00  0.00    -0.354 N 
ATOM      2  N   UNL     1      -7.939  16.291  -0.945  0.00  0.00    -0.372 N 
ATOM      3  N   UNL     1      -7.088  14.434  -1.990  0.00  0.00    -0.372 N 
ATOM      4  C   UNL     1      -7.901  14.958  -1.067  0.00  0.00    +0.166 C 
ATOM      5  H   UNL     1      -9.237  14.654   0.428  0.00  0.00    +0.163 HD
ATOM      6  H   UNL     1      -7.376  16.891  -1.532  0.00  0.00    +0.159 HD
ATOM      7  H   UNL     1      -8.546  16.747  -0.275  0.00  0.00    +0.159 HD
ATOM      8  H   UNL     1      -7.009  13.435  -2.128  0.00  0.00    +0.159 HD
ATOM      9  H   UNL     1      -6.508  15.018  -2.579  0.00  0.00    +0.159 HD
ENDROOT
BRANCH   1  10
ATOM     10  C   UNL     1      -8.738  12.739  -0.361  0.00  0.00    +0.151 C 
BRANCH  10  11
ATOM     11  C   UNL     1      -8.671  12.160   1.025  0.00  0.00    -0.028 A 
ATOM     12  C   UNL     1      -9.271  10.924   1.309  0.00  0.00    +0.005 A 
ATOM     13  C   UNL     1      -8.005  12.838   2.057  0.00  0.00    +0.005 A 
ATOM     14  C   UNL     1      -9.183  10.371   2.589  0.00  0.00    +0.000 A 
ATOM     15  C   UNL     1      -7.921  12.283   3.333  0.00  0.00    +0.000 A 
ATOM     16  C   UNL     1      -8.508  11.048   3.599  0.00  0.00    +0.000 A 
ENDBRANCH  10  11
ENDBRANCH   1  10
TORSDOF 2
ENDMDL
MODEL 3
REMARK VINA RESULT:    -5.791      1.649      2.513
REMARK INTER + INTRA:          -6.637
REMARK INTER:                  -6.499
REMARK INTRA:                  -0.138
REMARK UNBOUND:                -0.169
REMARK  Name = 1550473
REMARK  2 active torsions:
REMARK  status: ('A' for Active; 'I' for Inactive)
REMARK    1  A    between atoms: N_1  and  C_4
REMARK    2  A    between atoms: C_4  and  C_5
REMARK                            x       y       z     vdW  Elec       q    Type
REMARK                         _______ _______ _______ _____ _____    ______ ____
ROOT
ATOM      1  N   UNL     1      -1.197  -9.939 -13.049  0.00  0.00    -0.354 N 
ATOM      2  N   UNL     1      -2.174  -7.840 -12.974  0.00  0.00    -0.372 N 
ATOM      3  N   UNL     1      -2.933  -9.363 -14.513  0.00  0.00    -0.372 N 
ATOM      4  C   UNL     1      -2.096  -9.062 -13.515  0.00  0.00    +0.166 C 
ATOM      5  H   UNL     1      -0.570  -9.639 -12.311  0.00  0.00    +0.163 HD
ATOM      6  H   UNL     1      -2.845  -7.159 -13.302  0.00  0.00    +0.159 HD
ATOM      7  H   UNL     1      -1.577  -7.559 -12.205  0.00  0.00    +0.159 HD
ATOM      8  H   UNL     1      -2.922 -10.266 -14.968  0.00  0.00    +0.159 HD
ATOM      9  H   UNL     1      -3.604  -8.690 -14.863  0.00  0.00    +0.159 HD
ENDROOT
BRANCH   1  10
ATOM     10  C   UNL     1      -1.067 -11.312 -13.532  0.00  0.00    +0.151 C 
BRANCH  10  11
ATOM     11  C   UNL     1       0.371 -11.577 -13.881  0.00  0.00    -0.028 A 
ATOM     12  C   UNL     1       1.219 -10.523 -14.253  0.00  0.00    +0.005 A 
ATOM     13  C   UNL     1       0.895 -12.878 -13.836  0.00  0.00    +0.005 A 
ATOM     14  C   UNL     1       2.563 -10.764 -14.549  0.00  0.00    +0.000 A 
ATOM     15  C   UNL     1       2.237 -13.115 -14.132  0.00  0.00    +0.000 A 
ATOM     16  C   UNL     1       3.071 -12.057 -14.486  0.00  0.00    +0.000 A 
ENDBRANCH  10  11
ENDBRANCH   1  10
TORSDOF 2
ENDMDL
MODEL 4
REMARK VINA RESULT:    -5.562      7.476      7.940
REMARK INTER + INTRA:          -6.382
REMARK INTER:                  -6.260
REMARK INTRA:                  -0.122
REMARK UNBOUND:                -0.169
REMARK  Name = 1550473
REMARK  2 active torsions:
REMARK  status: ('A' for Active; 'I' for Inactive)
REMARK    1  A    between atoms: N_1  and  C_4
REMARK    2  A    between atoms: C_4  and  C_5
REMARK                            x       y       z     vdW  Elec       q    Type
REMARK                         _______ _______ _______ _____ _____    ______ ____
ROOT
ATOM      1  N   UNL     1       0.367  -9.301  -8.906  0.00  0.00    -0.354 N 
ATOM      2  N   UNL     1      -0.424 -10.835 -10.451  0.00  0.00    -0.372 N 
ATOM      3  N   UNL     1       0.020  -8.693 -11.142  0.00  0.00    -0.372 N 
ATOM      4  C   UNL     1      -0.007  -9.597 -10.158  0.00  0.00    +0.166 C 
ATOM      5  H   UNL     1       0.294 -10.023  -8.198  0.00  0.00    +0.163 HD
ATOM      6  H   UNL     1      -0.709 -11.089 -11.387  0.00  0.00    +0.159 HD
ATOM      7  H   UNL     1      -0.452 -11.567  -9.752  0.00  0.00    +0.159 HD
ATOM      8  H   UNL     1       0.319  -7.739 -10.985  0.00  0.00    +0.159 HD
ATOM      9  H   UNL     1      -0.272  -8.924 -12.083  0.00  0.00    +0.159 HD
ENDROOT
BRANCH   1  10
ATOM     10  C   UNL     1       0.887  -7.998  -8.494  0.00  0.00    +0.151 C 
BRANCH  10  11
ATOM     11  C   UNL     1       1.846  -8.191  -7.352  0.00  0.00    -0.028 A 
ATOM     12  C   UNL     1       2.835  -9.184  -7.413  0.00  0.00    +0.005 A 
ATOM     13  C   UNL     1       1.776  -7.379  -6.210  0.00  0.00    +0.005 A 
ATOM     14  C   UNL     1       3.745  -9.344  -6.365  0.00  0.00    +0.000 A 
ATOM     15  C   UNL     1       2.686  -7.542  -5.166  0.00  0.00    +0.000 A 
ATOM     16  C   UNL     1       3.672  -8.523  -5.245  0.00  0.00    +0.000 A 
ENDBRANCH  10  11
ENDBRANCH   1  10
TORSDOF 2
ENDMDL
MODEL 5
REMARK VINA RESULT:    -5.448      9.275     10.091
REMARK INTER + INTRA:          -6.254
REMARK INTER:                  -6.070
REMARK INTRA:                  -0.184
REMARK UNBOUND:                -0.169
REMARK  Name = 1550473
REMARK  2 active torsions:
REMARK  status: ('A' for Active; 'I' for Inactive)
REMARK    1  A    between atoms: N_1  and  C_4
REMARK    2  A    between atoms: C_4  and  C_5
REMARK                            x       y       z     vdW  Elec       q    Type
REMARK                         _______ _______ _______ _____ _____    ______ ____
ROOT
ATOM      1  N   UNL     1       3.781  -7.235  -5.276  0.00  0.00    -0.354 N 
ATOM      2  N   UNL     1       6.085  -7.167  -5.500  0.00  0.00    -0.372 N 
ATOM      3  N   UNL     1       5.012  -9.187  -5.681  0.00  0.00    -0.372 N 
ATOM      4  C   UNL     1       4.944  -7.867  -5.484  0.00  0.00    +0.166 C 
ATOM      5  H   UNL     1       3.800  -6.236  -5.103  0.00  0.00    +0.163 HD
ATOM      6  H   UNL     1       6.977  -7.616  -5.658  0.00  0.00    +0.159 HD
ATOM      7  H   UNL     1       6.096  -6.163  -5.372  0.00  0.00    +0.159 HD
ATOM      8  H   UNL     1       4.187  -9.773  -5.675  0.00  0.00    +0.159 HD
ATOM      9  H   UNL     1       5.897  -9.656  -5.830  0.00  0.00    +0.159 HD
ENDROOT
BRANCH   1  10
ATOM     10  C   UNL     1       2.477  -7.896  -5.293  0.00  0.00    +0.151 C 
BRANCH  10  11
ATOM     11  C   UNL     1       1.829  -7.670  -6.631  0.00  0.00    -0.028 A 
ATOM     12  C   UNL     1       1.440  -6.382  -7.025  0.00  0.00    +0.005 A 
ATOM     13  C   UNL     1       1.608  -8.740  -7.512  0.00  0.00    +0.005 A 
ATOM     14  C   UNL     1       0.866  -6.167  -8.281  0.00  0.00    +0.000 A 
ATOM     15  C   UNL     1       1.034  -8.521  -8.765  0.00  0.00    +0.000 A 
ATOM     16  C   UNL     1       0.665  -7.234  -9.149  0.00  0.00    +0.000 A 
ENDBRANCH  10  11
ENDBRANCH   1  10
TORSDOF 2
ENDMDL
MODEL 6
REMARK VINA RESULT:    -5.255      1.328      2.162
REMARK INTER + INTRA:          -6.039
REMARK INTER:                  -5.866
REMARK INTRA:                  -0.173
REMARK UNBOUND:                -0.169
REMARK  Name = 1550473
REMARK  2 active torsions:
REMARK  status: ('A' for Active; 'I' for Inactive)
REMARK    1  A    between atoms: N_1  and  C_4
REMARK    2  A    between atoms: C_4  and  C_5
REMARK                            x       y       z     vdW  Elec       q    Type
REMARK                         _______ _______ _______ _____ _____    ______ ____
ROOT
ATOM      1  N   UNL     1      -1.778 -12.557 -14.397  0.00  0.00    -0.354 N 
ATOM      2  N   UNL     1      -3.333 -12.226 -16.081  0.00  0.00    -0.372 N 
ATOM      3  N   UNL     1      -2.843 -10.487 -14.666  0.00  0.00    -0.372 N 
ATOM      4  C   UNL     1      -2.642 -11.757 -15.036  0.00  0.00    +0.166 C 
ATOM      5  H   UNL     1      -1.693 -13.518 -14.707  0.00  0.00    +0.163 HD
ATOM      6  H   UNL     1      -3.990 -11.645 -16.585  0.00  0.00    +0.159 HD
ATOM      7  H   UNL     1      -3.213 -13.174 -16.417  0.00  0.00    +0.159 HD
ATOM      8  H   UNL     1      -2.357 -10.074 -13.882  0.00  0.00    +0.159 HD
ATOM      9  H   UNL     1      -3.505  -9.893 -15.151  0.00  0.00    +0.159 HD
ENDROOT
BRANCH   1  10
ATOM     10  C   UNL     1      -0.937 -12.127 -13.281  0.00  0.00    +0.151 C 
BRANCH  10  11
ATOM     11  C   UNL     1       0.487 -12.020 -13.753  0.00  0.00    -0.028 A 
ATOM     12  C   UNL     1       1.041 -10.771 -14.067  0.00  0.00    +0.005 A 
ATOM     13  C   UNL     1       1.290 -13.164 -13.883  0.00  0.00    +0.005 A 
ATOM     14  C   UNL     1       2.373 -10.668 -14.477  0.00  0.00    +0.000 A 
ATOM     15  C   UNL     1       2.619 -13.057 -14.293  0.00  0.00    +0.000 A 
ATOM     16  C   UNL     1       3.160 -11.809 -14.587  0.00  0.00    +0.000 A 
ENDBRANCH  10  11
ENDBRANCH   1  10
TORSDOF 2
ENDMDL
MODEL 7
REMARK VINA RESULT:    -5.239      3.269      3.968
REMARK INTER + INTRA:          -6.021
REMARK INTER:                  -5.858
REMARK INTRA:                  -0.163
REMARK UNBOUND:                -0.169
REMARK  Name = 1550473
REMARK  2 active torsions:
REMARK  status: ('A' for Active; 'I' for Inactive)
REMARK    1  A    between atoms: N_1  and  C_4
REMARK    2  A    between atoms: C_4  and  C_5
REMARK                            x       y       z     vdW  Elec       q    Type
REMARK                         _______ _______ _______ _____ _____    ______ ____
ROOT
ATOM      1  N   UNL     1      -0.162  -8.965 -11.160  0.00  0.00    -0.354 N 
ATOM      2  N   UNL     1       0.964  -8.136  -9.314  0.00  0.00    -0.372 N 
ATOM      3  N   UNL     1      -0.113 -10.155  -9.141  0.00  0.00    -0.372 N 
ATOM      4  C   UNL     1       0.221  -9.093  -9.883  0.00  0.00    +0.166 C 
ATOM      5  H   UNL     1       0.099  -8.122 -11.659  0.00  0.00    +0.163 HD
ATOM      6  H   UNL     1       1.271  -8.206  -8.353  0.00  0.00    +0.159 HD
ATOM      7  H   UNL     1       1.262  -7.316  -9.828  0.00  0.00    +0.159 HD
ATOM      8  H   UNL     1      -0.677 -10.909  -9.510  0.00  0.00    +0.159 HD
ATOM      9  H   UNL     1       0.175 -10.238  -8.174  0.00  0.00    +0.159 HD
ENDROOT
BRANCH   1  10
ATOM     10  C   UNL     1      -0.927  -9.975 -11.889  0.00  0.00    +0.151 C 
BRANCH  10  11
ATOM     11  C   UNL     1      -0.015 -10.679 -12.856  0.00  0.00    -0.028 A 
ATOM     12  C   UNL     1       0.862  -9.946 -13.670  0.00  0.00    +0.005 A 
ATOM     13  C   UNL     1      -0.018 -12.078 -12.958  0.00  0.00    +0.005 A 
ATOM     14  C   UNL     1       1.730 -10.601 -14.546  0.00  0.00    +0.000 A 
ATOM     15  C   UNL     1       0.850 -12.728 -13.836  0.00  0.00    +0.000 A 
ATOM     16  C   UNL     1       1.726 -11.990 -14.627  0.00  0.00    +0.000 A 
ENDBRANCH  10  11
ENDBRANCH   1  10
TORSDOF 2
ENDMDL
MODEL 8
REMARK VINA RESULT:    -5.205      9.069      9.689
REMARK INTER + INTRA:          -5.982
REMARK INTER:                  -5.830
REMARK INTRA:                  -0.153
REMARK UNBOUND:                -0.169
REMARK  Name = 1550473
REMARK  2 active torsions:
REMARK  status: ('A' for Active; 'I' for Inactive)
REMARK    1  A    between atoms: N_1  and  C_4
REMARK    2  A    between atoms: C_4  and  C_5
REMARK                            x       y       z     vdW  Elec       q    Type
REMARK                         _______ _______ _______ _____ _____    ______ ____
ROOT
ATOM      1  N   UNL     1       1.514  -5.976  -6.850  0.00  0.00    -0.354 N 
ATOM      2  N   UNL     1       1.086  -3.900  -7.783  0.00  0.00    -0.372 N 
ATOM      3  N   UNL     1       0.934  -5.765  -9.110  0.00  0.00    -0.372 N 
ATOM      4  C   UNL     1       1.181  -5.229  -7.911  0.00  0.00    +0.166 C 
ATOM      5  H   UNL     1       1.719  -5.506  -5.975  0.00  0.00    +0.163 HD
ATOM      6  H   UNL     1       0.833  -3.310  -8.565  0.00  0.00    +0.159 HD
ATOM      7  H   UNL     1       1.246  -3.437  -6.896  0.00  0.00    +0.159 HD
ATOM      8  H   UNL     1       0.994  -6.761  -9.274  0.00  0.00    +0.159 HD
ATOM      9  H   UNL     1       0.691  -5.191  -9.908  0.00  0.00    +0.159 HD
ENDROOT
BRANCH   1  10
ATOM     10  C   UNL     1       1.592  -7.435  -6.869  0.00  0.00    +0.151 C 
BRANCH  10  11
ATOM     11  C   UNL     1       3.001  -7.856  -6.554  0.00  0.00    -0.028 A 
ATOM     12  C   UNL     1       3.905  -8.147  -7.587  0.00  0.00    +0.005 A 
ATOM     13  C   UNL     1       3.440  -7.961  -5.225  0.00  0.00    +0.005 A 
ATOM     14  C   UNL     1       5.222  -8.509  -7.295  0.00  0.00    +0.000 A 
ATOM     15  C   UNL     1       4.756  -8.324  -4.938  0.00  0.00    +0.000 A 
ATOM     16  C   UNL     1       5.647  -8.595  -5.973  0.00  0.00    +0.000 A 
ENDBRANCH  10  11
ENDBRANCH   1  10
TORSDOF 2
ENDMDL
MODEL 9
REMARK VINA RESULT:    -5.140     27.079     28.823
REMARK INTER + INTRA:          -5.910
REMARK INTER:                  -5.735
REMARK INTRA:                  -0.175
REMARK UNBOUND:                -0.169
REMARK  Name = 1550473
REMARK  2 active torsions:
REMARK  status: ('A' for Active; 'I' for Inactive)
REMARK    1  A    between atoms: N_1  and  C_4
REMARK    2  A    between atoms: C_4  and  C_5
REMARK                            x       y       z     vdW  Elec       q    Type
REMARK                         _______ _______ _______ _____ _____    ______ ____
ROOT
ATOM      1  N   UNL     1      -9.371   9.773  -1.113  0.00  0.00    -0.354 N 
ATOM      2  N   UNL     1      -8.072   7.995  -1.830  0.00  0.00    -0.372 N 
ATOM      3  N   UNL     1      -8.884   7.981   0.316  0.00  0.00    -0.372 N 
ATOM      4  C   UNL     1      -8.784   8.594  -0.868  0.00  0.00    +0.166 C 
ATOM      5  H   UNL     1      -9.232  10.201  -2.021  0.00  0.00    +0.163 HD
ATOM      6  H   UNL     1      -7.620   7.104  -1.676  0.00  0.00    +0.159 HD
ATOM      7  H   UNL     1      -7.973   8.403  -2.752  0.00  0.00    +0.159 HD
ATOM      8  H   UNL     1      -9.402   8.383   1.086  0.00  0.00    +0.159 HD
ATOM      9  H   UNL     1      -8.430   7.094   0.493  0.00  0.00    +0.159 HD
ENDROOT
BRANCH   1  10
ATOM     10  C   UNL     1     -10.213  10.483  -0.151  0.00  0.00    +0.151 C 
BRANCH  10  11
ATOM     11  C   UNL     1      -9.386  11.522   0.554  0.00  0.00    -0.028 A 
ATOM     12  C   UNL     1      -9.024  12.708  -0.100  0.00  0.00    +0.005 A 
ATOM     13  C   UNL     1      -8.964  11.328   1.879  0.00  0.00    +0.005 A 
ATOM     14  C   UNL     1      -8.281  13.687   0.564  0.00  0.00    +0.000 A 
ATOM     15  C   UNL     1      -8.222  12.307   2.538  0.00  0.00    +0.000 A 
ATOM     16  C   UNL     1      -7.882  13.487   1.882  0.00  0.00    +0.000 A 
ENDBRANCH  10  11
ENDBRANCH   1  10
TORSDOF 2
ENDMDL
