MODEL 1
REMARK VINA RESULT:    -5.462      0.000      0.000
REMARK INTER + INTRA:          -6.240
REMARK INTER:                  -6.101
REMARK INTRA:                  -0.139
REMARK UNBOUND:                -0.139
REMARK  Name = 1550473
REMARK  2 active torsions:
REMARK  status: ('A' for Active; 'I' for Inactive)
REMARK    1  A    between atoms: N_1  and  C_4
REMARK    2  A    between atoms: C_4  and  C_5
REMARK                            x       y       z     vdW  Elec       q    Type
REMARK                         _______ _______ _______ _____ _____    ______ ____
ROOT
ATOM      1  N   UNL     1      -5.648  -0.296  -4.323  0.00  0.00    -0.354 N 
ATOM      2  N   UNL     1      -6.495  -2.430  -4.628  0.00  0.00    -0.372 N 
ATOM      3  N   UNL     1      -7.269  -0.729  -5.959  0.00  0.00    -0.372 N 
ATOM      4  C   UNL     1      -6.467  -1.136  -4.970  0.00  0.00    +0.166 C 
ATOM      5  H   UNL     1      -5.087  -0.662  -3.562  0.00  0.00    +0.163 HD
ATOM      6  H   UNL     1      -7.101  -3.088  -5.100  0.00  0.00    +0.159 HD
ATOM      7  H   UNL     1      -5.900  -2.801  -3.897  0.00  0.00    +0.159 HD
ATOM      8  H   UNL     1      -7.299   0.236  -6.261  0.00  0.00    +0.159 HD
ATOM      9  H   UNL     1      -7.890  -1.370  -6.436  0.00  0.00    +0.159 HD
ENDROOT
BRANCH   1  10
ATOM     10  C   UNL     1      -5.501   1.120  -4.654  0.00  0.00    +0.151 C 
BRANCH  10  11
ATOM     11  C   UNL     1      -4.041   1.479  -4.643  0.00  0.00    -0.028 A 
ATOM     12  C   UNL     1      -3.061   0.475  -4.631  0.00  0.00    +0.005 A 
ATOM     13  C   UNL     1      -3.630   2.821  -4.650  0.00  0.00    +0.005 A 
ATOM     14  C   UNL     1      -1.705   0.807  -4.651  0.00  0.00    +0.000 A 
ATOM     15  C   UNL     1      -2.275   3.148  -4.669  0.00  0.00    +0.000 A 
ATOM     16  C   UNL     1      -1.312   2.142  -4.672  0.00  0.00    +0.000 A 
ENDBRANCH  10  11
ENDBRANCH   1  10
TORSDOF 2
ENDMDL
MODEL 2
REMARK VINA RESULT:    -5.405     10.247     10.707
REMARK INTER + INTRA:          -6.176
REMARK INTER:                  -6.077
REMARK INTRA:                  -0.100
REMARK UNBOUND:                -0.139
REMARK  Name = 1550473
REMARK  2 active torsions:
REMARK  status: ('A' for Active; 'I' for Inactive)
REMARK    1  A    between atoms: N_1  and  C_4
REMARK    2  A    between atoms: C_4  and  C_5
REMARK                            x       y       z     vdW  Elec       q    Type
REMARK                         _______ _______ _______ _____ _____    ______ ____
ROOT
ATOM      1  N   UNL     1      -6.187   2.680 -14.862  0.00  0.00    -0.354 N 
ATOM      2  N   UNL     1      -7.711   4.154 -15.794  0.00  0.00    -0.372 N 
ATOM      3  N   UNL     1      -6.490   4.827 -13.972  0.00  0.00    -0.372 N 
ATOM      4  C   UNL     1      -6.785   3.879 -14.868  0.00  0.00    +0.166 C 
ATOM      5  H   UNL     1      -6.478   1.994 -15.549  0.00  0.00    +0.163 HD
ATOM      6  H   UNL     1      -8.177   5.051 -15.826  0.00  0.00    +0.159 HD
ATOM      7  H   UNL     1      -7.967   3.482 -16.508  0.00  0.00    +0.159 HD
ATOM      8  H   UNL     1      -5.804   4.681 -13.244  0.00  0.00    +0.159 HD
ATOM      9  H   UNL     1      -6.953   5.727 -13.981  0.00  0.00    +0.159 HD
ENDROOT
BRANCH   1  10
ATOM     10  C   UNL     1      -5.128   2.300 -13.929  0.00  0.00    +0.151 C 
BRANCH  10  11
ATOM     11  C   UNL     1      -3.806   2.772 -14.469  0.00  0.00    -0.028 A 
ATOM     12  C   UNL     1      -2.844   3.327 -13.612  0.00  0.00    +0.005 A 
ATOM     13  C   UNL     1      -3.506   2.660 -15.835  0.00  0.00    +0.005 A 
ATOM     14  C   UNL     1      -1.604   3.738 -14.108  0.00  0.00    +0.000 A 
ATOM     15  C   UNL     1      -2.267   3.072 -16.327  0.00  0.00    +0.000 A 
ATOM     16  C   UNL     1      -1.316   3.609 -15.463  0.00  0.00    +0.000 A 
ENDBRANCH  10  11
ENDBRANCH   1  10
TORSDOF 2
ENDMDL
MODEL 3
REMARK VINA RESULT:    -5.403      0.934      1.986
REMARK INTER + INTRA:          -6.174
REMARK INTER:                  -6.074
REMARK INTRA:                  -0.100
REMARK UNBOUND:                -0.139
REMARK  Name = 1550473
REMARK  2 active torsions:
REMARK  status: ('A' for Active; 'I' for Inactive)
REMARK    1  A    between atoms: N_1  and  C_4
REMARK    2  A    between atoms: C_4  and  C_5
REMARK                            x       y       z     vdW  Elec       q    Type
REMARK                         _______ _______ _______ _____ _____    ______ ____
ROOT
ATOM      1  N   UNL     1      -5.149   0.023  -5.437  0.00  0.00    -0.354 N 
ATOM      2  N   UNL     1      -6.937  -1.046  -6.449  0.00  0.00    -0.372 N 
ATOM      3  N   UNL     1      -6.360  -1.634  -4.307  0.00  0.00    -0.372 N 
ATOM      4  C   UNL     1      -6.137  -0.880  -5.388  0.00  0.00    +0.166 C 
ATOM      5  H   UNL     1      -5.013   0.542  -6.297  0.00  0.00    +0.163 HD
ATOM      6  H   UNL     1      -7.693  -1.718  -6.440  0.00  0.00    +0.159 HD
ATOM      7  H   UNL     1      -6.827  -0.494  -7.290  0.00  0.00    +0.159 HD
ATOM      8  H   UNL     1      -5.789  -1.562  -3.476  0.00  0.00    +0.159 HD
ATOM      9  H   UNL     1      -7.105  -2.320  -4.283  0.00  0.00    +0.159 HD
ENDROOT
BRANCH   1  10
ATOM     10  C   UNL     1      -4.256   0.320  -4.318  0.00  0.00    +0.151 C 
BRANCH  10  11
ATOM     11  C   UNL     1      -3.493   1.580  -4.618  0.00  0.00    -0.028 A 
ATOM     12  C   UNL     1      -4.154   2.816  -4.675  0.00  0.00    +0.005 A 
ATOM     13  C   UNL     1      -2.108   1.546  -4.842  0.00  0.00    +0.005 A 
ATOM     14  C   UNL     1      -3.440   3.991  -4.925  0.00  0.00    +0.000 A 
ATOM     15  C   UNL     1      -1.400   2.721  -5.092  0.00  0.00    +0.000 A 
ATOM     16  C   UNL     1      -2.066   3.943  -5.131  0.00  0.00    +0.000 A 
ENDBRANCH  10  11
ENDBRANCH   1  10
TORSDOF 2
ENDMDL
MODEL 4
REMARK VINA RESULT:    -5.246     11.478     11.911
REMARK INTER + INTRA:          -5.999
REMARK INTER:                  -5.880
REMARK INTRA:                  -0.118
REMARK UNBOUND:                -0.139
REMARK  Name = 1550473
REMARK  2 active torsions:
REMARK  status: ('A' for Active; 'I' for Inactive)
REMARK    1  A    between atoms: N_1  and  C_4
REMARK    2  A    between atoms: C_4  and  C_5
REMARK                            x       y       z     vdW  Elec       q    Type
REMARK                         _______ _______ _______ _____ _____    ______ ____
ROOT
ATOM      1  N   UNL     1      -4.258   1.404 -17.563  0.00  0.00    -0.354 N 
ATOM      2  N   UNL     1      -5.054   0.056 -19.270  0.00  0.00    -0.372 N 
ATOM      3  N   UNL     1      -3.540   1.705 -19.774  0.00  0.00    -0.372 N 
ATOM      4  C   UNL     1      -4.277   1.066 -18.859  0.00  0.00    +0.166 C 
ATOM      5  H   UNL     1      -4.863   0.900 -16.925  0.00  0.00    +0.163 HD
ATOM      6  H   UNL     1      -5.086  -0.225 -20.241  0.00  0.00    +0.159 HD
ATOM      7  H   UNL     1      -5.622  -0.477 -18.622  0.00  0.00    +0.159 HD
ATOM      8  H   UNL     1      -2.938   2.480 -19.530  0.00  0.00    +0.159 HD
ATOM      9  H   UNL     1      -3.569   1.447 -20.752  0.00  0.00    +0.159 HD
ENDROOT
BRANCH   1  10
ATOM     10  C   UNL     1      -3.407   2.454 -17.005  0.00  0.00    +0.151 C 
BRANCH  10  11
ATOM     11  C   UNL     1      -3.702   2.596 -15.537  0.00  0.00    -0.028 A 
ATOM     12  C   UNL     1      -2.741   3.131 -14.667  0.00  0.00    +0.005 A 
ATOM     13  C   UNL     1      -4.942   2.203 -15.012  0.00  0.00    +0.005 A 
ATOM     14  C   UNL     1      -3.025   3.292 -13.309  0.00  0.00    +0.000 A 
ATOM     15  C   UNL     1      -5.221   2.363 -13.655  0.00  0.00    +0.000 A 
ATOM     16  C   UNL     1      -4.264   2.910 -12.804  0.00  0.00    +0.000 A 
ENDBRANCH  10  11
ENDBRANCH   1  10
TORSDOF 2
ENDMDL
MODEL 5
REMARK VINA RESULT:    -5.136      9.051      9.759
REMARK INTER + INTRA:          -5.876
REMARK INTER:                  -5.735
REMARK INTRA:                  -0.141
REMARK UNBOUND:                -0.139
REMARK  Name = 1550473
REMARK  2 active torsions:
REMARK  status: ('A' for Active; 'I' for Inactive)
REMARK    1  A    between atoms: N_1  and  C_4
REMARK    2  A    between atoms: C_4  and  C_5
REMARK                            x       y       z     vdW  Elec       q    Type
REMARK                         _______ _______ _______ _____ _____    ______ ____
ROOT
ATOM      1  N   UNL     1      -1.868   3.983 -11.548  0.00  0.00    -0.354 N 
ATOM      2  N   UNL     1      -1.148   3.762  -9.358  0.00  0.00    -0.372 N 
ATOM      3  N   UNL     1       0.272   3.163 -11.059  0.00  0.00    -0.372 N 
ATOM      4  C   UNL     1      -0.917   3.636 -10.671  0.00  0.00    +0.166 C 
ATOM      5  H   UNL     1      -2.759   4.306 -11.189  0.00  0.00    +0.163 HD
ATOM      6  H   UNL     1      -0.448   3.511  -8.673  0.00  0.00    +0.159 HD
ATOM      7  H   UNL     1      -2.022   4.128  -9.004  0.00  0.00    +0.159 HD
ATOM      8  H   UNL     1       0.506   3.039 -12.035  0.00  0.00    +0.159 HD
ATOM      9  H   UNL     1       0.981   2.896 -10.388  0.00  0.00    +0.159 HD
ENDROOT
BRANCH   1  10
ATOM     10  C   UNL     1      -1.699   3.936 -12.999  0.00  0.00    +0.151 C 
BRANCH  10  11
ATOM     11  C   UNL     1      -2.914   3.300 -13.616  0.00  0.00    -0.028 A 
ATOM     12  C   UNL     1      -4.021   2.963 -12.822  0.00  0.00    +0.005 A 
ATOM     13  C   UNL     1      -2.968   3.037 -14.993  0.00  0.00    +0.005 A 
ATOM     14  C   UNL     1      -5.162   2.400 -13.399  0.00  0.00    +0.000 A 
ATOM     15  C   UNL     1      -4.109   2.474 -15.565  0.00  0.00    +0.000 A 
ATOM     16  C   UNL     1      -5.206   2.158 -14.768  0.00  0.00    +0.000 A 
ENDBRANCH  10  11
ENDBRANCH   1  10
TORSDOF 2
ENDMDL
MODEL 6
REMARK VINA RESULT:    -5.109      9.069     10.645
REMARK INTER + INTRA:          -5.846
REMARK INTER:                  -5.677
REMARK INTRA:                  -0.169
REMARK UNBOUND:                -0.139
REMARK  Name = 1550473
REMARK  2 active torsions:
REMARK  status: ('A' for Active; 'I' for Inactive)
REMARK    1  A    between atoms: N_1  and  C_4
REMARK    2  A    between atoms: C_4  and  C_5
REMARK                            x       y       z     vdW  Elec       q    Type
REMARK                         _______ _______ _______ _____ _____    ______ ____
ROOT
ATOM      1  N   UNL     1       3.313   4.863   2.699  0.00  0.00    -0.354 N 
ATOM      2  N   UNL     1       2.655   3.814   4.656  0.00  0.00    -0.372 N 
ATOM      3  N   UNL     1       2.924   2.552   2.758  0.00  0.00    -0.372 N 
ATOM      4  C   UNL     1       2.968   3.748   3.357  0.00  0.00    +0.166 C 
ATOM      5  H   UNL     1       3.298   5.742   3.202  0.00  0.00    +0.163 HD
ATOM      6  H   UNL     1       2.394   2.989   5.180  0.00  0.00    +0.159 HD
ATOM      7  H   UNL     1       2.685   4.687   5.168  0.00  0.00    +0.159 HD
ATOM      8  H   UNL     1       3.144   2.436   1.778  0.00  0.00    +0.159 HD
ATOM      9  H   UNL     1       2.655   1.717   3.262  0.00  0.00    +0.159 HD
ENDROOT
BRANCH   1  10
ATOM     10  C   UNL     1       3.724   4.891   1.296  0.00  0.00    +0.151 C 
BRANCH  10  11
ATOM     11  C   UNL     1       2.628   5.514   0.476  0.00  0.00    -0.028 A 
ATOM     12  C   UNL     1       2.315   6.873   0.621  0.00  0.00    +0.005 A 
ATOM     13  C   UNL     1       1.903   4.751  -0.453  0.00  0.00    +0.005 A 
ATOM     14  C   UNL     1       1.318   7.459  -0.162  0.00  0.00    +0.000 A 
ATOM     15  C   UNL     1       0.907   5.340  -1.232  0.00  0.00    +0.000 A 
ATOM     16  C   UNL     1       0.617   6.694  -1.088  0.00  0.00    +0.000 A 
ENDBRANCH  10  11
ENDBRANCH   1  10
TORSDOF 2
ENDMDL
MODEL 7
REMARK VINA RESULT:    -5.085     13.478     14.733
REMARK INTER + INTRA:          -5.819
REMARK INTER:                  -5.678
REMARK INTRA:                  -0.141
REMARK UNBOUND:                -0.139
REMARK  Name = 1550473
REMARK  2 active torsions:
REMARK  status: ('A' for Active; 'I' for Inactive)
REMARK    1  A    between atoms: N_1  and  C_4
REMARK    2  A    between atoms: C_4  and  C_5
REMARK                            x       y       z     vdW  Elec       q    Type
REMARK                         _______ _______ _______ _____ _____    ______ ____
ROOT
ATOM      1  N   UNL     1     -16.826   3.762   0.545  0.00  0.00    -0.354 N 
ATOM      2  N   UNL     1     -17.756   5.761   1.258  0.00  0.00    -0.372 N 
ATOM      3  N   UNL     1     -17.279   5.492  -0.970  0.00  0.00    -0.372 N 
ATOM      4  C   UNL     1     -17.280   4.993   0.271  0.00  0.00    +0.166 C 
ATOM      5  H   UNL     1     -16.827   3.454   1.511  0.00  0.00    +0.163 HD
ATOM      6  H   UNL     1     -18.108   6.692   1.081  0.00  0.00    +0.159 HD
ATOM      7  H   UNL     1     -17.797   5.432   2.216  0.00  0.00    +0.159 HD
ATOM      8  H   UNL     1     -16.928   4.965  -1.759  0.00  0.00    +0.159 HD
ATOM      9  H   UNL     1     -17.616   6.426  -1.166  0.00  0.00    +0.159 HD
ENDROOT
BRANCH   1  10
ATOM     10  C   UNL     1     -16.338   2.826  -0.466  0.00  0.00    +0.151 C 
BRANCH  10  11
ATOM     11  C   UNL     1     -17.018   1.498  -0.274  0.00  0.00    -0.028 A 
ATOM     12  C   UNL     1     -16.911   0.497  -1.250  0.00  0.00    +0.005 A 
ATOM     13  C   UNL     1     -17.765   1.234   0.883  0.00  0.00    +0.005 A 
ATOM     14  C   UNL     1     -17.517  -0.747  -1.059  0.00  0.00    +0.000 A 
ATOM     15  C   UNL     1     -18.370  -0.010   1.070  0.00  0.00    +0.000 A 
ATOM     16  C   UNL     1     -18.243  -1.001   0.099  0.00  0.00    +0.000 A 
ENDBRANCH  10  11
ENDBRANCH   1  10
TORSDOF 2
ENDMDL
MODEL 8
REMARK VINA RESULT:    -5.085      8.628      9.911
REMARK INTER + INTRA:          -5.819
REMARK INTER:                  -5.686
REMARK INTRA:                  -0.132
REMARK UNBOUND:                -0.139
REMARK  Name = 1550473
REMARK  2 active torsions:
REMARK  status: ('A' for Active; 'I' for Inactive)
REMARK    1  A    between atoms: N_1  and  C_4
REMARK    2  A    between atoms: C_4  and  C_5
REMARK                            x       y       z     vdW  Elec       q    Type
REMARK                         _______ _______ _______ _____ _____    ______ ____
ROOT
ATOM      1  N   UNL     1       2.792   3.796   1.327  0.00  0.00    -0.354 N 
ATOM      2  N   UNL     1       2.856   1.636   2.158  0.00  0.00    -0.372 N 
ATOM      3  N   UNL     1       2.919   3.393   3.632  0.00  0.00    -0.372 N 
ATOM      4  C   UNL     1       2.855   2.957   2.369  0.00  0.00    +0.166 C 
ATOM      5  H   UNL     1       2.777   3.403   0.393  0.00  0.00    +0.163 HD
ATOM      6  H   UNL     1       2.899   0.978   2.925  0.00  0.00    +0.159 HD
ATOM      7  H   UNL     1       2.794   1.245   1.226  0.00  0.00    +0.159 HD
ATOM      8  H   UNL     1       2.928   4.379   3.858  0.00  0.00    +0.159 HD
ATOM      9  H   UNL     1       2.974   2.751   4.412  0.00  0.00    +0.159 HD
ENDROOT
BRANCH   1  10
ATOM     10  C   UNL     1       2.732   5.252   1.451  0.00  0.00    +0.151 C 
BRANCH  10  11
ATOM     11  C   UNL     1       1.864   5.803   0.353  0.00  0.00    -0.028 A 
ATOM     12  C   UNL     1       1.399   4.968  -0.674  0.00  0.00    +0.005 A 
ATOM     13  C   UNL     1       1.499   7.157   0.338  0.00  0.00    +0.005 A 
ATOM     14  C   UNL     1       0.569   5.473  -1.677  0.00  0.00    +0.000 A 
ATOM     15  C   UNL     1       0.670   7.658  -0.666  0.00  0.00    +0.000 A 
ATOM     16  C   UNL     1       0.203   6.815  -1.672  0.00  0.00    +0.000 A 
ENDBRANCH  10  11
ENDBRANCH   1  10
TORSDOF 2
ENDMDL
MODEL 9
REMARK VINA RESULT:    -5.077      4.326      5.556
REMARK INTER + INTRA:          -5.810
REMARK INTER:                  -5.661
REMARK INTRA:                  -0.149
REMARK UNBOUND:                -0.139
REMARK  Name = 1550473
REMARK  2 active torsions:
REMARK  status: ('A' for Active; 'I' for Inactive)
REMARK    1  A    between atoms: N_1  and  C_4
REMARK    2  A    between atoms: C_4  and  C_5
REMARK                            x       y       z     vdW  Elec       q    Type
REMARK                         _______ _______ _______ _____ _____    ______ ____
ROOT
ATOM      1  N   UNL     1       0.855   1.518  -4.758  0.00  0.00    -0.354 N 
ATOM      2  N   UNL     1       2.438   0.216  -3.678  0.00  0.00    -0.372 N 
ATOM      3  N   UNL     1       1.707  -0.423  -5.757  0.00  0.00    -0.372 N 
ATOM      4  C   UNL     1       1.656   0.444  -4.740  0.00  0.00    +0.166 C 
ATOM      5  H   UNL     1       0.840   2.120  -3.943  0.00  0.00    +0.163 HD
ATOM      6  H   UNL     1       3.055  -0.584  -3.638  0.00  0.00    +0.159 HD
ATOM      7  H   UNL     1       2.455   0.845  -2.885  0.00  0.00    +0.159 HD
ATOM      8  H   UNL     1       1.137  -0.312  -6.585  0.00  0.00    +0.159 HD
ATOM      9  H   UNL     1       2.309  -1.236  -5.730  0.00  0.00    +0.159 HD
ENDROOT
BRANCH   1  10
ATOM     10  C   UNL     1       0.004   1.885  -5.889  0.00  0.00    +0.151 C 
BRANCH  10  11
ATOM     11  C   UNL     1      -1.427   1.936  -5.430  0.00  0.00    -0.028 A 
ATOM     12  C   UNL     1      -2.229   0.787  -5.472  0.00  0.00    +0.005 A 
ATOM     13  C   UNL     1      -1.985   3.130  -4.948  0.00  0.00    +0.005 A 
ATOM     14  C   UNL     1      -3.550   0.826  -5.018  0.00  0.00    +0.000 A 
ATOM     15  C   UNL     1      -3.305   3.166  -4.497  0.00  0.00    +0.000 A 
ATOM     16  C   UNL     1      -4.086   2.013  -4.530  0.00  0.00    +0.000 A 
ENDBRANCH  10  11
ENDBRANCH   1  10
TORSDOF 2
ENDMDL
