MODEL 1
REMARK VINA RESULT:    -5.973      0.000      0.000
REMARK INTER + INTRA:          -6.799
REMARK INTER:                  -6.671
REMARK INTRA:                  -0.128
REMARK UNBOUND:                -0.128
REMARK  Name = 1550473
REMARK  2 active torsions:
REMARK  status: ('A' for Active; 'I' for Inactive)
REMARK    1  A    between atoms: N_1  and  C_4
REMARK    2  A    between atoms: C_4  and  C_5
REMARK                            x       y       z     vdW  Elec       q    Type
REMARK                         _______ _______ _______ _____ _____    ______ ____
ROOT
ATOM      1  N   UNL     1      -1.317 -13.085   9.415  0.00  0.00    -0.354 N 
ATOM      2  N   UNL     1       0.927 -13.660   9.402  0.00  0.00    -0.372 N 
ATOM      3  N   UNL     1      -0.601 -15.168  10.213  0.00  0.00    -0.372 N 
ATOM      4  C   UNL     1      -0.346 -13.970   9.678  0.00  0.00    +0.166 C 
ATOM      5  H   UNL     1      -1.055 -12.181   9.037  0.00  0.00    +0.163 HD
ATOM      6  H   UNL     1       1.680 -14.309   9.587  0.00  0.00    +0.159 HD
ATOM      7  H   UNL     1       1.181 -12.775   8.982  0.00  0.00    +0.159 HD
ATOM      8  H   UNL     1      -1.540 -15.461  10.450  0.00  0.00    +0.159 HD
ATOM      9  H   UNL     1       0.141 -15.827  10.416  0.00  0.00    +0.159 HD
ENDROOT
BRANCH   1  10
ATOM     10  C   UNL     1      -2.740 -13.344   9.627  0.00  0.00    +0.151 C 
BRANCH  10  11
ATOM     11  C   UNL     1      -3.421 -12.060  10.013  0.00  0.00    -0.028 A 
ATOM     12  C   UNL     1      -4.666 -12.080  10.657  0.00  0.00    +0.005 A 
ATOM     13  C   UNL     1      -2.823 -10.820   9.742  0.00  0.00    +0.005 A 
ATOM     14  C   UNL     1      -5.286 -10.889  11.042  0.00  0.00    +0.000 A 
ATOM     15  C   UNL     1      -3.445  -9.632  10.128  0.00  0.00    +0.000 A 
ATOM     16  C   UNL     1      -4.675  -9.667  10.780  0.00  0.00    +0.000 A 
ENDBRANCH  10  11
ENDBRANCH   1  10
TORSDOF 2
ENDMDL
MODEL 2
REMARK VINA RESULT:    -5.749      3.472      4.639
REMARK INTER + INTRA:          -6.548
REMARK INTER:                  -6.422
REMARK INTRA:                  -0.127
REMARK UNBOUND:                -0.128
REMARK  Name = 1550473
REMARK  2 active torsions:
REMARK  status: ('A' for Active; 'I' for Inactive)
REMARK    1  A    between atoms: N_1  and  C_4
REMARK    2  A    between atoms: C_4  and  C_5
REMARK                            x       y       z     vdW  Elec       q    Type
REMARK                         _______ _______ _______ _____ _____    ______ ____
ROOT
ATOM      1  N   UNL     1      -6.151 -13.688  10.719  0.00  0.00    -0.354 N 
ATOM      2  N   UNL     1      -6.685 -15.941  10.644  0.00  0.00    -0.372 N 
ATOM      3  N   UNL     1      -8.246 -14.407   9.952  0.00  0.00    -0.372 N 
ATOM      4  C   UNL     1      -7.026 -14.663  10.438  0.00  0.00    +0.166 C 
ATOM      5  H   UNL     1      -5.254 -13.946  11.114  0.00  0.00    +0.163 HD
ATOM      6  H   UNL     1      -7.323 -16.698  10.437  0.00  0.00    +0.159 HD
ATOM      7  H   UNL     1      -5.771 -16.198  10.995  0.00  0.00    +0.159 HD
ATOM      8  H   UNL     1      -8.567 -13.464   9.780  0.00  0.00    +0.159 HD
ATOM      9  H   UNL     1      -8.903 -15.151   9.750  0.00  0.00    +0.159 HD
ENDROOT
BRANCH   1  10
ATOM     10  C   UNL     1      -6.405 -12.268  10.481  0.00  0.00    +0.151 C 
BRANCH  10  11
ATOM     11  C   UNL     1      -5.110 -11.591  10.125  0.00  0.00    -0.028 A 
ATOM     12  C   UNL     1      -4.804 -10.323  10.640  0.00  0.00    +0.005 A 
ATOM     13  C   UNL     1      -4.182 -12.216   9.278  0.00  0.00    +0.005 A 
ATOM     14  C   UNL     1      -3.589  -9.707  10.334  0.00  0.00    +0.000 A 
ATOM     15  C   UNL     1      -2.969 -11.597   8.973  0.00  0.00    +0.000 A 
ATOM     16  C   UNL     1      -2.672 -10.343   9.503  0.00  0.00    +0.000 A 
ENDBRANCH  10  11
ENDBRANCH   1  10
TORSDOF 2
ENDMDL
MODEL 3
REMARK VINA RESULT:    -5.710      1.882      2.493
REMARK INTER + INTRA:          -6.506
REMARK INTER:                  -6.382
REMARK INTRA:                  -0.124
REMARK UNBOUND:                -0.128
REMARK  Name = 1550473
REMARK  2 active torsions:
REMARK  status: ('A' for Active; 'I' for Inactive)
REMARK    1  A    between atoms: N_1  and  C_4
REMARK    2  A    between atoms: C_4  and  C_5
REMARK                            x       y       z     vdW  Elec       q    Type
REMARK                         _______ _______ _______ _____ _____    ______ ____
ROOT
ATOM      1  N   UNL     1      -3.173 -14.159   8.626  0.00  0.00    -0.354 N 
ATOM      2  N   UNL     1      -1.696 -15.942   8.577  0.00  0.00    -0.372 N 
ATOM      3  N   UNL     1      -3.815 -16.279   9.391  0.00  0.00    -0.372 N 
ATOM      4  C   UNL     1      -2.907 -15.449   8.866  0.00  0.00    +0.166 C 
ATOM      5  H   UNL     1      -2.432 -13.575   8.255  0.00  0.00    +0.163 HD
ATOM      6  H   UNL     1      -1.467 -16.912   8.744  0.00  0.00    +0.159 HD
ATOM      7  H   UNL     1      -0.972 -15.367   8.164  0.00  0.00    +0.159 HD
ATOM      8  H   UNL     1      -4.745 -15.968   9.637  0.00  0.00    +0.159 HD
ATOM      9  H   UNL     1      -3.601 -17.251   9.576  0.00  0.00    +0.159 HD
ENDROOT
BRANCH   1  10
ATOM     10  C   UNL     1      -4.476 -13.537   8.854  0.00  0.00    +0.151 C 
BRANCH  10  11
ATOM     11  C   UNL     1      -4.271 -12.175   9.460  0.00  0.00    -0.028 A 
ATOM     12  C   UNL     1      -3.191 -11.375   9.062  0.00  0.00    +0.005 A 
ATOM     13  C   UNL     1      -5.158 -11.678  10.427  0.00  0.00    +0.005 A 
ATOM     14  C   UNL     1      -3.017 -10.098   9.602  0.00  0.00    +0.000 A 
ATOM     15  C   UNL     1      -4.981 -10.403  10.964  0.00  0.00    +0.000 A 
ATOM     16  C   UNL     1      -3.912  -9.613  10.550  0.00  0.00    +0.000 A 
ENDBRANCH  10  11
ENDBRANCH   1  10
TORSDOF 2
ENDMDL
MODEL 4
REMARK VINA RESULT:    -5.466     17.504     18.978
REMARK INTER + INTRA:          -6.232
REMARK INTER:                  -6.081
REMARK INTRA:                  -0.151
REMARK UNBOUND:                -0.128
REMARK  Name = 1550473
REMARK  2 active torsions:
REMARK  status: ('A' for Active; 'I' for Inactive)
REMARK    1  A    between atoms: N_1  and  C_4
REMARK    2  A    between atoms: C_4  and  C_5
REMARK                            x       y       z     vdW  Elec       q    Type
REMARK                         _______ _______ _______ _____ _____    ______ ____
ROOT
ATOM      1  N   UNL     1     -11.884  -4.928  24.408  0.00  0.00    -0.354 N 
ATOM      2  N   UNL     1     -11.706  -7.220  24.693  0.00  0.00    -0.372 N 
ATOM      3  N   UNL     1     -10.803  -6.262  22.814  0.00  0.00    -0.372 N 
ATOM      4  C   UNL     1     -11.464  -6.121  23.967  0.00  0.00    +0.166 C 
ATOM      5  H   UNL     1     -12.407  -4.892  25.276  0.00  0.00    +0.163 HD
ATOM      6  H   UNL     1     -11.399  -8.133  24.388  0.00  0.00    +0.159 HD
ATOM      7  H   UNL     1     -12.189  -7.175  25.582  0.00  0.00    +0.159 HD
ATOM      8  H   UNL     1     -10.594  -5.473  22.216  0.00  0.00    +0.159 HD
ATOM      9  H   UNL     1     -10.497  -7.170  22.485  0.00  0.00    +0.159 HD
ENDROOT
BRANCH   1  10
ATOM     10  C   UNL     1     -11.625  -3.665  23.720  0.00  0.00    +0.151 C 
BRANCH  10  11
ATOM     11  C   UNL     1     -10.712  -2.822  24.567  0.00  0.00    -0.028 A 
ATOM     12  C   UNL     1     -10.579  -3.076  25.940  0.00  0.00    +0.005 A 
ATOM     13  C   UNL     1      -9.972  -1.773  24.001  0.00  0.00    +0.005 A 
ATOM     14  C   UNL     1      -9.707  -2.313  26.721  0.00  0.00    +0.000 A 
ATOM     15  C   UNL     1      -9.103  -1.013  24.784  0.00  0.00    +0.000 A 
ATOM     16  C   UNL     1      -8.970  -1.285  26.144  0.00  0.00    +0.000 A 
ENDBRANCH  10  11
ENDBRANCH   1  10
TORSDOF 2
ENDMDL
MODEL 5
REMARK VINA RESULT:    -5.020     10.915     12.105
REMARK INTER + INTRA:          -5.734
REMARK INTER:                  -5.581
REMARK INTRA:                  -0.153
REMARK UNBOUND:                -0.128
REMARK  Name = 1550473
REMARK  2 active torsions:
REMARK  status: ('A' for Active; 'I' for Inactive)
REMARK    1  A    between atoms: N_1  and  C_4
REMARK    2  A    between atoms: C_4  and  C_5
REMARK                            x       y       z     vdW  Elec       q    Type
REMARK                         _______ _______ _______ _____ _____    ______ ____
ROOT
ATOM      1  N   UNL     1     -13.877 -11.330  14.094  0.00  0.00    -0.354 N 
ATOM      2  N   UNL     1     -14.184 -10.547  11.936  0.00  0.00    -0.372 N 
ATOM      3  N   UNL     1     -12.321 -11.802  12.406  0.00  0.00    -0.372 N 
ATOM      4  C   UNL     1     -13.456 -11.233  12.826  0.00  0.00    +0.166 C 
ATOM      5  H   UNL     1     -14.730 -10.850  14.357  0.00  0.00    +0.163 HD
ATOM      6  H   UNL     1     -13.894 -10.459  10.972  0.00  0.00    +0.159 HD
ATOM      7  H   UNL     1     -15.060 -10.107  12.190  0.00  0.00    +0.159 HD
ATOM      8  H   UNL     1     -11.724 -12.328  13.030  0.00  0.00    +0.159 HD
ATOM      9  H   UNL     1     -12.008 -11.715  11.448  0.00  0.00    +0.159 HD
ENDROOT
BRANCH   1  10
ATOM     10  C   UNL     1     -13.186 -12.098  15.128  0.00  0.00    +0.151 C 
BRANCH  10  11
ATOM     11  C   UNL     1     -12.681 -11.155  16.186  0.00  0.00    -0.028 A 
ATOM     12  C   UNL     1     -11.305 -10.926  16.337  0.00  0.00    +0.005 A 
ATOM     13  C   UNL     1     -13.573 -10.484  17.036  0.00  0.00    +0.005 A 
ATOM     14  C   UNL     1     -10.837 -10.028  17.299  0.00  0.00    +0.000 A 
ATOM     15  C   UNL     1     -13.101  -9.588  17.995  0.00  0.00    +0.000 A 
ATOM     16  C   UNL     1     -11.734  -9.359  18.125  0.00  0.00    +0.000 A 
ENDBRANCH  10  11
ENDBRANCH   1  10
TORSDOF 2
ENDMDL
MODEL 6
REMARK VINA RESULT:    -4.790     26.003     27.203
REMARK INTER + INTRA:          -5.477
REMARK INTER:                  -5.369
REMARK INTRA:                  -0.108
REMARK UNBOUND:                -0.128
REMARK  Name = 1550473
REMARK  2 active torsions:
REMARK  status: ('A' for Active; 'I' for Inactive)
REMARK    1  A    between atoms: N_1  and  C_4
REMARK    2  A    between atoms: C_4  and  C_5
REMARK                            x       y       z     vdW  Elec       q    Type
REMARK                         _______ _______ _______ _____ _____    ______ ____
ROOT
ATOM      1  N   UNL     1       9.817  -1.008 -10.470  0.00  0.00    -0.354 N 
ATOM      2  N   UNL     1       9.825   1.208 -11.144  0.00  0.00    -0.372 N 
ATOM      3  N   UNL     1       9.038  -0.389 -12.592  0.00  0.00    -0.372 N 
ATOM      4  C   UNL     1       9.559  -0.079 -11.400  0.00  0.00    +0.166 C 
ATOM      5  H   UNL     1      10.241  -0.712  -9.598  0.00  0.00    +0.163 HD
ATOM      6  H   UNL     1       9.638   1.932 -11.825  0.00  0.00    +0.159 HD
ATOM      7  H   UNL     1      10.206   1.507 -10.254  0.00  0.00    +0.159 HD
ATOM      8  H   UNL     1       8.820  -1.342 -12.849  0.00  0.00    +0.159 HD
ATOM      9  H   UNL     1       8.855   0.320 -13.291  0.00  0.00    +0.159 HD
ENDROOT
BRANCH   1  10
ATOM     10  C   UNL     1       9.515  -2.429 -10.628  0.00  0.00    +0.151 C 
BRANCH  10  11
ATOM     11  C   UNL     1      10.800  -3.209 -10.618  0.00  0.00    -0.028 A 
ATOM     12  C   UNL     1      10.826  -4.534 -10.158  0.00  0.00    +0.005 A 
ATOM     13  C   UNL     1      11.995  -2.631 -11.074  0.00  0.00    +0.005 A 
ATOM     14  C   UNL     1      12.014  -5.268 -10.176  0.00  0.00    +0.000 A 
ATOM     15  C   UNL     1      13.180  -3.368 -11.091  0.00  0.00    +0.000 A 
ATOM     16  C   UNL     1      13.188  -4.687 -10.644  0.00  0.00    +0.000 A 
ENDBRANCH  10  11
ENDBRANCH   1  10
TORSDOF 2
ENDMDL
MODEL 7
REMARK VINA RESULT:    -4.779     11.604     12.534
REMARK INTER + INTRA:          -5.465
REMARK INTER:                  -5.359
REMARK INTRA:                  -0.106
REMARK UNBOUND:                -0.128
REMARK  Name = 1550473
REMARK  2 active torsions:
REMARK  status: ('A' for Active; 'I' for Inactive)
REMARK    1  A    between atoms: N_1  and  C_4
REMARK    2  A    between atoms: C_4  and  C_5
REMARK                            x       y       z     vdW  Elec       q    Type
REMARK                         _______ _______ _______ _____ _____    ______ ____
ROOT
ATOM      1  N   UNL     1     -14.524 -10.089  14.641  0.00  0.00    -0.354 N 
ATOM      2  N   UNL     1     -15.915  -9.027  13.124  0.00  0.00    -0.372 N 
ATOM      3  N   UNL     1     -14.048 -10.110  12.347  0.00  0.00    -0.372 N 
ATOM      4  C   UNL     1     -14.818  -9.750  13.379  0.00  0.00    +0.166 C 
ATOM      5  H   UNL     1     -15.132  -9.759  15.382  0.00  0.00    +0.163 HD
ATOM      6  H   UNL     1     -16.164  -8.759  12.182  0.00  0.00    +0.159 HD
ATOM      7  H   UNL     1     -16.546  -8.737  13.862  0.00  0.00    +0.159 HD
ATOM      8  H   UNL     1     -13.203 -10.651  12.472  0.00  0.00    +0.159 HD
ATOM      9  H   UNL     1     -14.274  -9.842  11.397  0.00  0.00    +0.159 HD
ENDROOT
BRANCH   1  10
ATOM     10  C   UNL     1     -13.382 -10.920  15.020  0.00  0.00    +0.151 C 
BRANCH  10  11
ATOM     11  C   UNL     1     -12.411 -10.088  15.812  0.00  0.00    -0.028 A 
ATOM     12  C   UNL     1     -12.576  -8.699  15.906  0.00  0.00    +0.005 A 
ATOM     13  C   UNL     1     -11.328 -10.685  16.476  0.00  0.00    +0.005 A 
ATOM     14  C   UNL     1     -11.691  -7.930  16.667  0.00  0.00    +0.000 A 
ATOM     15  C   UNL     1     -10.447  -9.914  17.233  0.00  0.00    +0.000 A 
ATOM     16  C   UNL     1     -10.631  -8.536  17.331  0.00  0.00    +0.000 A 
ENDBRANCH  10  11
ENDBRANCH   1  10
TORSDOF 2
ENDMDL
MODEL 8
REMARK VINA RESULT:    -4.647     26.996     28.079
REMARK INTER + INTRA:          -5.318
REMARK INTER:                  -5.183
REMARK INTRA:                  -0.136
REMARK UNBOUND:                -0.128
REMARK  Name = 1550473
REMARK  2 active torsions:
REMARK  status: ('A' for Active; 'I' for Inactive)
REMARK    1  A    between atoms: N_1  and  C_4
REMARK    2  A    between atoms: C_4  and  C_5
REMARK                            x       y       z     vdW  Elec       q    Type
REMARK                         _______ _______ _______ _____ _____    ______ ____
ROOT
ATOM      1  N   UNL     1      11.542   1.009 -11.604  0.00  0.00    -0.354 N 
ATOM      2  N   UNL     1      12.955   2.842 -11.509  0.00  0.00    -0.372 N 
ATOM      3  N   UNL     1      10.933   2.944 -10.431  0.00  0.00    -0.372 N 
ATOM      4  C   UNL     1      11.799   2.254 -11.181  0.00  0.00    +0.166 C 
ATOM      5  H   UNL     1      12.227   0.551 -12.194  0.00  0.00    +0.163 HD
ATOM      6  H   UNL     1      13.178   3.779 -11.202  0.00  0.00    +0.159 HD
ATOM      7  H   UNL     1      13.658   2.364 -12.062  0.00  0.00    +0.159 HD
ATOM      8  H   UNL     1      10.040   2.560 -10.153  0.00  0.00    +0.159 HD
ATOM      9  H   UNL     1      11.133   3.888 -10.123  0.00  0.00    +0.159 HD
ENDROOT
BRANCH   1  10
ATOM     10  C   UNL     1      10.336   0.259 -11.256  0.00  0.00    +0.151 C 
BRANCH  10  11
ATOM     11  C   UNL     1      10.710  -1.170 -10.977  0.00  0.00    -0.028 A 
ATOM     12  C   UNL     1       9.758  -2.070 -10.476  0.00  0.00    +0.005 A 
ATOM     13  C   UNL     1      12.013  -1.633 -11.216  0.00  0.00    +0.005 A 
ATOM     14  C   UNL     1      10.097  -3.405 -10.244  0.00  0.00    +0.000 A 
ATOM     15  C   UNL     1      12.348  -2.966 -10.983  0.00  0.00    +0.000 A 
ATOM     16  C   UNL     1      11.389  -3.853 -10.499  0.00  0.00    +0.000 A 
ENDBRANCH  10  11
ENDBRANCH   1  10
TORSDOF 2
ENDMDL
MODEL 9
REMARK VINA RESULT:    -4.542     19.185     20.409
REMARK INTER + INTRA:          -5.201
REMARK INTER:                  -5.024
REMARK INTRA:                  -0.177
REMARK UNBOUND:                -0.128
REMARK  Name = 1550473
REMARK  2 active torsions:
REMARK  status: ('A' for Active; 'I' for Inactive)
REMARK    1  A    between atoms: N_1  and  C_4
REMARK    2  A    between atoms: C_4  and  C_5
REMARK                            x       y       z     vdW  Elec       q    Type
REMARK                         _______ _______ _______ _____ _____    ______ ____
ROOT
ATOM      1  N   UNL     1      -9.303  -2.862  25.826  0.00  0.00    -0.354 N 
ATOM      2  N   UNL     1     -10.397  -4.325  27.250  0.00  0.00    -0.372 N 
ATOM      3  N   UNL     1     -11.337  -3.851  25.212  0.00  0.00    -0.372 N 
ATOM      4  C   UNL     1     -10.341  -3.669  26.085  0.00  0.00    +0.166 C 
ATOM      5  H   UNL     1      -8.595  -2.744  26.542  0.00  0.00    +0.163 HD
ATOM      6  H   UNL     1     -11.165  -4.944  27.472  0.00  0.00    +0.159 HD
ATOM      7  H   UNL     1      -9.665  -4.241  27.945  0.00  0.00    +0.159 HD
ATOM      8  H   UNL     1     -11.357  -3.381  24.317  0.00  0.00    +0.159 HD
ATOM      9  H   UNL     1     -12.121  -4.457  25.420  0.00  0.00    +0.159 HD
ENDROOT
BRANCH   1  10
ATOM     10  C   UNL     1      -9.120  -2.145  24.566  0.00  0.00    +0.151 C 
BRANCH  10  11
ATOM     11  C   UNL     1      -9.542  -0.713  24.750  0.00  0.00    -0.028 A 
ATOM     12  C   UNL     1     -10.512  -0.144  23.911  0.00  0.00    +0.005 A 
ATOM     13  C   UNL     1      -8.982   0.078  25.764  0.00  0.00    +0.005 A 
ATOM     14  C   UNL     1     -10.926   1.177  24.100  0.00  0.00    +0.000 A 
ATOM     15  C   UNL     1      -9.398   1.396  25.949  0.00  0.00    +0.000 A 
ATOM     16  C   UNL     1     -10.372   1.944  25.119  0.00  0.00    +0.000 A 
ENDBRANCH  10  11
ENDBRANCH   1  10
TORSDOF 2
ENDMDL
