MODEL 1
REMARK VINA RESULT:    -5.159      0.000      0.000
REMARK INTER + INTRA:          -5.865
REMARK INTER:                  -5.762
REMARK INTRA:                  -0.103
REMARK UNBOUND:                -0.103
REMARK  Name = 1550473
REMARK  2 active torsions:
REMARK  status: ('A' for Active; 'I' for Inactive)
REMARK    1  A    between atoms: N_1  and  C_4
REMARK    2  A    between atoms: C_4  and  C_5
REMARK                            x       y       z     vdW  Elec       q    Type
REMARK                         _______ _______ _______ _____ _____    ______ ____
ROOT
ATOM      1  N   UNL     1       6.438  -8.378  -1.564  0.00  0.00    -0.354 N 
ATOM      2  N   UNL     1       7.421  -6.315  -1.191  0.00  0.00    -0.372 N 
ATOM      3  N   UNL     1       6.937  -6.939  -3.345  0.00  0.00    -0.372 N 
ATOM      4  C   UNL     1       6.926  -7.224  -2.039  0.00  0.00    +0.166 C 
ATOM      5  H   UNL     1       6.486  -8.547  -0.566  0.00  0.00    +0.163 HD
ATOM      6  H   UNL     1       7.793  -5.433  -1.519  0.00  0.00    +0.159 HD
ATOM      7  H   UNL     1       7.426  -6.466  -0.190  0.00  0.00    +0.159 HD
ATOM      8  H   UNL     1       6.583  -7.586  -4.038  0.00  0.00    +0.159 HD
ATOM      9  H   UNL     1       7.316  -6.067  -3.694  0.00  0.00    +0.159 HD
ENDROOT
BRANCH   1  10
ATOM     10  C   UNL     1       5.827  -9.412  -2.398  0.00  0.00    +0.151 C 
BRANCH  10  11
ATOM     11  C   UNL     1       5.328 -10.523  -1.516  0.00  0.00    -0.028 A 
ATOM     12  C   UNL     1       5.749 -11.844  -1.728  0.00  0.00    +0.005 A 
ATOM     13  C   UNL     1       4.438 -10.260  -0.463  0.00  0.00    +0.005 A 
ATOM     14  C   UNL     1       5.309 -12.872  -0.890  0.00  0.00    +0.000 A 
ATOM     15  C   UNL     1       4.001 -11.289   0.371  0.00  0.00    +0.000 A 
ATOM     16  C   UNL     1       4.438 -12.594   0.158  0.00  0.00    +0.000 A 
ENDBRANCH  10  11
ENDBRANCH   1  10
TORSDOF 2
ENDMDL
MODEL 2
REMARK VINA RESULT:    -4.698      1.315      2.573
REMARK INTER + INTRA:          -5.351
REMARK INTER:                  -5.213
REMARK INTRA:                  -0.138
REMARK UNBOUND:                -0.103
REMARK  Name = 1550473
REMARK  2 active torsions:
REMARK  status: ('A' for Active; 'I' for Inactive)
REMARK    1  A    between atoms: N_1  and  C_4
REMARK    2  A    between atoms: C_4  and  C_5
REMARK                            x       y       z     vdW  Elec       q    Type
REMARK                         _______ _______ _______ _____ _____    ______ ____
ROOT
ATOM      1  N   UNL     1       4.998  -9.873  -1.882  0.00  0.00    -0.354 N 
ATOM      2  N   UNL     1       6.588  -8.978  -3.310  0.00  0.00    -0.372 N 
ATOM      3  N   UNL     1       6.496  -8.228  -1.143  0.00  0.00    -0.372 N 
ATOM      4  C   UNL     1       6.017  -9.031  -2.100  0.00  0.00    +0.166 C 
ATOM      5  H   UNL     1       4.663 -10.432  -2.657  0.00  0.00    +0.163 HD
ATOM      6  H   UNL     1       7.361  -8.355  -3.503  0.00  0.00    +0.159 HD
ATOM      7  H   UNL     1       6.280  -9.572  -4.070  0.00  0.00    +0.159 HD
ATOM      8  H   UNL     1       6.105  -8.216  -0.210  0.00  0.00    +0.159 HD
ATOM      9  H   UNL     1       7.261  -7.590  -1.320  0.00  0.00    +0.159 HD
ENDROOT
BRANCH   1  10
ATOM     10  C   UNL     1       4.343 -10.045  -0.587  0.00  0.00    +0.151 C 
BRANCH  10  11
ATOM     11  C   UNL     1       4.289 -11.511  -0.256  0.00  0.00    -0.028 A 
ATOM     12  C   UNL     1       3.384 -11.992   0.702  0.00  0.00    +0.005 A 
ATOM     13  C   UNL     1       5.136 -12.426  -0.900  0.00  0.00    +0.005 A 
ATOM     14  C   UNL     1       3.312 -13.357   0.989  0.00  0.00    +0.000 A 
ATOM     15  C   UNL     1       5.062 -13.788  -0.610  0.00  0.00    +0.000 A 
ATOM     16  C   UNL     1       4.149 -14.254   0.332  0.00  0.00    +0.000 A 
ENDBRANCH  10  11
ENDBRANCH   1  10
TORSDOF 2
ENDMDL
MODEL 3
REMARK VINA RESULT:    -4.590      3.087      4.330
REMARK INTER + INTRA:          -5.230
REMARK INTER:                  -5.085
REMARK INTRA:                  -0.145
REMARK UNBOUND:                -0.103
REMARK  Name = 1550473
REMARK  2 active torsions:
REMARK  status: ('A' for Active; 'I' for Inactive)
REMARK    1  A    between atoms: N_1  and  C_4
REMARK    2  A    between atoms: C_4  and  C_5
REMARK                            x       y       z     vdW  Elec       q    Type
REMARK                         _______ _______ _______ _____ _____    ______ ____
ROOT
ATOM      1  N   UNL     1       6.912  -8.653  -3.491  0.00  0.00    -0.354 N 
ATOM      2  N   UNL     1       6.574  -6.799  -2.145  0.00  0.00    -0.372 N 
ATOM      3  N   UNL     1       6.161  -8.885  -1.284  0.00  0.00    -0.372 N 
ATOM      4  C   UNL     1       6.550  -8.126  -2.314  0.00  0.00    +0.166 C 
ATOM      5  H   UNL     1       7.168  -8.022  -4.242  0.00  0.00    +0.163 HD
ATOM      6  H   UNL     1       6.310  -6.373  -1.267  0.00  0.00    +0.159 HD
ATOM      7  H   UNL     1       6.874  -6.173  -2.883  0.00  0.00    +0.159 HD
ATOM      8  H   UNL     1       6.116  -9.893  -1.348  0.00  0.00    +0.159 HD
ATOM      9  H   UNL     1       5.882  -8.477  -0.400  0.00  0.00    +0.159 HD
ENDROOT
BRANCH   1  10
ATOM     10  C   UNL     1       6.973 -10.088  -3.761  0.00  0.00    +0.151 C 
BRANCH  10  11
ATOM     11  C   UNL     1       5.967 -10.431  -4.825  0.00  0.00    -0.028 A 
ATOM     12  C   UNL     1       5.936  -9.718  -6.032  0.00  0.00    +0.005 A 
ATOM     13  C   UNL     1       5.046 -11.473  -4.634  0.00  0.00    +0.005 A 
ATOM     14  C   UNL     1       5.021 -10.056  -7.032  0.00  0.00    +0.000 A 
ATOM     15  C   UNL     1       4.133 -11.806  -5.635  0.00  0.00    +0.000 A 
ATOM     16  C   UNL     1       4.123 -11.100  -6.835  0.00  0.00    +0.000 A 
ENDBRANCH  10  11
ENDBRANCH   1  10
TORSDOF 2
ENDMDL
MODEL 4
REMARK VINA RESULT:    -4.181      1.899      2.733
REMARK INTER + INTRA:          -4.773
REMARK INTER:                  -4.703
REMARK INTRA:                  -0.071
REMARK UNBOUND:                -0.103
REMARK  Name = 1550473
REMARK  2 active torsions:
REMARK  status: ('A' for Active; 'I' for Inactive)
REMARK    1  A    between atoms: N_1  and  C_4
REMARK    2  A    between atoms: C_4  and  C_5
REMARK                            x       y       z     vdW  Elec       q    Type
REMARK                         _______ _______ _______ _____ _____    ______ ____
ROOT
ATOM      1  N   UNL     1       7.714  -6.683  -2.912  0.00  0.00    -0.354 N 
ATOM      2  N   UNL     1       8.799  -5.304  -1.400  0.00  0.00    -0.372 N 
ATOM      3  N   UNL     1       9.892  -7.161  -2.189  0.00  0.00    -0.372 N 
ATOM      4  C   UNL     1       8.797  -6.394  -2.177  0.00  0.00    +0.166 C 
ATOM      5  H   UNL     1       6.905  -6.078  -2.835  0.00  0.00    +0.163 HD
ATOM      6  H   UNL     1       9.602  -5.059  -0.837  0.00  0.00    +0.159 HD
ATOM      7  H   UNL     1       8.006  -4.676  -1.360  0.00  0.00    +0.159 HD
ATOM      8  H   UNL     1       9.951  -8.001  -2.750  0.00  0.00    +0.159 HD
ATOM      9  H   UNL     1      10.701  -6.938  -1.623  0.00  0.00    +0.159 HD
ENDROOT
BRANCH   1  10
ATOM     10  C   UNL     1       7.630  -7.816  -3.831  0.00  0.00    +0.151 C 
BRANCH  10  11
ATOM     11  C   UNL     1       6.738  -8.869  -3.233  0.00  0.00    -0.028 A 
ATOM     12  C   UNL     1       6.315  -9.964  -4.000  0.00  0.00    +0.005 A 
ATOM     13  C   UNL     1       6.317  -8.780  -1.897  0.00  0.00    +0.005 A 
ATOM     14  C   UNL     1       5.512 -10.958  -3.436  0.00  0.00    +0.000 A 
ATOM     15  C   UNL     1       5.514  -9.774  -1.338  0.00  0.00    +0.000 A 
ATOM     16  C   UNL     1       5.114 -10.864  -2.107  0.00  0.00    +0.000 A 
ENDBRANCH  10  11
ENDBRANCH   1  10
TORSDOF 2
ENDMDL
MODEL 5
REMARK VINA RESULT:    -3.937     16.446     17.066
REMARK INTER + INTRA:          -4.500
REMARK INTER:                  -4.367
REMARK INTRA:                  -0.134
REMARK UNBOUND:                -0.103
REMARK  Name = 1550473
REMARK  2 active torsions:
REMARK  status: ('A' for Active; 'I' for Inactive)
REMARK    1  A    between atoms: N_1  and  C_4
REMARK    2  A    between atoms: C_4  and  C_5
REMARK                            x       y       z     vdW  Elec       q    Type
REMARK                         _______ _______ _______ _____ _____    ______ ____
ROOT
ATOM      1  N   UNL     1      -9.983  -9.311  -5.541  0.00  0.00    -0.354 N 
ATOM      2  N   UNL     1     -11.218  -7.405  -5.091  0.00  0.00    -0.372 N 
ATOM      3  N   UNL     1     -11.880  -9.398  -4.168  0.00  0.00    -0.372 N 
ATOM      4  C   UNL     1     -11.021  -8.719  -4.935  0.00  0.00    +0.166 C 
ATOM      5  H   UNL     1      -9.385  -8.746  -6.134  0.00  0.00    +0.163 HD
ATOM      6  H   UNL     1     -11.991  -6.930  -4.643  0.00  0.00    +0.159 HD
ATOM      7  H   UNL     1     -10.593  -6.834  -5.646  0.00  0.00    +0.159 HD
ATOM      8  H   UNL     1     -11.789 -10.394  -4.015  0.00  0.00    +0.159 HD
ATOM      9  H   UNL     1     -12.666  -8.943  -3.721  0.00  0.00    +0.159 HD
ENDROOT
BRANCH   1  10
ATOM     10  C   UNL     1      -9.648 -10.726  -5.393  0.00  0.00    +0.151 C 
BRANCH  10  11
ATOM     11  C   UNL     1      -9.614 -11.368  -6.752  0.00  0.00    -0.028 A 
ATOM     12  C   UNL     1     -10.122 -10.692  -7.872  0.00  0.00    +0.005 A 
ATOM     13  C   UNL     1      -9.070 -12.650  -6.929  0.00  0.00    +0.005 A 
ATOM     14  C   UNL     1     -10.063 -11.276  -9.140  0.00  0.00    +0.000 A 
ATOM     15  C   UNL     1      -9.015 -13.229  -8.196  0.00  0.00    +0.000 A 
ATOM     16  C   UNL     1      -9.509 -12.541  -9.302  0.00  0.00    +0.000 A 
ENDBRANCH  10  11
ENDBRANCH   1  10
TORSDOF 2
ENDMDL
MODEL 6
REMARK VINA RESULT:    -3.873     37.383     38.842
REMARK INTER + INTRA:          -4.429
REMARK INTER:                  -4.298
REMARK INTRA:                  -0.131
REMARK UNBOUND:                -0.103
REMARK  Name = 1550473
REMARK  2 active torsions:
REMARK  status: ('A' for Active; 'I' for Inactive)
REMARK    1  A    between atoms: N_1  and  C_4
REMARK    2  A    between atoms: C_4  and  C_5
REMARK                            x       y       z     vdW  Elec       q    Type
REMARK                         _______ _______ _______ _____ _____    ______ ____
ROOT
ATOM      1  N   UNL     1       5.573  24.653  20.118  0.00  0.00    -0.354 N 
ATOM      2  N   UNL     1       7.112  26.303  19.600  0.00  0.00    -0.372 N 
ATOM      3  N   UNL     1       5.717  25.531  17.950  0.00  0.00    -0.372 N 
ATOM      4  C   UNL     1       6.123  25.484  19.224  0.00  0.00    +0.166 C 
ATOM      5  H   UNL     1       5.946  24.644  21.061  0.00  0.00    +0.163 HD
ATOM      6  H   UNL     1       7.545  26.944  18.948  0.00  0.00    +0.159 HD
ATOM      7  H   UNL     1       7.452  26.326  20.554  0.00  0.00    +0.159 HD
ATOM      8  H   UNL     1       4.979  24.934  17.601  0.00  0.00    +0.159 HD
ATOM      9  H   UNL     1       6.145  26.157  17.280  0.00  0.00    +0.159 HD
ENDROOT
BRANCH   1  10
ATOM     10  C   UNL     1       4.454  23.759  19.824  0.00  0.00    +0.151 C 
BRANCH  10  11
ATOM     11  C   UNL     1       4.946  22.338  19.828  0.00  0.00    -0.028 A 
ATOM     12  C   UNL     1       6.238  22.033  20.282  0.00  0.00    +0.005 A 
ATOM     13  C   UNL     1       4.124  21.291  19.384  0.00  0.00    +0.005 A 
ATOM     14  C   UNL     1       6.684  20.710  20.314  0.00  0.00    +0.000 A 
ATOM     15  C   UNL     1       4.574  19.972  19.417  0.00  0.00    +0.000 A 
ATOM     16  C   UNL     1       5.853  19.681  19.884  0.00  0.00    +0.000 A 
ENDBRANCH  10  11
ENDBRANCH   1  10
TORSDOF 2
ENDMDL
MODEL 7
REMARK VINA RESULT:    -3.870      2.893      4.588
REMARK INTER + INTRA:          -4.426
REMARK INTER:                  -4.344
REMARK INTRA:                  -0.082
REMARK UNBOUND:                -0.103
REMARK  Name = 1550473
REMARK  2 active torsions:
REMARK  status: ('A' for Active; 'I' for Inactive)
REMARK    1  A    between atoms: N_1  and  C_4
REMARK    2  A    between atoms: C_4  and  C_5
REMARK                            x       y       z     vdW  Elec       q    Type
REMARK                         _______ _______ _______ _____ _____    ______ ____
ROOT
ATOM      1  N   UNL     1       5.675 -10.810  -1.149  0.00  0.00    -0.354 N 
ATOM      2  N   UNL     1       4.345 -11.773   0.485  0.00  0.00    -0.372 N 
ATOM      3  N   UNL     1       3.744  -9.732  -0.375  0.00  0.00    -0.372 N 
ATOM      4  C   UNL     1       4.595 -10.763  -0.357  0.00  0.00    +0.166 C 
ATOM      5  H   UNL     1       6.298 -11.606  -1.066  0.00  0.00    +0.163 HD
ATOM      6  H   UNL     1       3.536 -11.766   1.092  0.00  0.00    +0.159 HD
ATOM      7  H   UNL     1       4.944 -12.588   0.533  0.00  0.00    +0.159 HD
ATOM      8  H   UNL     1       3.879  -8.936  -0.983  0.00  0.00    +0.159 HD
ATOM      9  H   UNL     1       2.935  -9.702   0.234  0.00  0.00    +0.159 HD
ENDROOT
BRANCH   1  10
ATOM     10  C   UNL     1       6.008  -9.788  -2.139  0.00  0.00    +0.151 C 
BRANCH  10  11
ATOM     11  C   UNL     1       5.810 -10.356  -3.517  0.00  0.00    -0.028 A 
ATOM     12  C   UNL     1       6.330  -9.696  -4.641  0.00  0.00    +0.005 A 
ATOM     13  C   UNL     1       5.107 -11.556  -3.706  0.00  0.00    +0.005 A 
ATOM     14  C   UNL     1       6.172 -10.239  -5.918  0.00  0.00    +0.000 A 
ATOM     15  C   UNL     1       4.951 -12.094  -4.984  0.00  0.00    +0.000 A 
ATOM     16  C   UNL     1       5.486 -11.436  -6.089  0.00  0.00    +0.000 A 
ENDBRANCH  10  11
ENDBRANCH   1  10
TORSDOF 2
ENDMDL
MODEL 8
REMARK VINA RESULT:    -3.824     46.125     47.889
REMARK INTER + INTRA:          -4.374
REMARK INTER:                  -4.225
REMARK INTRA:                  -0.149
REMARK UNBOUND:                -0.103
REMARK  Name = 1550473
REMARK  2 active torsions:
REMARK  status: ('A' for Active; 'I' for Inactive)
REMARK    1  A    between atoms: N_1  and  C_4
REMARK    2  A    between atoms: C_4  and  C_5
REMARK                            x       y       z     vdW  Elec       q    Type
REMARK                         _______ _______ _______ _____ _____    ______ ____
ROOT
ATOM      1  N   UNL     1      17.938  32.395  19.511  0.00  0.00    -0.354 N 
ATOM      2  N   UNL     1      17.978  34.450  18.443  0.00  0.00    -0.372 N 
ATOM      3  N   UNL     1      18.025  34.391  20.737  0.00  0.00    -0.372 N 
ATOM      4  C   UNL     1      17.980  33.733  19.573  0.00  0.00    +0.166 C 
ATOM      5  H   UNL     1      17.875  31.957  18.599  0.00  0.00    +0.163 HD
ATOM      6  H   UNL     1      18.013  35.460  18.459  0.00  0.00    +0.159 HD
ATOM      7  H   UNL     1      17.961  34.008  17.532  0.00  0.00    +0.159 HD
ATOM      8  H   UNL     1      18.023  33.908  21.625  0.00  0.00    +0.159 HD
ATOM      9  H   UNL     1      18.048  35.402  20.773  0.00  0.00    +0.159 HD
ENDROOT
BRANCH   1  10
ATOM     10  C   UNL     1      17.990  31.520  20.681  0.00  0.00    +0.151 C 
BRANCH  10  11
ATOM     11  C   UNL     1      16.724  30.711  20.746  0.00  0.00    -0.028 A 
ATOM     12  C   UNL     1      16.588  29.539  19.988  0.00  0.00    +0.005 A 
ATOM     13  C   UNL     1      15.659  31.108  21.569  0.00  0.00    +0.005 A 
ATOM     14  C   UNL     1      15.424  28.771  20.071  0.00  0.00    +0.000 A 
ATOM     15  C   UNL     1      14.498  30.339  21.648  0.00  0.00    +0.000 A 
ATOM     16  C   UNL     1      14.382  29.170  20.901  0.00  0.00    +0.000 A 
ENDBRANCH  10  11
ENDBRANCH   1  10
TORSDOF 2
ENDMDL
MODEL 9
REMARK VINA RESULT:    -3.749     15.509     16.302
REMARK INTER + INTRA:          -4.291
REMARK INTER:                  -4.116
REMARK INTRA:                  -0.175
REMARK UNBOUND:                -0.103
REMARK  Name = 1550473
REMARK  2 active torsions:
REMARK  status: ('A' for Active; 'I' for Inactive)
REMARK    1  A    between atoms: N_1  and  C_4
REMARK    2  A    between atoms: C_4  and  C_5
REMARK                            x       y       z     vdW  Elec       q    Type
REMARK                         _______ _______ _______ _____ _____    ______ ____
ROOT
ATOM      1  N   UNL     1      -8.305 -11.645  -4.160  0.00  0.00    -0.354 N 
ATOM      2  N   UNL     1      -8.601 -13.578  -2.919  0.00  0.00    -0.372 N 
ATOM      3  N   UNL     1      -7.901 -13.755  -5.097  0.00  0.00    -0.372 N 
ATOM      4  C   UNL     1      -8.267 -12.981  -4.069  0.00  0.00    +0.166 C 
ATOM      5  H   UNL     1      -8.620 -11.116  -3.355  0.00  0.00    +0.163 HD
ATOM      6  H   UNL     1      -8.578 -14.584  -2.819  0.00  0.00    +0.159 HD
ATOM      7  H   UNL     1      -8.871 -13.045  -2.101  0.00  0.00    +0.159 HD
ATOM      8  H   UNL     1      -7.643 -13.367  -5.994  0.00  0.00    +0.159 HD
ATOM      9  H   UNL     1      -7.883 -14.764  -5.020  0.00  0.00    +0.159 HD
ENDROOT
BRANCH   1  10
ATOM     10  C   UNL     1      -7.909 -10.895  -5.351  0.00  0.00    +0.151 C 
BRANCH  10  11
ATOM     11  C   UNL     1      -9.136 -10.569  -6.157  0.00  0.00    -0.028 A 
ATOM     12  C   UNL     1      -9.390 -11.231  -7.367  0.00  0.00    +0.005 A 
ATOM     13  C   UNL     1     -10.052  -9.603  -5.713  0.00  0.00    +0.005 A 
ATOM     14  C   UNL     1     -10.545 -10.951  -8.101  0.00  0.00    +0.000 A 
ATOM     15  C   UNL     1     -11.204  -9.325  -6.449  0.00  0.00    +0.000 A 
ATOM     16  C   UNL     1     -11.451 -10.000  -7.642  0.00  0.00    +0.000 A 
ENDBRANCH  10  11
ENDBRANCH   1  10
TORSDOF 2
ENDMDL
