MODEL 1
REMARK VINA RESULT:    -4.692      0.000      0.000
REMARK INTER + INTRA:          -5.410
REMARK INTER:                  -5.240
REMARK INTRA:                  -0.169
REMARK UNBOUND:                -0.169
REMARK  Name = 1550473
REMARK  2 active torsions:
REMARK  status: ('A' for Active; 'I' for Inactive)
REMARK    1  A    between atoms: N_1  and  C_4
REMARK    2  A    between atoms: C_4  and  C_5
REMARK                            x       y       z     vdW  Elec       q    Type
REMARK                         _______ _______ _______ _____ _____    ______ ____
ROOT
ATOM      1  N   UNL     1      -6.679 -13.361   0.427  0.00  0.00    -0.354 N 
ATOM      2  N   UNL     1      -7.271 -15.508   1.062  0.00  0.00    -0.372 N 
ATOM      3  N   UNL     1      -8.927 -13.958   0.713  0.00  0.00    -0.372 N 
ATOM      4  C   UNL     1      -7.624 -14.260   0.730  0.00  0.00    +0.166 C 
ATOM      5  H   UNL     1      -5.708 -13.644   0.488  0.00  0.00    +0.163 HD
ATOM      6  H   UNL     1      -7.963 -16.209   1.292  0.00  0.00    +0.159 HD
ATOM      7  H   UNL     1      -6.302 -15.801   1.077  0.00  0.00    +0.159 HD
ATOM      8  H   UNL     1      -9.259 -13.032   0.477  0.00  0.00    +0.159 HD
ATOM      9  H   UNL     1      -9.633 -14.643   0.952  0.00  0.00    +0.159 HD
ENDROOT
BRANCH   1  10
ATOM     10  C   UNL     1      -6.960 -11.991   0.001  0.00  0.00    +0.151 C 
BRANCH  10  11
ATOM     11  C   UNL     1      -6.485 -11.039   1.063  0.00  0.00    -0.028 A 
ATOM     12  C   UNL     1      -5.239 -10.407   0.948  0.00  0.00    +0.005 A 
ATOM     13  C   UNL     1      -7.281 -10.760   2.186  0.00  0.00    +0.005 A 
ATOM     14  C   UNL     1      -4.811  -9.499   1.920  0.00  0.00    +0.000 A 
ATOM     15  C   UNL     1      -6.849  -9.853   3.154  0.00  0.00    +0.000 A 
ATOM     16  C   UNL     1      -5.615  -9.222   3.020  0.00  0.00    +0.000 A 
ENDBRANCH  10  11
ENDBRANCH   1  10
TORSDOF 2
ENDMDL
MODEL 2
REMARK VINA RESULT:    -4.658     17.390     18.165
REMARK INTER + INTRA:          -5.372
REMARK INTER:                  -5.268
REMARK INTRA:                  -0.104
REMARK UNBOUND:                -0.169
REMARK  Name = 1550473
REMARK  2 active torsions:
REMARK  status: ('A' for Active; 'I' for Inactive)
REMARK    1  A    between atoms: N_1  and  C_4
REMARK    2  A    between atoms: C_4  and  C_5
REMARK                            x       y       z     vdW  Elec       q    Type
REMARK                         _______ _______ _______ _____ _____    ______ ____
ROOT
ATOM      1  N   UNL     1      -4.048   1.041 -11.141  0.00  0.00    -0.354 N 
ATOM      2  N   UNL     1      -5.250  -0.855 -11.710  0.00  0.00    -0.372 N 
ATOM      3  N   UNL     1      -2.963  -0.895 -11.892  0.00  0.00    -0.372 N 
ATOM      4  C   UNL     1      -4.077  -0.225 -11.578  0.00  0.00    +0.166 C 
ATOM      5  H   UNL     1      -4.929   1.504 -10.949  0.00  0.00    +0.163 HD
ATOM      6  H   UNL     1      -5.303  -1.811 -12.035  0.00  0.00    +0.159 HD
ATOM      7  H   UNL     1      -6.126  -0.405 -11.474  0.00  0.00    +0.159 HD
ATOM      8  H   UNL     1      -2.046  -0.475 -11.820  0.00  0.00    +0.159 HD
ATOM      9  H   UNL     1      -2.996  -1.849 -12.230  0.00  0.00    +0.159 HD
ENDROOT
BRANCH   1  10
ATOM     10  C   UNL     1      -2.820   1.799 -10.911  0.00  0.00    +0.151 C 
BRANCH  10  11
ATOM     11  C   UNL     1      -2.995   2.660  -9.691  0.00  0.00    -0.028 A 
ATOM     12  C   UNL     1      -2.436   2.276  -8.463  0.00  0.00    +0.005 A 
ATOM     13  C   UNL     1      -3.713   3.864  -9.757  0.00  0.00    +0.005 A 
ATOM     14  C   UNL     1      -2.573   3.090  -7.336  0.00  0.00    +0.000 A 
ATOM     15  C   UNL     1      -3.848   4.673  -8.629  0.00  0.00    +0.000 A 
ATOM     16  C   UNL     1      -3.276   4.287  -7.419  0.00  0.00    +0.000 A 
ENDBRANCH  10  11
ENDBRANCH   1  10
TORSDOF 2
ENDMDL
MODEL 3
REMARK VINA RESULT:    -4.634     15.897     17.065
REMARK INTER + INTRA:          -5.345
REMARK INTER:                  -5.220
REMARK INTRA:                  -0.125
REMARK UNBOUND:                -0.169
REMARK  Name = 1550473
REMARK  2 active torsions:
REMARK  status: ('A' for Active; 'I' for Inactive)
REMARK    1  A    between atoms: N_1  and  C_4
REMARK    2  A    between atoms: C_4  and  C_5
REMARK                            x       y       z     vdW  Elec       q    Type
REMARK                         _______ _______ _______ _____ _____    ______ ____
ROOT
ATOM      1  N   UNL     1       2.393 -19.933 -12.125  0.00  0.00    -0.354 N 
ATOM      2  N   UNL     1       2.278 -20.759 -14.286  0.00  0.00    -0.372 N 
ATOM      3  N   UNL     1       4.321 -20.653 -13.245  0.00  0.00    -0.372 N 
ATOM      4  C   UNL     1       3.001 -20.443 -13.204  0.00  0.00    +0.166 C 
ATOM      5  H   UNL     1       1.393 -19.770 -12.168  0.00  0.00    +0.163 HD
ATOM      6  H   UNL     1       2.709 -21.148 -15.114  0.00  0.00    +0.159 HD
ATOM      7  H   UNL     1       1.273 -20.637 -14.309  0.00  0.00    +0.159 HD
ATOM      8  H   UNL     1       4.923 -20.431 -12.464  0.00  0.00    +0.159 HD
ATOM      9  H   UNL     1       4.772 -21.031 -14.069  0.00  0.00    +0.159 HD
ENDROOT
BRANCH   1  10
ATOM     10  C   UNL     1       3.080 -19.607 -10.877  0.00  0.00    +0.151 C 
BRANCH  10  11
ATOM     11  C   UNL     1       2.063 -19.467  -9.778  0.00  0.00    -0.028 A 
ATOM     12  C   UNL     1       2.464 -19.136  -8.475  0.00  0.00    +0.005 A 
ATOM     13  C   UNL     1       0.697 -19.660 -10.034  0.00  0.00    +0.005 A 
ATOM     14  C   UNL     1       1.517 -18.977  -7.460  0.00  0.00    +0.000 A 
ATOM     15  C   UNL     1      -0.245 -19.501  -9.018  0.00  0.00    +0.000 A 
ATOM     16  C   UNL     1       0.165 -19.157  -7.732  0.00  0.00    +0.000 A 
ENDBRANCH  10  11
ENDBRANCH   1  10
TORSDOF 2
ENDMDL
MODEL 4
REMARK VINA RESULT:    -4.556     16.857     17.814
REMARK INTER + INTRA:          -5.258
REMARK INTER:                  -5.145
REMARK INTRA:                  -0.113
REMARK UNBOUND:                -0.169
REMARK  Name = 1550473
REMARK  2 active torsions:
REMARK  status: ('A' for Active; 'I' for Inactive)
REMARK    1  A    between atoms: N_1  and  C_4
REMARK    2  A    between atoms: C_4  and  C_5
REMARK                            x       y       z     vdW  Elec       q    Type
REMARK                         _______ _______ _______ _____ _____    ______ ____
ROOT
ATOM      1  N   UNL     1      -3.908  -0.522 -11.555  0.00  0.00    -0.354 N 
ATOM      2  N   UNL     1      -5.367  -2.125 -12.370  0.00  0.00    -0.372 N 
ATOM      3  N   UNL     1      -4.531  -0.550 -13.814  0.00  0.00    -0.372 N 
ATOM      4  C   UNL     1      -4.592  -1.054 -12.577  0.00  0.00    +0.166 C 
ATOM      5  H   UNL     1      -4.021  -0.931 -10.635  0.00  0.00    +0.163 HD
ATOM      6  H   UNL     1      -5.892  -2.550 -13.122  0.00  0.00    +0.159 HD
ATOM      7  H   UNL     1      -5.442  -2.560 -11.459  0.00  0.00    +0.159 HD
ATOM      8  H   UNL     1      -3.969   0.261 -14.035  0.00  0.00    +0.159 HD
ATOM      9  H   UNL     1      -5.058  -0.955 -14.578  0.00  0.00    +0.159 HD
ENDROOT
BRANCH   1  10
ATOM     10  C   UNL     1      -2.994   0.612 -11.685  0.00  0.00    +0.151 C 
BRANCH  10  11
ATOM     11  C   UNL     1      -3.018   1.410 -10.411  0.00  0.00    -0.028 A 
ATOM     12  C   UNL     1      -3.066   2.812 -10.450  0.00  0.00    +0.005 A 
ATOM     13  C   UNL     1      -2.998   0.771  -9.162  0.00  0.00    +0.005 A 
ATOM     14  C   UNL     1      -3.118   3.553  -9.266  0.00  0.00    +0.000 A 
ATOM     15  C   UNL     1      -3.049   1.515  -7.983  0.00  0.00    +0.000 A 
ATOM     16  C   UNL     1      -3.112   2.905  -8.036  0.00  0.00    +0.000 A 
ENDBRANCH  10  11
ENDBRANCH   1  10
TORSDOF 2
ENDMDL
MODEL 5
REMARK VINA RESULT:    -4.541     13.518     14.580
REMARK INTER + INTRA:          -5.242
REMARK INTER:                  -5.087
REMARK INTRA:                  -0.155
REMARK UNBOUND:                -0.169
REMARK  Name = 1550473
REMARK  2 active torsions:
REMARK  status: ('A' for Active; 'I' for Inactive)
REMARK    1  A    between atoms: N_1  and  C_4
REMARK    2  A    between atoms: C_4  and  C_5
REMARK                            x       y       z     vdW  Elec       q    Type
REMARK                         _______ _______ _______ _____ _____    ______ ____
ROOT
ATOM      1  N   UNL     1       6.119  -8.520   4.977  0.00  0.00    -0.354 N 
ATOM      2  N   UNL     1       4.287  -7.359   5.787  0.00  0.00    -0.372 N 
ATOM      3  N   UNL     1       5.930  -8.000   7.254  0.00  0.00    -0.372 N 
ATOM      4  C   UNL     1       5.459  -7.968   6.003  0.00  0.00    +0.166 C 
ATOM      5  H   UNL     1       5.694  -8.488   4.058  0.00  0.00    +0.163 HD
ATOM      6  H   UNL     1       3.767  -6.930   6.541  0.00  0.00    +0.159 HD
ATOM      7  H   UNL     1       3.886  -7.288   4.860  0.00  0.00    +0.159 HD
ATOM      8  H   UNL     1       6.806  -8.450   7.485  0.00  0.00    +0.159 HD
ATOM      9  H   UNL     1       5.419  -7.587   8.024  0.00  0.00    +0.159 HD
ENDROOT
BRANCH   1  10
ATOM     10  C   UNL     1       7.428  -9.160   5.097  0.00  0.00    +0.151 C 
BRANCH  10  11
ATOM     11  C   UNL     1       7.275 -10.638   4.865  0.00  0.00    -0.028 A 
ATOM     12  C   UNL     1       7.819 -11.240   3.721  0.00  0.00    +0.005 A 
ATOM     13  C   UNL     1       6.593 -11.444   5.790  0.00  0.00    +0.005 A 
ATOM     14  C   UNL     1       7.703 -12.617   3.520  0.00  0.00    +0.000 A 
ATOM     15  C   UNL     1       6.479 -12.819   5.586  0.00  0.00    +0.000 A 
ATOM     16  C   UNL     1       7.036 -13.405   4.452  0.00  0.00    +0.000 A 
ENDBRANCH  10  11
ENDBRANCH   1  10
TORSDOF 2
ENDMDL
MODEL 6
REMARK VINA RESULT:    -4.496     16.519     17.461
REMARK INTER + INTRA:          -5.191
REMARK INTER:                  -5.054
REMARK INTRA:                  -0.137
REMARK UNBOUND:                -0.169
REMARK  Name = 1550473
REMARK  2 active torsions:
REMARK  status: ('A' for Active; 'I' for Inactive)
REMARK    1  A    between atoms: N_1  and  C_4
REMARK    2  A    between atoms: C_4  and  C_5
REMARK                            x       y       z     vdW  Elec       q    Type
REMARK                         _______ _______ _______ _____ _____    ______ ____
ROOT
ATOM      1  N   UNL     1      -5.579  -0.582 -11.029  0.00  0.00    -0.354 N 
ATOM      2  N   UNL     1      -5.357  -2.371 -12.483  0.00  0.00    -0.372 N 
ATOM      3  N   UNL     1      -5.767  -0.285 -13.346  0.00  0.00    -0.372 N 
ATOM      4  C   UNL     1      -5.570  -1.065 -12.278  0.00  0.00    +0.166 C 
ATOM      5  H   UNL     1      -5.453  -1.231 -10.261  0.00  0.00    +0.163 HD
ATOM      6  H   UNL     1      -5.341  -2.764 -13.414  0.00  0.00    +0.159 HD
ATOM      7  H   UNL     1      -5.186  -3.010 -11.716  0.00  0.00    +0.159 HD
ATOM      8  H   UNL     1      -5.939   0.708 -13.259  0.00  0.00    +0.159 HD
ATOM      9  H   UNL     1      -5.767  -0.662 -14.285  0.00  0.00    +0.159 HD
ENDROOT
BRANCH   1  10
ATOM     10  C   UNL     1      -5.748   0.833 -10.701  0.00  0.00    +0.151 C 
BRANCH  10  11
ATOM     11  C   UNL     1      -4.537   1.311  -9.950  0.00  0.00    -0.028 A 
ATOM     12  C   UNL     1      -4.122   0.661  -8.779  0.00  0.00    +0.005 A 
ATOM     13  C   UNL     1      -3.795   2.411 -10.408  0.00  0.00    +0.005 A 
ATOM     14  C   UNL     1      -2.979   1.086  -8.098  0.00  0.00    +0.000 A 
ATOM     15  C   UNL     1      -2.655   2.833  -9.725  0.00  0.00    +0.000 A 
ATOM     16  C   UNL     1      -2.246   2.169  -8.571  0.00  0.00    +0.000 A 
ENDBRANCH  10  11
ENDBRANCH   1  10
TORSDOF 2
ENDMDL
MODEL 7
REMARK VINA RESULT:    -4.486     23.383     24.602
REMARK INTER + INTRA:          -5.180
REMARK INTER:                  -5.050
REMARK INTRA:                  -0.130
REMARK UNBOUND:                -0.169
REMARK  Name = 1550473
REMARK  2 active torsions:
REMARK  status: ('A' for Active; 'I' for Inactive)
REMARK    1  A    between atoms: N_1  and  C_4
REMARK    2  A    between atoms: C_4  and  C_5
REMARK                            x       y       z     vdW  Elec       q    Type
REMARK                         _______ _______ _______ _____ _____    ______ ____
ROOT
ATOM      1  N   UNL     1       9.070 -12.083 -16.579  0.00  0.00    -0.354 N 
ATOM      2  N   UNL     1       8.398 -10.067 -15.657  0.00  0.00    -0.372 N 
ATOM      3  N   UNL     1       6.827 -11.408 -16.658  0.00  0.00    -0.372 N 
ATOM      4  C   UNL     1       8.100 -11.200 -16.305  0.00  0.00    +0.166 C 
ATOM      5  H   UNL     1      10.020 -11.852 -16.312  0.00  0.00    +0.163 HD
ATOM      6  H   UNL     1       7.686  -9.384 -15.434  0.00  0.00    +0.159 HD
ATOM      7  H   UNL     1       9.340  -9.861 -15.350  0.00  0.00    +0.159 HD
ATOM      8  H   UNL     1       6.538 -12.240 -17.155  0.00  0.00    +0.159 HD
ATOM      9  H   UNL     1       6.103 -10.731 -16.454  0.00  0.00    +0.159 HD
ENDROOT
BRANCH   1  10
ATOM     10  C   UNL     1       8.843 -13.371 -17.233  0.00  0.00    +0.151 C 
BRANCH  10  11
ATOM     11  C   UNL     1       9.863 -14.359 -16.738  0.00  0.00    -0.028 A 
ATOM     12  C   UNL     1       9.792 -15.707 -17.120  0.00  0.00    +0.005 A 
ATOM     13  C   UNL     1      10.906 -13.953 -15.891  0.00  0.00    +0.005 A 
ATOM     14  C   UNL     1      10.756 -16.619 -16.685  0.00  0.00    +0.000 A 
ATOM     15  C   UNL     1      11.866 -14.868 -15.458  0.00  0.00    +0.000 A 
ATOM     16  C   UNL     1      11.792 -16.200 -15.857  0.00  0.00    +0.000 A 
ENDBRANCH  10  11
ENDBRANCH   1  10
TORSDOF 2
ENDMDL
MODEL 8
REMARK VINA RESULT:    -4.314     17.455     18.032
REMARK INTER + INTRA:          -4.987
REMARK INTER:                  -4.867
REMARK INTRA:                  -0.121
REMARK UNBOUND:                -0.169
REMARK  Name = 1550473
REMARK  2 active torsions:
REMARK  status: ('A' for Active; 'I' for Inactive)
REMARK    1  A    between atoms: N_1  and  C_4
REMARK    2  A    between atoms: C_4  and  C_5
REMARK                            x       y       z     vdW  Elec       q    Type
REMARK                         _______ _______ _______ _____ _____    ______ ____
ROOT
ATOM      1  N   UNL     1      -3.208   0.874 -11.550  0.00  0.00    -0.354 N 
ATOM      2  N   UNL     1      -2.062  -0.305 -13.182  0.00  0.00    -0.372 N 
ATOM      3  N   UNL     1      -3.886  -1.277 -12.185  0.00  0.00    -0.372 N 
ATOM      4  C   UNL     1      -3.061  -0.230 -12.294  0.00  0.00    +0.166 C 
ATOM      5  H   UNL     1      -2.531   1.621 -11.659  0.00  0.00    +0.163 HD
ATOM      6  H   UNL     1      -1.929  -1.124 -13.760  0.00  0.00    +0.159 HD
ATOM      7  H   UNL     1      -1.415   0.462 -13.321  0.00  0.00    +0.159 HD
ATOM      8  H   UNL     1      -4.656  -1.286 -11.529  0.00  0.00    +0.159 HD
ATOM      9  H   UNL     1      -3.762  -2.111 -12.746  0.00  0.00    +0.159 HD
ENDROOT
BRANCH   1  10
ATOM     10  C   UNL     1      -4.294   1.078 -10.593  0.00  0.00    +0.151 C 
BRANCH  10  11
ATOM     11  C   UNL     1      -3.814   1.981  -9.490  0.00  0.00    -0.028 A 
ATOM     12  C   UNL     1      -4.586   3.079  -9.084  0.00  0.00    +0.005 A 
ATOM     13  C   UNL     1      -2.592   1.739  -8.844  0.00  0.00    +0.005 A 
ATOM     14  C   UNL     1      -4.155   3.901  -8.039  0.00  0.00    +0.000 A 
ATOM     15  C   UNL     1      -2.165   2.563  -7.802  0.00  0.00    +0.000 A 
ATOM     16  C   UNL     1      -2.948   3.641  -7.398  0.00  0.00    +0.000 A 
ENDBRANCH  10  11
ENDBRANCH   1  10
TORSDOF 2
ENDMDL
MODEL 9
REMARK VINA RESULT:    -4.289     14.889     15.743
REMARK INTER + INTRA:          -4.959
REMARK INTER:                  -4.848
REMARK INTRA:                  -0.112
REMARK UNBOUND:                -0.169
REMARK  Name = 1550473
REMARK  2 active torsions:
REMARK  status: ('A' for Active; 'I' for Inactive)
REMARK    1  A    between atoms: N_1  and  C_4
REMARK    2  A    between atoms: C_4  and  C_5
REMARK                            x       y       z     vdW  Elec       q    Type
REMARK                         _______ _______ _______ _____ _____    ______ ____
ROOT
ATOM      1  N   UNL     1       8.048 -14.549  -3.992  0.00  0.00    -0.354 N 
ATOM      2  N   UNL     1       9.618 -14.128  -5.641  0.00  0.00    -0.372 N 
ATOM      3  N   UNL     1       8.933 -12.400  -4.295  0.00  0.00    -0.372 N 
ATOM      4  C   UNL     1       8.856 -13.692  -4.631  0.00  0.00    +0.166 C 
ATOM      5  H   UNL     1       8.012 -15.509  -4.314  0.00  0.00    +0.163 HD
ATOM      6  H   UNL     1      10.241 -13.506  -6.139  0.00  0.00    +0.159 HD
ATOM      7  H   UNL     1       9.615 -15.098  -5.931  0.00  0.00    +0.159 HD
ATOM      8  H   UNL     1       8.379 -12.008  -3.546  0.00  0.00    +0.159 HD
ATOM      9  H   UNL     1       9.541 -11.760  -4.790  0.00  0.00    +0.159 HD
ENDROOT
BRANCH   1  10
ATOM     10  C   UNL     1       7.217 -14.188  -2.845  0.00  0.00    +0.151 C 
BRANCH  10  11
ATOM     11  C   UNL     1       6.853 -15.436  -2.089  0.00  0.00    -0.028 A 
ATOM     12  C   UNL     1       6.538 -16.618  -2.777  0.00  0.00    +0.005 A 
ATOM     13  C   UNL     1       6.826 -15.446  -0.686  0.00  0.00    +0.005 A 
ATOM     14  C   UNL     1       6.229 -17.786  -2.075  0.00  0.00    +0.000 A 
ATOM     15  C   UNL     1       6.516 -16.614   0.010  0.00  0.00    +0.000 A 
ATOM     16  C   UNL     1       6.220 -17.784  -0.684  0.00  0.00    +0.000 A 
ENDBRANCH  10  11
ENDBRANCH   1  10
TORSDOF 2
ENDMDL
