MODEL 1
REMARK VINA RESULT:    -6.164      0.000      0.000
REMARK INTER + INTRA:          -7.004
REMARK INTER:                  -6.884
REMARK INTRA:                  -0.120
REMARK UNBOUND:                -0.120
REMARK  Name = 1550473
REMARK  2 active torsions:
REMARK  status: ('A' for Active; 'I' for Inactive)
REMARK    1  A    between atoms: N_1  and  C_4
REMARK    2  A    between atoms: C_4  and  C_5
REMARK                            x       y       z     vdW  Elec       q    Type
REMARK                         _______ _______ _______ _____ _____    ______ ____
ROOT
ATOM      1  N   UNL     1      12.713  -6.738  -5.173  0.00  0.00    -0.354 N 
ATOM      2  N   UNL     1      13.585  -7.808  -3.313  0.00  0.00    -0.372 N 
ATOM      3  N   UNL     1      11.367  -7.219  -3.316  0.00  0.00    -0.372 N 
ATOM      4  C   UNL     1      12.546  -7.247  -3.945  0.00  0.00    +0.166 C 
ATOM      5  H   UNL     1      13.639  -6.763  -5.583  0.00  0.00    +0.163 HD
ATOM      6  H   UNL     1      13.489  -8.203  -2.387  0.00  0.00    +0.159 HD
ATOM      7  H   UNL     1      14.499  -7.873  -3.744  0.00  0.00    +0.159 HD
ATOM      8  H   UNL     1      10.545  -6.805  -3.736  0.00  0.00    +0.159 HD
ATOM      9  H   UNL     1      11.254  -7.600  -2.384  0.00  0.00    +0.159 HD
ENDROOT
BRANCH   1  10
ATOM     10  C   UNL     1      11.635  -6.154  -5.969  0.00  0.00    +0.151 C 
BRANCH  10  11
ATOM     11  C   UNL     1      12.168  -4.969  -6.724  0.00  0.00    -0.028 A 
ATOM     12  C   UNL     1      13.455  -4.999  -7.281  0.00  0.00    +0.005 A 
ATOM     13  C   UNL     1      11.390  -3.813  -6.892  0.00  0.00    +0.005 A 
ATOM     14  C   UNL     1      13.940  -3.910  -8.008  0.00  0.00    +0.000 A 
ATOM     15  C   UNL     1      11.878  -2.727  -7.619  0.00  0.00    +0.000 A 
ATOM     16  C   UNL     1      13.152  -2.777  -8.179  0.00  0.00    +0.000 A 
ENDBRANCH  10  11
ENDBRANCH   1  10
TORSDOF 2
ENDMDL
MODEL 2
REMARK VINA RESULT:    -5.589      1.089      1.954
REMARK INTER + INTRA:          -6.363
REMARK INTER:                  -6.245
REMARK INTRA:                  -0.118
REMARK UNBOUND:                -0.120
REMARK  Name = 1550473
REMARK  2 active torsions:
REMARK  status: ('A' for Active; 'I' for Inactive)
REMARK    1  A    between atoms: N_1  and  C_4
REMARK    2  A    between atoms: C_4  and  C_5
REMARK                            x       y       z     vdW  Elec       q    Type
REMARK                         _______ _______ _______ _____ _____    ______ ____
ROOT
ATOM      1  N   UNL     1      12.371  -7.468  -5.475  0.00  0.00    -0.354 N 
ATOM      2  N   UNL     1      10.620  -8.701  -4.593  0.00  0.00    -0.372 N 
ATOM      3  N   UNL     1      11.763  -7.260  -3.221  0.00  0.00    -0.372 N 
ATOM      4  C   UNL     1      11.597  -7.801  -4.433  0.00  0.00    +0.166 C 
ATOM      5  H   UNL     1      12.213  -7.936  -6.360  0.00  0.00    +0.163 HD
ATOM      6  H   UNL     1      10.017  -8.969  -3.826  0.00  0.00    +0.159 HD
ATOM      7  H   UNL     1      10.435  -9.133  -5.490  0.00  0.00    +0.159 HD
ATOM      8  H   UNL     1      12.486  -6.579  -3.033  0.00  0.00    +0.159 HD
ATOM      9  H   UNL     1      11.178  -7.525  -2.438  0.00  0.00    +0.159 HD
ENDROOT
BRANCH   1  10
ATOM     10  C   UNL     1      13.427  -6.459  -5.419  0.00  0.00    +0.151 C 
BRANCH  10  11
ATOM     11  C   UNL     1      13.085  -5.338  -6.361  0.00  0.00    -0.028 A 
ATOM     12  C   UNL     1      11.771  -4.855  -6.445  0.00  0.00    +0.005 A 
ATOM     13  C   UNL     1      14.072  -4.750  -7.167  0.00  0.00    +0.005 A 
ATOM     14  C   UNL     1      11.459  -3.793  -7.298  0.00  0.00    +0.000 A 
ATOM     15  C   UNL     1      13.756  -3.690  -8.018  0.00  0.00    +0.000 A 
ATOM     16  C   UNL     1      12.450  -3.211  -8.081  0.00  0.00    +0.000 A 
ENDBRANCH  10  11
ENDBRANCH   1  10
TORSDOF 2
ENDMDL
MODEL 3
REMARK VINA RESULT:    -5.244     18.615     19.206
REMARK INTER + INTRA:          -5.976
REMARK INTER:                  -5.862
REMARK INTRA:                  -0.114
REMARK UNBOUND:                -0.120
REMARK  Name = 1550473
REMARK  2 active torsions:
REMARK  status: ('A' for Active; 'I' for Inactive)
REMARK    1  A    between atoms: N_1  and  C_4
REMARK    2  A    between atoms: C_4  and  C_5
REMARK                            x       y       z     vdW  Elec       q    Type
REMARK                         _______ _______ _______ _____ _____    ______ ____
ROOT
ATOM      1  N   UNL     1      -5.494  -0.204  -2.121  0.00  0.00    -0.354 N 
ATOM      2  N   UNL     1      -6.012   0.136  -4.353  0.00  0.00    -0.372 N 
ATOM      3  N   UNL     1      -6.861  -1.710  -3.286  0.00  0.00    -0.372 N 
ATOM      4  C   UNL     1      -6.120  -0.597  -3.238  0.00  0.00    +0.166 C 
ATOM      5  H   UNL     1      -4.923   0.633  -2.159  0.00  0.00    +0.163 HD
ATOM      6  H   UNL     1      -6.476  -0.134  -5.210  0.00  0.00    +0.159 HD
ATOM      7  H   UNL     1      -5.478   0.996  -4.375  0.00  0.00    +0.159 HD
ATOM      8  H   UNL     1      -6.978  -2.310  -2.480  0.00  0.00    +0.159 HD
ATOM      9  H   UNL     1      -7.323  -2.003  -4.137  0.00  0.00    +0.159 HD
ENDROOT
BRANCH   1  10
ATOM     10  C   UNL     1      -5.591  -0.902  -0.840  0.00  0.00    +0.151 C 
BRANCH  10  11
ATOM     11  C   UNL     1      -4.555  -0.350   0.100  0.00  0.00    -0.028 A 
ATOM     12  C   UNL     1      -3.957  -1.174   1.063  0.00  0.00    +0.005 A 
ATOM     13  C   UNL     1      -4.163   0.996   0.028  0.00  0.00    +0.005 A 
ATOM     14  C   UNL     1      -2.973  -0.670   1.917  0.00  0.00    +0.000 A 
ATOM     15  C   UNL     1      -3.181   1.496   0.882  0.00  0.00    +0.000 A 
ATOM     16  C   UNL     1      -2.584   0.663   1.825  0.00  0.00    +0.000 A 
ENDBRANCH  10  11
ENDBRANCH   1  10
TORSDOF 2
ENDMDL
MODEL 4
REMARK VINA RESULT:    -5.058      1.877      2.217
REMARK INTER + INTRA:          -5.769
REMARK INTER:                  -5.621
REMARK INTRA:                  -0.148
REMARK UNBOUND:                -0.120
REMARK  Name = 1550473
REMARK  2 active torsions:
REMARK  status: ('A' for Active; 'I' for Inactive)
REMARK    1  A    between atoms: N_1  and  C_4
REMARK    2  A    between atoms: C_4  and  C_5
REMARK                            x       y       z     vdW  Elec       q    Type
REMARK                         _______ _______ _______ _____ _____    ______ ____
ROOT
ATOM      1  N   UNL     1      12.278  -8.290  -4.355  0.00  0.00    -0.354 N 
ATOM      2  N   UNL     1      13.198 -10.385  -3.996  0.00  0.00    -0.372 N 
ATOM      3  N   UNL     1      11.330 -10.206  -5.316  0.00  0.00    -0.372 N 
ATOM      4  C   UNL     1      12.260  -9.614  -4.559  0.00  0.00    +0.166 C 
ATOM      5  H   UNL     1      12.992  -7.907  -3.746  0.00  0.00    +0.163 HD
ATOM      6  H   UNL     1      13.212 -11.386  -4.135  0.00  0.00    +0.159 HD
ATOM      7  H   UNL     1      13.937  -9.993  -3.425  0.00  0.00    +0.159 HD
ATOM      8  H   UNL     1      10.591  -9.681  -5.765  0.00  0.00    +0.159 HD
ATOM      9  H   UNL     1      11.321 -11.208  -5.458  0.00  0.00    +0.159 HD
ENDROOT
BRANCH   1  10
ATOM     10  C   UNL     1      11.334  -7.356  -4.966  0.00  0.00    +0.151 C 
BRANCH  10  11
ATOM     11  C   UNL     1      12.097  -6.361  -5.798  0.00  0.00    -0.028 A 
ATOM     12  C   UNL     1      13.490  -6.254  -5.679  0.00  0.00    +0.005 A 
ATOM     13  C   UNL     1      11.432  -5.528  -6.711  0.00  0.00    +0.005 A 
ATOM     14  C   UNL     1      14.202  -5.351  -6.473  0.00  0.00    +0.000 A 
ATOM     15  C   UNL     1      12.147  -4.628  -7.501  0.00  0.00    +0.000 A 
ATOM     16  C   UNL     1      13.532  -4.542  -7.384  0.00  0.00    +0.000 A 
ENDBRANCH  10  11
ENDBRANCH   1  10
TORSDOF 2
ENDMDL
MODEL 5
REMARK VINA RESULT:    -4.940     17.248     18.590
REMARK INTER + INTRA:          -5.637
REMARK INTER:                  -5.509
REMARK INTRA:                  -0.127
REMARK UNBOUND:                -0.120
REMARK  Name = 1550473
REMARK  2 active torsions:
REMARK  status: ('A' for Active; 'I' for Inactive)
REMARK    1  A    between atoms: N_1  and  C_4
REMARK    2  A    between atoms: C_4  and  C_5
REMARK                            x       y       z     vdW  Elec       q    Type
REMARK                         _______ _______ _______ _____ _____    ______ ____
ROOT
ATOM      1  N   UNL     1      -3.008  -9.980   2.142  0.00  0.00    -0.354 N 
ATOM      2  N   UNL     1      -2.324 -10.086   4.353  0.00  0.00    -0.372 N 
ATOM      3  N   UNL     1      -0.756  -9.691   2.724  0.00  0.00    -0.372 N 
ATOM      4  C   UNL     1      -2.031  -9.918   3.057  0.00  0.00    +0.166 C 
ATOM      5  H   UNL     1      -3.949 -10.185   2.457  0.00  0.00    +0.163 HD
ATOM      6  H   UNL     1      -1.608 -10.041   5.066  0.00  0.00    +0.159 HD
ATOM      7  H   UNL     1      -3.273 -10.245   4.668  0.00  0.00    +0.159 HD
ATOM      8  H   UNL     1      -0.468  -9.562   1.763  0.00  0.00    +0.159 HD
ATOM      9  H   UNL     1      -0.024  -9.654   3.423  0.00  0.00    +0.159 HD
ENDROOT
BRANCH   1  10
ATOM     10  C   UNL     1      -2.803  -9.758   0.712  0.00  0.00    +0.151 C 
BRANCH  10  11
ATOM     11  C   UNL     1      -3.815 -10.560  -0.059  0.00  0.00    -0.028 A 
ATOM     12  C   UNL     1      -4.291 -10.104  -1.297  0.00  0.00    +0.005 A 
ATOM     13  C   UNL     1      -4.299 -11.779   0.441  0.00  0.00    +0.005 A 
ATOM     14  C   UNL     1      -5.208 -10.863  -2.028  0.00  0.00    +0.000 A 
ATOM     15  C   UNL     1      -5.215 -12.533  -0.291  0.00  0.00    +0.000 A 
ATOM     16  C   UNL     1      -5.668 -12.076  -1.526  0.00  0.00    +0.000 A 
ENDBRANCH  10  11
ENDBRANCH   1  10
TORSDOF 2
ENDMDL
MODEL 6
REMARK VINA RESULT:    -4.646     20.878     22.150
REMARK INTER + INTRA:          -5.309
REMARK INTER:                  -5.198
REMARK INTRA:                  -0.111
REMARK UNBOUND:                -0.120
REMARK  Name = 1550473
REMARK  2 active torsions:
REMARK  status: ('A' for Active; 'I' for Inactive)
REMARK    1  A    between atoms: N_1  and  C_4
REMARK    2  A    between atoms: C_4  and  C_5
REMARK                            x       y       z     vdW  Elec       q    Type
REMARK                         _______ _______ _______ _____ _____    ______ ____
ROOT
ATOM      1  N   UNL     1      -5.339   2.072   1.034  0.00  0.00    -0.354 N 
ATOM      2  N   UNL     1      -4.954   0.059  -0.045  0.00  0.00    -0.372 N 
ATOM      3  N   UNL     1      -3.158   1.296   0.668  0.00  0.00    -0.372 N 
ATOM      4  C   UNL     1      -4.484   1.157   0.559  0.00  0.00    +0.166 C 
ATOM      5  H   UNL     1      -6.332   1.922   0.893  0.00  0.00    +0.163 HD
ATOM      6  H   UNL     1      -4.333  -0.651  -0.410  0.00  0.00    +0.159 HD
ATOM      7  H   UNL     1      -5.948  -0.110  -0.143  0.00  0.00    +0.159 HD
ATOM      8  H   UNL     1      -2.739   2.105   1.108  0.00  0.00    +0.159 HD
ATOM      9  H   UNL     1      -2.520   0.603   0.299  0.00  0.00    +0.159 HD
ENDROOT
BRANCH   1  10
ATOM     10  C   UNL     1      -4.931   3.276   1.755  0.00  0.00    +0.151 C 
BRANCH  10  11
ATOM     11  C   UNL     1      -5.939   3.568   2.833  0.00  0.00    -0.028 A 
ATOM     12  C   UNL     1      -5.909   2.865   4.046  0.00  0.00    +0.005 A 
ATOM     13  C   UNL     1      -6.923   4.552   2.649  0.00  0.00    +0.005 A 
ATOM     14  C   UNL     1      -6.826   3.157   5.058  0.00  0.00    +0.000 A 
ATOM     15  C   UNL     1      -7.837   4.840   3.662  0.00  0.00    +0.000 A 
ATOM     16  C   UNL     1      -7.787   4.144   4.867  0.00  0.00    +0.000 A 
ENDBRANCH  10  11
ENDBRANCH   1  10
TORSDOF 2
ENDMDL
MODEL 7
REMARK VINA RESULT:    -4.576     21.451     22.802
REMARK INTER + INTRA:          -5.230
REMARK INTER:                  -5.122
REMARK INTRA:                  -0.108
REMARK UNBOUND:                -0.120
REMARK  Name = 1550473
REMARK  2 active torsions:
REMARK  status: ('A' for Active; 'I' for Inactive)
REMARK    1  A    between atoms: N_1  and  C_4
REMARK    2  A    between atoms: C_4  and  C_5
REMARK                            x       y       z     vdW  Elec       q    Type
REMARK                         _______ _______ _______ _____ _____    ______ ____
ROOT
ATOM      1  N   UNL     1      -4.409  11.018  -2.689  0.00  0.00    -0.354 N 
ATOM      2  N   UNL     1      -5.648  10.335  -4.523  0.00  0.00    -0.372 N 
ATOM      3  N   UNL     1      -3.634  11.377  -4.871  0.00  0.00    -0.372 N 
ATOM      4  C   UNL     1      -4.553  10.916  -4.017  0.00  0.00    +0.166 C 
ATOM      5  H   UNL     1      -5.157  10.676  -2.096  0.00  0.00    +0.163 HD
ATOM      6  H   UNL     1      -5.783  10.240  -5.521  0.00  0.00    +0.159 HD
ATOM      7  H   UNL     1      -6.372   9.952  -3.927  0.00  0.00    +0.159 HD
ATOM      8  H   UNL     1      -2.788  11.831  -4.554  0.00  0.00    +0.159 HD
ATOM      9  H   UNL     1      -3.756  11.302  -5.874  0.00  0.00    +0.159 HD
ENDROOT
BRANCH   1  10
ATOM     10  C   UNL     1      -3.231  11.585  -2.036  0.00  0.00    +0.151 C 
BRANCH  10  11
ATOM     11  C   UNL     1      -2.522  10.500  -1.273  0.00  0.00    -0.028 A 
ATOM     12  C   UNL     1      -2.036  10.740   0.020  0.00  0.00    +0.005 A 
ATOM     13  C   UNL     1      -2.339   9.228  -1.837  0.00  0.00    +0.005 A 
ATOM     14  C   UNL     1      -1.405   9.723   0.741  0.00  0.00    +0.000 A 
ATOM     15  C   UNL     1      -1.707   8.215  -1.114  0.00  0.00    +0.000 A 
ATOM     16  C   UNL     1      -1.242   8.463   0.175  0.00  0.00    +0.000 A 
ENDBRANCH  10  11
ENDBRANCH   1  10
TORSDOF 2
ENDMDL
MODEL 8
REMARK VINA RESULT:    -4.564     14.246     16.151
REMARK INTER + INTRA:          -5.217
REMARK INTER:                  -5.093
REMARK INTRA:                  -0.124
REMARK UNBOUND:                -0.120
REMARK  Name = 1550473
REMARK  2 active torsions:
REMARK  status: ('A' for Active; 'I' for Inactive)
REMARK    1  A    between atoms: N_1  and  C_4
REMARK    2  A    between atoms: C_4  and  C_5
REMARK                            x       y       z     vdW  Elec       q    Type
REMARK                         _______ _______ _______ _____ _____    ______ ____
ROOT
ATOM      1  N   UNL     1      19.143   5.676 -12.226  0.00  0.00    -0.354 N 
ATOM      2  N   UNL     1      17.029   4.804 -12.595  0.00  0.00    -0.372 N 
ATOM      3  N   UNL     1      18.743   4.183 -13.987  0.00  0.00    -0.372 N 
ATOM      4  C   UNL     1      18.320   4.892 -12.936  0.00  0.00    +0.166 C 
ATOM      5  H   UNL     1      18.754   6.212 -11.459  0.00  0.00    +0.163 HD
ATOM      6  H   UNL     1      16.385   4.219 -13.109  0.00  0.00    +0.159 HD
ATOM      7  H   UNL     1      16.653   5.306 -11.799  0.00  0.00    +0.159 HD
ATOM      8  H   UNL     1      19.704   4.210 -14.300  0.00  0.00    +0.159 HD
ATOM      9  H   UNL     1      18.111   3.600 -14.522  0.00  0.00    +0.159 HD
ENDROOT
BRANCH   1  10
ATOM     10  C   UNL     1      20.577   5.800 -12.482  0.00  0.00    +0.151 C 
BRANCH  10  11
ATOM     11  C   UNL     1      20.969   7.249 -12.388  0.00  0.00    -0.028 A 
ATOM     12  C   UNL     1      20.637   8.145 -13.416  0.00  0.00    +0.005 A 
ATOM     13  C   UNL     1      21.667   7.734 -11.272  0.00  0.00    +0.005 A 
ATOM     14  C   UNL     1      20.975   9.496 -13.315  0.00  0.00    +0.000 A 
ATOM     15  C   UNL     1      22.003   9.084 -11.176  0.00  0.00    +0.000 A 
ATOM     16  C   UNL     1      21.655   9.965 -12.196  0.00  0.00    +0.000 A 
ENDBRANCH  10  11
ENDBRANCH   1  10
TORSDOF 2
ENDMDL
MODEL 9
REMARK VINA RESULT:    -4.561      9.405     10.035
REMARK INTER + INTRA:          -5.214
REMARK INTER:                  -5.033
REMARK INTRA:                  -0.181
REMARK UNBOUND:                -0.120
REMARK  Name = 1550473
REMARK  2 active torsions:
REMARK  status: ('A' for Active; 'I' for Inactive)
REMARK    1  A    between atoms: N_1  and  C_4
REMARK    2  A    between atoms: C_4  and  C_5
REMARK                            x       y       z     vdW  Elec       q    Type
REMARK                         _______ _______ _______ _____ _____    ______ ____
ROOT
ATOM      1  N   UNL     1      10.526 -10.656 -14.283  0.00  0.00    -0.354 N 
ATOM      2  N   UNL     1      11.789 -11.443 -12.508  0.00  0.00    -0.372 N 
ATOM      3  N   UNL     1      11.978  -9.238 -13.112  0.00  0.00    -0.372 N 
ATOM      4  C   UNL     1      11.424 -10.438 -13.313  0.00  0.00    +0.166 C 
ATOM      5  H   UNL     1      10.166 -11.596 -14.402  0.00  0.00    +0.163 HD
ATOM      6  H   UNL     1      12.461 -11.308 -11.765  0.00  0.00    +0.159 HD
ATOM      7  H   UNL     1      11.392 -12.371 -12.600  0.00  0.00    +0.159 HD
ATOM      8  H   UNL     1      11.750  -8.439 -13.689  0.00  0.00    +0.159 HD
ATOM      9  H   UNL     1      12.662  -9.085 -12.381  0.00  0.00    +0.159 HD
ENDROOT
BRANCH   1  10
ATOM     10  C   UNL     1      10.021  -9.617 -15.179  0.00  0.00    +0.151 C 
BRANCH  10  11
ATOM     11  C   UNL     1       8.682  -9.148 -14.681  0.00  0.00    -0.028 A 
ATOM     12  C   UNL     1       7.517  -9.867 -14.985  0.00  0.00    +0.005 A 
ATOM     13  C   UNL     1       8.573  -7.987 -13.899  0.00  0.00    +0.005 A 
ATOM     14  C   UNL     1       6.277  -9.448 -14.497  0.00  0.00    +0.000 A 
ATOM     15  C   UNL     1       7.332  -7.571 -13.415  0.00  0.00    +0.000 A 
ATOM     16  C   UNL     1       6.185  -8.303 -13.712  0.00  0.00    +0.000 A 
ENDBRANCH  10  11
ENDBRANCH   1  10
TORSDOF 2
ENDMDL
