MODEL 1
REMARK VINA RESULT:    -6.293      0.000      0.000
REMARK INTER + INTRA:          -7.137
REMARK INTER:                  -7.029
REMARK INTRA:                  -0.109
REMARK UNBOUND:                -0.109
REMARK  Name = 1550473
REMARK  2 active torsions:
REMARK  status: ('A' for Active; 'I' for Inactive)
REMARK    1  A    between atoms: N_1  and  C_4
REMARK    2  A    between atoms: C_4  and  C_5
REMARK                            x       y       z     vdW  Elec       q    Type
REMARK                         _______ _______ _______ _____ _____    ______ ____
ROOT
ATOM      1  N   UNL     1       8.456   5.125  11.691  0.00  0.00    -0.354 N 
ATOM      2  N   UNL     1      10.453   4.747  10.580  0.00  0.00    -0.372 N 
ATOM      3  N   UNL     1       8.622   5.418   9.372  0.00  0.00    -0.372 N 
ATOM      4  C   UNL     1       9.162   5.100  10.553  0.00  0.00    +0.166 C 
ATOM      5  H   UNL     1       8.916   4.843  12.549  0.00  0.00    +0.163 HD
ATOM      6  H   UNL     1      11.012   4.723   9.738  0.00  0.00    +0.159 HD
ATOM      7  H   UNL     1      10.922   4.511  11.446  0.00  0.00    +0.159 HD
ATOM      8  H   UNL     1       7.651   5.687   9.282  0.00  0.00    +0.159 HD
ATOM      9  H   UNL     1       9.162   5.388   8.516  0.00  0.00    +0.159 HD
ENDROOT
BRANCH   1  10
ATOM     10  C   UNL     1       7.059   5.546  11.777  0.00  0.00    +0.151 C 
BRANCH  10  11
ATOM     11  C   UNL     1       6.339   4.663  12.759  0.00  0.00    -0.028 A 
ATOM     12  C   UNL     1       6.299   4.998  14.121  0.00  0.00    +0.005 A 
ATOM     13  C   UNL     1       5.692   3.493  12.334  0.00  0.00    +0.005 A 
ATOM     14  C   UNL     1       5.605   4.194  15.029  0.00  0.00    +0.000 A 
ATOM     15  C   UNL     1       5.001   2.692  13.244  0.00  0.00    +0.000 A 
ATOM     16  C   UNL     1       4.956   3.045  14.591  0.00  0.00    +0.000 A 
ENDBRANCH  10  11
ENDBRANCH   1  10
TORSDOF 2
ENDMDL
MODEL 2
REMARK VINA RESULT:    -6.080     22.050     22.903
REMARK INTER + INTRA:          -6.900
REMARK INTER:                  -6.758
REMARK INTRA:                  -0.142
REMARK UNBOUND:                -0.109
REMARK  Name = 1550473
REMARK  2 active torsions:
REMARK  status: ('A' for Active; 'I' for Inactive)
REMARK    1  A    between atoms: N_1  and  C_4
REMARK    2  A    between atoms: C_4  and  C_5
REMARK                            x       y       z     vdW  Elec       q    Type
REMARK                         _______ _______ _______ _____ _____    ______ ____
ROOT
ATOM      1  N   UNL     1       6.294   3.272 -10.291  0.00  0.00    -0.354 N 
ATOM      2  N   UNL     1       8.483   3.805 -10.827  0.00  0.00    -0.372 N 
ATOM      3  N   UNL     1       7.170   2.787 -12.409  0.00  0.00    -0.372 N 
ATOM      4  C   UNL     1       7.301   3.283 -11.174  0.00  0.00    +0.166 C 
ATOM      5  H   UNL     1       6.466   3.636  -9.360  0.00  0.00    +0.163 HD
ATOM      6  H   UNL     1       9.260   3.830 -11.473  0.00  0.00    +0.159 HD
ATOM      7  H   UNL     1       8.639   4.209  -9.911  0.00  0.00    +0.159 HD
ATOM      8  H   UNL     1       6.305   2.374 -12.732  0.00  0.00    +0.159 HD
ATOM      9  H   UNL     1       7.940   2.793 -13.067  0.00  0.00    +0.159 HD
ENDROOT
BRANCH   1  10
ATOM     10  C   UNL     1       4.951   2.776 -10.587  0.00  0.00    +0.151 C 
BRANCH  10  11
ATOM     11  C   UNL     1       3.940   3.789 -10.125  0.00  0.00    -0.028 A 
ATOM     12  C   UNL     1       4.343   4.908  -9.381  0.00  0.00    +0.005 A 
ATOM     13  C   UNL     1       2.580   3.638 -10.432  0.00  0.00    +0.005 A 
ATOM     14  C   UNL     1       3.408   5.865  -8.977  0.00  0.00    +0.000 A 
ATOM     15  C   UNL     1       1.650   4.595 -10.027  0.00  0.00    +0.000 A 
ATOM     16  C   UNL     1       2.065   5.710  -9.301  0.00  0.00    +0.000 A 
ENDBRANCH  10  11
ENDBRANCH   1  10
TORSDOF 2
ENDMDL
MODEL 3
REMARK VINA RESULT:    -6.037      4.338      5.812
REMARK INTER + INTRA:          -6.852
REMARK INTER:                  -6.730
REMARK INTRA:                  -0.122
REMARK UNBOUND:                -0.109
REMARK  Name = 1550473
REMARK  2 active torsions:
REMARK  status: ('A' for Active; 'I' for Inactive)
REMARK    1  A    between atoms: N_1  and  C_4
REMARK    2  A    between atoms: C_4  and  C_5
REMARK                            x       y       z     vdW  Elec       q    Type
REMARK                         _______ _______ _______ _____ _____    ______ ____
ROOT
ATOM      1  N   UNL     1       4.979   4.784  17.101  0.00  0.00    -0.354 N 
ATOM      2  N   UNL     1       4.074   4.047  19.102  0.00  0.00    -0.372 N 
ATOM      3  N   UNL     1       6.297   3.665  18.682  0.00  0.00    -0.372 N 
ATOM      4  C   UNL     1       5.125   4.169  18.282  0.00  0.00    +0.166 C 
ATOM      5  H   UNL     1       4.057   5.118  16.843  0.00  0.00    +0.163 HD
ATOM      6  H   UNL     1       4.155   3.591  20.001  0.00  0.00    +0.159 HD
ATOM      7  H   UNL     1       3.165   4.422  18.861  0.00  0.00    +0.159 HD
ATOM      8  H   UNL     1       7.128   3.719  18.108  0.00  0.00    +0.159 HD
ATOM      9  H   UNL     1       6.396   3.195  19.573  0.00  0.00    +0.159 HD
ENDROOT
BRANCH   1  10
ATOM     10  C   UNL     1       6.072   5.017  16.159  0.00  0.00    +0.151 C 
BRANCH  10  11
ATOM     11  C   UNL     1       5.760   4.322  14.862  0.00  0.00    -0.028 A 
ATOM     12  C   UNL     1       6.284   4.801  13.653  0.00  0.00    +0.005 A 
ATOM     13  C   UNL     1       4.944   3.180  14.837  0.00  0.00    +0.005 A 
ATOM     14  C   UNL     1       6.018   4.138  12.452  0.00  0.00    +0.000 A 
ATOM     15  C   UNL     1       4.681   2.521  13.636  0.00  0.00    +0.000 A 
ATOM     16  C   UNL     1       5.220   2.999  12.444  0.00  0.00    +0.000 A 
ENDBRANCH  10  11
ENDBRANCH   1  10
TORSDOF 2
ENDMDL
MODEL 4
REMARK VINA RESULT:    -6.019     20.998     21.911
REMARK INTER + INTRA:          -6.832
REMARK INTER:                  -6.700
REMARK INTRA:                  -0.132
REMARK UNBOUND:                -0.109
REMARK  Name = 1550473
REMARK  2 active torsions:
REMARK  status: ('A' for Active; 'I' for Inactive)
REMARK    1  A    between atoms: N_1  and  C_4
REMARK    2  A    between atoms: C_4  and  C_5
REMARK                            x       y       z     vdW  Elec       q    Type
REMARK                         _______ _______ _______ _____ _____    ______ ____
ROOT
ATOM      1  N   UNL     1       6.948   5.149  -9.465  0.00  0.00    -0.354 N 
ATOM      2  N   UNL     1       8.871   3.863  -9.566  0.00  0.00    -0.372 N 
ATOM      3  N   UNL     1       8.064   4.492  -7.512  0.00  0.00    -0.372 N 
ATOM      4  C   UNL     1       7.948   4.510  -8.844  0.00  0.00    +0.166 C 
ATOM      5  H   UNL     1       6.933   5.150 -10.479  0.00  0.00    +0.163 HD
ATOM      6  H   UNL     1       9.636   3.370  -9.125  0.00  0.00    +0.159 HD
ATOM      7  H   UNL     1       8.829   3.828 -10.577  0.00  0.00    +0.159 HD
ATOM      8  H   UNL     1       7.404   4.966  -6.911  0.00  0.00    +0.159 HD
ATOM      9  H   UNL     1       8.829   4.013  -7.053  0.00  0.00    +0.159 HD
ENDROOT
BRANCH   1  10
ATOM     10  C   UNL     1       5.862   5.838  -8.770  0.00  0.00    +0.151 C 
BRANCH  10  11
ATOM     11  C   UNL     1       4.546   5.282  -9.241  0.00  0.00    -0.028 A 
ATOM     12  C   UNL     1       4.500   4.090  -9.979  0.00  0.00    +0.005 A 
ATOM     13  C   UNL     1       3.342   5.940  -8.949  0.00  0.00    +0.005 A 
ATOM     14  C   UNL     1       3.276   3.557 -10.391  0.00  0.00    +0.000 A 
ATOM     15  C   UNL     1       2.122   5.405  -9.363  0.00  0.00    +0.000 A 
ATOM     16  C   UNL     1       2.089   4.213 -10.082  0.00  0.00    +0.000 A 
ENDBRANCH  10  11
ENDBRANCH   1  10
TORSDOF 2
ENDMDL
MODEL 5
REMARK VINA RESULT:    -5.972      2.213      3.261
REMARK INTER + INTRA:          -6.779
REMARK INTER:                  -6.642
REMARK INTRA:                  -0.138
REMARK UNBOUND:                -0.109
REMARK  Name = 1550473
REMARK  2 active torsions:
REMARK  status: ('A' for Active; 'I' for Inactive)
REMARK    1  A    between atoms: N_1  and  C_4
REMARK    2  A    between atoms: C_4  and  C_5
REMARK                            x       y       z     vdW  Elec       q    Type
REMARK                         _______ _______ _______ _____ _____    ______ ____
ROOT
ATOM      1  N   UNL     1      10.959   6.251  10.926  0.00  0.00    -0.354 N 
ATOM      2  N   UNL     1      13.234   6.685  10.952  0.00  0.00    -0.372 N 
ATOM      3  N   UNL     1      12.506   4.619  10.268  0.00  0.00    -0.372 N 
ATOM      4  C   UNL     1      12.218   5.846  10.714  0.00  0.00    +0.166 C 
ATOM      5  H   UNL     1      10.809   7.184  11.294  0.00  0.00    +0.163 HD
ATOM      6  H   UNL     1      14.195   6.408  10.798  0.00  0.00    +0.159 HD
ATOM      7  H   UNL     1      13.079   7.631  11.276  0.00  0.00    +0.159 HD
ATOM      8  H   UNL     1      11.785   3.936  10.075  0.00  0.00    +0.159 HD
ATOM      9  H   UNL     1      13.462   4.320  10.119  0.00  0.00    +0.159 HD
ENDROOT
BRANCH   1  10
ATOM     10  C   UNL     1       9.779   5.434  10.648  0.00  0.00    +0.151 C 
BRANCH  10  11
ATOM     11  C   UNL     1       8.770   5.640  11.743  0.00  0.00    -0.028 A 
ATOM     12  C   UNL     1       9.089   6.412  12.870  0.00  0.00    +0.005 A 
ATOM     13  C   UNL     1       7.490   5.072  11.657  0.00  0.00    +0.005 A 
ATOM     14  C   UNL     1       8.142   6.628  13.874  0.00  0.00    +0.000 A 
ATOM     15  C   UNL     1       6.547   5.290  12.662  0.00  0.00    +0.000 A 
ATOM     16  C   UNL     1       6.872   6.070  13.768  0.00  0.00    +0.000 A 
ENDBRANCH  10  11
ENDBRANCH   1  10
TORSDOF 2
ENDMDL
MODEL 6
REMARK VINA RESULT:    -5.663     20.548     21.792
REMARK INTER + INTRA:          -6.434
REMARK INTER:                  -6.335
REMARK INTRA:                  -0.099
REMARK UNBOUND:                -0.109
REMARK  Name = 1550473
REMARK  2 active torsions:
REMARK  status: ('A' for Active; 'I' for Inactive)
REMARK    1  A    between atoms: N_1  and  C_4
REMARK    2  A    between atoms: C_4  and  C_5
REMARK                            x       y       z     vdW  Elec       q    Type
REMARK                         _______ _______ _______ _____ _____    ______ ____
ROOT
ATOM      1  N   UNL     1       9.475   3.578  -8.590  0.00  0.00    -0.354 N 
ATOM      2  N   UNL     1      10.930   3.204  -6.827  0.00  0.00    -0.372 N 
ATOM      3  N   UNL     1      11.444   4.828  -8.364  0.00  0.00    -0.372 N 
ATOM      4  C   UNL     1      10.608   3.874  -7.940  0.00  0.00    +0.166 C 
ATOM      5  H   UNL     1       8.899   2.823  -8.234  0.00  0.00    +0.163 HD
ATOM      6  H   UNL     1      11.776   3.408  -6.313  0.00  0.00    +0.159 HD
ATOM      7  H   UNL     1      10.329   2.482  -6.448  0.00  0.00    +0.159 HD
ATOM      8  H   UNL     1      11.262   5.366  -9.200  0.00  0.00    +0.159 HD
ATOM      9  H   UNL     1      12.302   5.038  -7.870  0.00  0.00    +0.159 HD
ENDROOT
BRANCH   1  10
ATOM     10  C   UNL     1       9.007   4.284  -9.781  0.00  0.00    +0.151 C 
BRANCH  10  11
ATOM     11  C   UNL     1       7.511   4.156  -9.872  0.00  0.00    -0.028 A 
ATOM     12  C   UNL     1       6.677   5.047  -9.180  0.00  0.00    +0.005 A 
ATOM     13  C   UNL     1       6.922   3.150 -10.652  0.00  0.00    +0.005 A 
ATOM     14  C   UNL     1       5.288   4.947  -9.288  0.00  0.00    +0.000 A 
ATOM     15  C   UNL     1       5.534   3.053 -10.757  0.00  0.00    +0.000 A 
ATOM     16  C   UNL     1       4.718   3.953 -10.077  0.00  0.00    +0.000 A 
ENDBRANCH  10  11
ENDBRANCH   1  10
TORSDOF 2
ENDMDL
MODEL 7
REMARK VINA RESULT:    -5.619      3.814      5.558
REMARK INTER + INTRA:          -6.385
REMARK INTER:                  -6.249
REMARK INTRA:                  -0.136
REMARK UNBOUND:                -0.109
REMARK  Name = 1550473
REMARK  2 active torsions:
REMARK  status: ('A' for Active; 'I' for Inactive)
REMARK    1  A    between atoms: N_1  and  C_4
REMARK    2  A    between atoms: C_4  and  C_5
REMARK                            x       y       z     vdW  Elec       q    Type
REMARK                         _______ _______ _______ _____ _____    ______ ____
ROOT
ATOM      1  N   UNL     1       5.987   4.583  16.479  0.00  0.00    -0.354 N 
ATOM      2  N   UNL     1       4.449   3.713  17.975  0.00  0.00    -0.372 N 
ATOM      3  N   UNL     1       5.010   5.933  18.126  0.00  0.00    -0.372 N 
ATOM      4  C   UNL     1       5.159   4.751  17.518  0.00  0.00    +0.166 C 
ATOM      5  H   UNL     1       6.078   3.655  16.081  0.00  0.00    +0.163 HD
ATOM      6  H   UNL     1       3.813   3.811  18.756  0.00  0.00    +0.159 HD
ATOM      7  H   UNL     1       4.507   2.797  17.547  0.00  0.00    +0.159 HD
ATOM      8  H   UNL     1       5.521   6.754  17.832  0.00  0.00    +0.159 HD
ATOM      9  H   UNL     1       4.387   6.048  18.916  0.00  0.00    +0.159 HD
ENDROOT
BRANCH   1  10
ATOM     10  C   UNL     1       6.765   5.660  15.870  0.00  0.00    +0.151 C 
BRANCH  10  11
ATOM     11  C   UNL     1       6.786   5.469  14.379  0.00  0.00    -0.028 A 
ATOM     12  C   UNL     1       7.668   6.209  13.578  0.00  0.00    +0.005 A 
ATOM     13  C   UNL     1       5.930   4.545  13.760  0.00  0.00    +0.005 A 
ATOM     14  C   UNL     1       7.709   6.010  12.196  0.00  0.00    +0.000 A 
ATOM     15  C   UNL     1       5.974   4.349  12.380  0.00  0.00    +0.000 A 
ATOM     16  C   UNL     1       6.865   5.081  11.598  0.00  0.00    +0.000 A 
ENDBRANCH  10  11
ENDBRANCH   1  10
TORSDOF 2
ENDMDL
MODEL 8
REMARK VINA RESULT:    -5.575     20.626     22.358
REMARK INTER + INTRA:          -6.336
REMARK INTER:                  -6.158
REMARK INTRA:                  -0.178
REMARK UNBOUND:                -0.109
REMARK  Name = 1550473
REMARK  2 active torsions:
REMARK  status: ('A' for Active; 'I' for Inactive)
REMARK    1  A    between atoms: N_1  and  C_4
REMARK    2  A    between atoms: C_4  and  C_5
REMARK                            x       y       z     vdW  Elec       q    Type
REMARK                         _______ _______ _______ _____ _____    ______ ____
ROOT
ATOM      1  N   UNL     1       6.710   3.189 -10.081  0.00  0.00    -0.354 N 
ATOM      2  N   UNL     1       5.991   1.370 -11.321  0.00  0.00    -0.372 N 
ATOM      3  N   UNL     1       7.225   3.002 -12.360  0.00  0.00    -0.372 N 
ATOM      4  C   UNL     1       6.648   2.534 -11.248  0.00  0.00    +0.166 C 
ATOM      5  H   UNL     1       6.226   2.795  -9.282  0.00  0.00    +0.163 HD
ATOM      6  H   UNL     1       5.931   0.851 -12.187  0.00  0.00    +0.159 HD
ATOM      7  H   UNL     1       5.548   0.956 -10.510  0.00  0.00    +0.159 HD
ATOM      8  H   UNL     1       7.730   3.878 -12.372  0.00  0.00    +0.159 HD
ATOM      9  H   UNL     1       7.165   2.504 -13.239  0.00  0.00    +0.159 HD
ENDROOT
BRANCH   1  10
ATOM     10  C   UNL     1       7.445   4.437  -9.882  0.00  0.00    +0.151 C 
BRANCH  10  11
ATOM     11  C   UNL     1       8.712   4.145  -9.126  0.00  0.00    -0.028 A 
ATOM     12  C   UNL     1       9.924   3.970  -9.810  0.00  0.00    +0.005 A 
ATOM     13  C   UNL     1       8.708   4.049  -7.726  0.00  0.00    +0.005 A 
ATOM     14  C   UNL     1      11.107   3.729  -9.107  0.00  0.00    +0.000 A 
ATOM     15  C   UNL     1       9.891   3.807  -7.028  0.00  0.00    +0.000 A 
ATOM     16  C   UNL     1      11.090   3.650  -7.718  0.00  0.00    +0.000 A 
ENDBRANCH  10  11
ENDBRANCH   1  10
TORSDOF 2
ENDMDL
MODEL 9
REMARK VINA RESULT:    -5.451     17.441     19.236
REMARK INTER + INTRA:          -6.197
REMARK INTER:                  -6.068
REMARK INTRA:                  -0.129
REMARK UNBOUND:                -0.109
REMARK  Name = 1550473
REMARK  2 active torsions:
REMARK  status: ('A' for Active; 'I' for Inactive)
REMARK    1  A    between atoms: N_1  and  C_4
REMARK    2  A    between atoms: C_4  and  C_5
REMARK                            x       y       z     vdW  Elec       q    Type
REMARK                         _______ _______ _______ _____ _____    ______ ____
ROOT
ATOM      1  N   UNL     1      16.225   2.760  -3.253  0.00  0.00    -0.354 N 
ATOM      2  N   UNL     1      15.175   4.701  -2.551  0.00  0.00    -0.372 N 
ATOM      3  N   UNL     1      13.892   2.870  -3.067  0.00  0.00    -0.372 N 
ATOM      4  C   UNL     1      15.102   3.430  -2.962  0.00  0.00    +0.166 C 
ATOM      5  H   UNL     1      17.109   3.251  -3.183  0.00  0.00    +0.163 HD
ATOM      6  H   UNL     1      14.344   5.230  -2.321  0.00  0.00    +0.159 HD
ATOM      7  H   UNL     1      16.063   5.174  -2.437  0.00  0.00    +0.159 HD
ATOM      8  H   UNL     1      13.768   1.916  -3.377  0.00  0.00    +0.159 HD
ATOM      9  H   UNL     1      13.048   3.387  -2.852  0.00  0.00    +0.159 HD
ENDROOT
BRANCH   1  10
ATOM     10  C   UNL     1      16.259   1.356  -3.658  0.00  0.00    +0.151 C 
BRANCH  10  11
ATOM     11  C   UNL     1      17.605   0.779  -3.319  0.00  0.00    -0.028 A 
ATOM     12  C   UNL     1      17.942  -0.524  -3.713  0.00  0.00    +0.005 A 
ATOM     13  C   UNL     1      18.552   1.533  -2.608  0.00  0.00    +0.005 A 
ATOM     14  C   UNL     1      19.203  -1.050  -3.425  0.00  0.00    +0.000 A 
ATOM     15  C   UNL     1      19.810   1.004  -2.321  0.00  0.00    +0.000 A 
ATOM     16  C   UNL     1      20.137  -0.286  -2.731  0.00  0.00    +0.000 A 
ENDBRANCH  10  11
ENDBRANCH   1  10
TORSDOF 2
ENDMDL
