MODEL 1
REMARK VINA RESULT:    -6.547      0.000      0.000
REMARK INTER + INTRA:          -7.431
REMARK INTER:                  -7.312
REMARK INTRA:                  -0.118
REMARK UNBOUND:                -0.118
REMARK  Name = 1550473
REMARK  2 active torsions:
REMARK  status: ('A' for Active; 'I' for Inactive)
REMARK    1  A    between atoms: N_1  and  C_4
REMARK    2  A    between atoms: C_4  and  C_5
REMARK                            x       y       z     vdW  Elec       q    Type
REMARK                         _______ _______ _______ _____ _____    ______ ____
ROOT
ATOM      1  N   UNL     1      -3.230   5.743   0.874  0.00  0.00    -0.354 N 
ATOM      2  N   UNL     1      -1.601   6.467   2.353  0.00  0.00    -0.372 N 
ATOM      3  N   UNL     1      -3.760   6.251   3.100  0.00  0.00    -0.372 N 
ATOM      4  C   UNL     1      -2.877   6.149   2.101  0.00  0.00    +0.166 C 
ATOM      5  H   UNL     1      -2.519   5.716   0.153  0.00  0.00    +0.163 HD
ATOM      6  H   UNL     1      -1.305   6.773   3.270  0.00  0.00    +0.159 HD
ATOM      7  H   UNL     1      -0.884   6.395   1.642  0.00  0.00    +0.159 HD
ATOM      8  H   UNL     1      -4.739   6.032   2.973  0.00  0.00    +0.159 HD
ATOM      9  H   UNL     1      -3.485   6.567   4.021  0.00  0.00    +0.159 HD
ENDROOT
BRANCH   1  10
ATOM     10  C   UNL     1      -4.582   5.323   0.510  0.00  0.00    +0.151 C 
BRANCH  10  11
ATOM     11  C   UNL     1      -4.496   4.253  -0.544  0.00  0.00    -0.028 A 
ATOM     12  C   UNL     1      -5.093   4.441  -1.800  0.00  0.00    +0.005 A 
ATOM     13  C   UNL     1      -3.815   3.052  -0.296  0.00  0.00    +0.005 A 
ATOM     14  C   UNL     1      -4.988   3.461  -2.789  0.00  0.00    +0.000 A 
ATOM     15  C   UNL     1      -3.713   2.075  -1.286  0.00  0.00    +0.000 A 
ATOM     16  C   UNL     1      -4.297   2.281  -2.533  0.00  0.00    +0.000 A 
ENDBRANCH  10  11
ENDBRANCH   1  10
TORSDOF 2
ENDMDL
MODEL 2
REMARK VINA RESULT:    -5.548      9.532     10.731
REMARK INTER + INTRA:          -6.315
REMARK INTER:                  -6.164
REMARK INTRA:                  -0.152
REMARK UNBOUND:                -0.118
REMARK  Name = 1550473
REMARK  2 active torsions:
REMARK  status: ('A' for Active; 'I' for Inactive)
REMARK    1  A    between atoms: N_1  and  C_4
REMARK    2  A    between atoms: C_4  and  C_5
REMARK                            x       y       z     vdW  Elec       q    Type
REMARK                         _______ _______ _______ _____ _____    ______ ____
ROOT
ATOM      1  N   UNL     1      -5.334   7.471  -9.887  0.00  0.00    -0.354 N 
ATOM      2  N   UNL     1      -5.956   7.849 -12.085  0.00  0.00    -0.372 N 
ATOM      3  N   UNL     1      -6.754   9.248 -10.451  0.00  0.00    -0.372 N 
ATOM      4  C   UNL     1      -6.012   8.189 -10.792  0.00  0.00    +0.166 C 
ATOM      5  H   UNL     1      -4.814   6.662 -10.206  0.00  0.00    +0.163 HD
ATOM      6  H   UNL     1      -6.454   8.374 -12.792  0.00  0.00    +0.159 HD
ATOM      7  H   UNL     1      -5.398   7.067 -12.407  0.00  0.00    +0.159 HD
ATOM      8  H   UNL     1      -6.843   9.552  -9.491  0.00  0.00    +0.159 HD
ATOM      9  H   UNL     1      -7.270   9.778 -11.142  0.00  0.00    +0.159 HD
ENDROOT
BRANCH   1  10
ATOM     10  C   UNL     1      -5.285   7.789  -8.461  0.00  0.00    +0.151 C 
BRANCH  10  11
ATOM     11  C   UNL     1      -3.878   8.168  -8.089  0.00  0.00    -0.028 A 
ATOM     12  C   UNL     1      -2.798   7.770  -8.891  0.00  0.00    +0.005 A 
ATOM     13  C   UNL     1      -3.618   8.931  -6.940  0.00  0.00    +0.005 A 
ATOM     14  C   UNL     1      -1.494   8.147  -8.563  0.00  0.00    +0.000 A 
ATOM     15  C   UNL     1      -2.314   9.305  -6.616  0.00  0.00    +0.000 A 
ATOM     16  C   UNL     1      -1.253   8.915  -7.428  0.00  0.00    +0.000 A 
ENDBRANCH  10  11
ENDBRANCH   1  10
TORSDOF 2
ENDMDL
MODEL 3
REMARK VINA RESULT:    -5.507     35.224     37.091
REMARK INTER + INTRA:          -6.269
REMARK INTER:                  -6.155
REMARK INTRA:                  -0.114
REMARK UNBOUND:                -0.118
REMARK  Name = 1550473
REMARK  2 active torsions:
REMARK  status: ('A' for Active; 'I' for Inactive)
REMARK    1  A    between atoms: N_1  and  C_4
REMARK    2  A    between atoms: C_4  and  C_5
REMARK                            x       y       z     vdW  Elec       q    Type
REMARK                         _______ _______ _______ _____ _____    ______ ____
ROOT
ATOM      1  N   UNL     1      -7.349 -24.412 -24.227  0.00  0.00    -0.354 N 
ATOM      2  N   UNL     1      -8.648 -26.311 -24.492  0.00  0.00    -0.372 N 
ATOM      3  N   UNL     1      -6.407 -26.425 -24.969  0.00  0.00    -0.372 N 
ATOM      4  C   UNL     1      -7.457 -25.705 -24.562  0.00  0.00    +0.166 C 
ATOM      5  H   UNL     1      -8.189 -23.914 -23.956  0.00  0.00    +0.163 HD
ATOM      6  H   UNL     1      -8.759 -27.287 -24.735  0.00  0.00    +0.159 HD
ATOM      7  H   UNL     1      -9.477 -25.823 -24.176  0.00  0.00    +0.159 HD
ATOM      8  H   UNL     1      -5.481 -26.025 -25.049  0.00  0.00    +0.159 HD
ATOM      9  H   UNL     1      -6.500 -27.400 -25.228  0.00  0.00    +0.159 HD
ENDROOT
BRANCH   1  10
ATOM     10  C   UNL     1      -6.088 -23.672 -24.218  0.00  0.00    +0.151 C 
BRANCH  10  11
ATOM     11  C   UNL     1      -6.382 -22.201 -24.314  0.00  0.00    -0.028 A 
ATOM     12  C   UNL     1      -7.190 -21.702 -25.346  0.00  0.00    +0.005 A 
ATOM     13  C   UNL     1      -5.859 -21.300 -23.373  0.00  0.00    +0.005 A 
ATOM     14  C   UNL     1      -7.487 -20.339 -25.418  0.00  0.00    +0.000 A 
ATOM     15  C   UNL     1      -6.157 -19.940 -23.449  0.00  0.00    +0.000 A 
ATOM     16  C   UNL     1      -6.973 -19.460 -24.471  0.00  0.00    +0.000 A 
ENDBRANCH  10  11
ENDBRANCH   1  10
TORSDOF 2
ENDMDL
MODEL 4
REMARK VINA RESULT:    -5.452      8.645      9.493
REMARK INTER + INTRA:          -6.208
REMARK INTER:                  -6.027
REMARK INTRA:                  -0.181
REMARK UNBOUND:                -0.118
REMARK  Name = 1550473
REMARK  2 active torsions:
REMARK  status: ('A' for Active; 'I' for Inactive)
REMARK    1  A    between atoms: N_1  and  C_4
REMARK    2  A    between atoms: C_4  and  C_5
REMARK                            x       y       z     vdW  Elec       q    Type
REMARK                         _______ _______ _______ _____ _____    ______ ____
ROOT
ATOM      1  N   UNL     1       0.596   6.786  -8.357  0.00  0.00    -0.354 N 
ATOM      2  N   UNL     1       1.412   4.832  -7.418  0.00  0.00    -0.372 N 
ATOM      3  N   UNL     1       1.700   6.809  -6.290  0.00  0.00    -0.372 N 
ATOM      4  C   UNL     1       1.232   6.157  -7.359  0.00  0.00    +0.166 C 
ATOM      5  H   UNL     1       0.292   6.239  -9.154  0.00  0.00    +0.163 HD
ATOM      6  H   UNL     1       1.885   4.330  -6.679  0.00  0.00    +0.159 HD
ATOM      7  H   UNL     1       1.066   4.281  -8.194  0.00  0.00    +0.159 HD
ATOM      8  H   UNL     1       1.602   7.811  -6.188  0.00  0.00    +0.159 HD
ATOM      9  H   UNL     1       2.187   6.326  -5.545  0.00  0.00    +0.159 HD
ENDROOT
BRANCH   1  10
ATOM     10  C   UNL     1       0.301   8.218  -8.364  0.00  0.00    +0.151 C 
BRANCH  10  11
ATOM     11  C   UNL     1      -1.133   8.426  -7.964  0.00  0.00    -0.028 A 
ATOM     12  C   UNL     1      -1.452   9.179  -6.825  0.00  0.00    +0.005 A 
ATOM     13  C   UNL     1      -2.178   7.877  -8.723  0.00  0.00    +0.005 A 
ATOM     14  C   UNL     1      -2.786   9.398  -6.469  0.00  0.00    +0.000 A 
ATOM     15  C   UNL     1      -3.508   8.097  -8.364  0.00  0.00    +0.000 A 
ATOM     16  C   UNL     1      -3.811   8.860  -7.239  0.00  0.00    +0.000 A 
ENDBRANCH  10  11
ENDBRANCH   1  10
TORSDOF 2
ENDMDL
MODEL 5
REMARK VINA RESULT:    -5.234     18.217     19.054
REMARK INTER + INTRA:          -5.964
REMARK INTER:                  -5.838
REMARK INTRA:                  -0.126
REMARK UNBOUND:                -0.118
REMARK  Name = 1550473
REMARK  2 active torsions:
REMARK  status: ('A' for Active; 'I' for Inactive)
REMARK    1  A    between atoms: N_1  and  C_4
REMARK    2  A    between atoms: C_4  and  C_5
REMARK                            x       y       z     vdW  Elec       q    Type
REMARK                         _______ _______ _______ _____ _____    ______ ____
ROOT
ATOM      1  N   UNL     1      -5.099  20.440 -10.235  0.00  0.00    -0.354 N 
ATOM      2  N   UNL     1      -5.100  20.986 -12.486  0.00  0.00    -0.372 N 
ATOM      3  N   UNL     1      -7.105  20.838 -11.379  0.00  0.00    -0.372 N 
ATOM      4  C   UNL     1      -5.771  20.751 -11.352  0.00  0.00    +0.166 C 
ATOM      5  H   UNL     1      -4.090  20.360 -10.287  0.00  0.00    +0.163 HD
ATOM      6  H   UNL     1      -5.580  21.226 -13.343  0.00  0.00    +0.159 HD
ATOM      7  H   UNL     1      -4.089  20.951 -12.524  0.00  0.00    +0.159 HD
ATOM      8  H   UNL     1      -7.670  20.666 -10.558  0.00  0.00    +0.159 HD
ATOM      9  H   UNL     1      -7.604  21.065 -12.230  0.00  0.00    +0.159 HD
ENDROOT
BRANCH   1  10
ATOM     10  C   UNL     1      -5.731  20.218  -8.936  0.00  0.00    +0.151 C 
BRANCH  10  11
ATOM     11  C   UNL     1      -4.743  20.539  -7.848  0.00  0.00    -0.028 A 
ATOM     12  C   UNL     1      -3.376  20.654  -8.139  0.00  0.00    +0.005 A 
ATOM     13  C   UNL     1      -5.168  20.734  -6.525  0.00  0.00    +0.005 A 
ATOM     14  C   UNL     1      -2.462  20.982  -7.135  0.00  0.00    +0.000 A 
ATOM     15  C   UNL     1      -4.252  21.060  -5.525  0.00  0.00    +0.000 A 
ATOM     16  C   UNL     1      -2.900  21.186  -5.831  0.00  0.00    +0.000 A 
ENDBRANCH  10  11
ENDBRANCH   1  10
TORSDOF 2
ENDMDL
MODEL 6
REMARK VINA RESULT:    -5.126     20.103     21.206
REMARK INTER + INTRA:          -5.844
REMARK INTER:                  -5.723
REMARK INTRA:                  -0.121
REMARK UNBOUND:                -0.118
REMARK  Name = 1550473
REMARK  2 active torsions:
REMARK  status: ('A' for Active; 'I' for Inactive)
REMARK    1  A    between atoms: N_1  and  C_4
REMARK    2  A    between atoms: C_4  and  C_5
REMARK                            x       y       z     vdW  Elec       q    Type
REMARK                         _______ _______ _______ _____ _____    ______ ____
ROOT
ATOM      1  N   UNL     1      -6.132  19.945 -14.231  0.00  0.00    -0.354 N 
ATOM      2  N   UNL     1      -5.360  19.400 -16.345  0.00  0.00    -0.372 N 
ATOM      3  N   UNL     1      -5.903  21.582 -15.892  0.00  0.00    -0.372 N 
ATOM      4  C   UNL     1      -5.804  20.315 -15.476  0.00  0.00    +0.166 C 
ATOM      5  H   UNL     1      -6.063  18.963 -13.987  0.00  0.00    +0.163 HD
ATOM      6  H   UNL     1      -5.101  19.650 -17.290  0.00  0.00    +0.159 HD
ATOM      7  H   UNL     1      -5.248  18.427 -16.085  0.00  0.00    +0.159 HD
ATOM      8  H   UNL     1      -6.237  22.320 -15.286  0.00  0.00    +0.159 HD
ATOM      9  H   UNL     1      -5.660  21.850 -16.837  0.00  0.00    +0.159 HD
ENDROOT
BRANCH   1  10
ATOM     10  C   UNL     1      -6.575  20.872 -13.192  0.00  0.00    +0.151 C 
BRANCH  10  11
ATOM     11  C   UNL     1      -5.582  20.856 -12.063  0.00  0.00    -0.028 A 
ATOM     12  C   UNL     1      -4.205  20.913 -12.326  0.00  0.00    +0.005 A 
ATOM     13  C   UNL     1      -6.011  20.791 -10.729  0.00  0.00    +0.005 A 
ATOM     14  C   UNL     1      -3.283  20.928 -11.276  0.00  0.00    +0.000 A 
ATOM     15  C   UNL     1      -5.087  20.805  -9.684  0.00  0.00    +0.000 A 
ATOM     16  C   UNL     1      -3.723  20.877  -9.958  0.00  0.00    +0.000 A 
ENDBRANCH  10  11
ENDBRANCH   1  10
TORSDOF 2
ENDMDL
MODEL 7
REMARK VINA RESULT:    -5.070     10.162     11.340
REMARK INTER + INTRA:          -5.781
REMARK INTER:                  -5.643
REMARK INTRA:                  -0.138
REMARK UNBOUND:                -0.118
REMARK  Name = 1550473
REMARK  2 active torsions:
REMARK  status: ('A' for Active; 'I' for Inactive)
REMARK    1  A    between atoms: N_1  and  C_4
REMARK    2  A    between atoms: C_4  and  C_5
REMARK                            x       y       z     vdW  Elec       q    Type
REMARK                         _______ _______ _______ _____ _____    ______ ____
ROOT
ATOM      1  N   UNL     1      -7.185   7.919 -10.522  0.00  0.00    -0.354 N 
ATOM      2  N   UNL     1      -9.483   7.811 -10.249  0.00  0.00    -0.372 N 
ATOM      3  N   UNL     1      -8.405   6.066 -11.277  0.00  0.00    -0.372 N 
ATOM      4  C   UNL     1      -8.342   7.264 -10.686  0.00  0.00    +0.166 C 
ATOM      5  H   UNL     1      -7.209   8.837 -10.094  0.00  0.00    +0.163 HD
ATOM      6  H   UNL     1     -10.370   7.339 -10.355  0.00  0.00    +0.159 HD
ATOM      7  H   UNL     1      -9.497   8.708  -9.779  0.00  0.00    +0.159 HD
ATOM      8  H   UNL     1      -7.581   5.601 -11.635  0.00  0.00    +0.159 HD
ATOM      9  H   UNL     1      -9.286   5.582 -11.403  0.00  0.00    +0.159 HD
ENDROOT
BRANCH   1  10
ATOM     10  C   UNL     1      -5.882   7.386 -10.915  0.00  0.00    +0.151 C 
BRANCH  10  11
ATOM     11  C   UNL     1      -4.876   7.712  -9.845  0.00  0.00    -0.028 A 
ATOM     12  C   UNL     1      -5.273   8.369  -8.671  0.00  0.00    +0.005 A 
ATOM     13  C   UNL     1      -3.526   7.360  -9.996  0.00  0.00    +0.005 A 
ATOM     14  C   UNL     1      -4.345   8.645  -7.664  0.00  0.00    +0.000 A 
ATOM     15  C   UNL     1      -2.602   7.638  -8.989  0.00  0.00    +0.000 A 
ATOM     16  C   UNL     1      -3.013   8.278  -7.822  0.00  0.00    +0.000 A 
ENDBRANCH  10  11
ENDBRANCH   1  10
TORSDOF 2
ENDMDL
MODEL 8
REMARK VINA RESULT:    -4.998     10.319     11.518
REMARK INTER + INTRA:          -5.700
REMARK INTER:                  -5.521
REMARK INTRA:                  -0.180
REMARK UNBOUND:                -0.118
REMARK  Name = 1550473
REMARK  2 active torsions:
REMARK  status: ('A' for Active; 'I' for Inactive)
REMARK    1  A    between atoms: N_1  and  C_4
REMARK    2  A    between atoms: C_4  and  C_5
REMARK                            x       y       z     vdW  Elec       q    Type
REMARK                         _______ _______ _______ _____ _____    ______ ____
ROOT
ATOM      1  N   UNL     1      -7.609   6.796 -11.217  0.00  0.00    -0.354 N 
ATOM      2  N   UNL     1      -9.239   5.237 -10.691  0.00  0.00    -0.372 N 
ATOM      3  N   UNL     1      -9.235   7.251  -9.592  0.00  0.00    -0.372 N 
ATOM      4  C   UNL     1      -8.684   6.440 -10.502  0.00  0.00    +0.166 C 
ATOM      5  H   UNL     1      -7.221   6.124 -11.870  0.00  0.00    +0.163 HD
ATOM      6  H   UNL     1     -10.052   4.942 -10.169  0.00  0.00    +0.159 HD
ATOM      7  H   UNL     1      -8.876   4.585 -11.377  0.00  0.00    +0.159 HD
ATOM      8  H   UNL     1      -8.860   8.170  -9.398  0.00  0.00    +0.159 HD
ATOM      9  H   UNL     1     -10.042   6.969  -9.051  0.00  0.00    +0.159 HD
ENDROOT
BRANCH   1  10
ATOM     10  C   UNL     1      -6.962   8.103 -11.126  0.00  0.00    +0.151 C 
BRANCH  10  11
ATOM     11  C   UNL     1      -5.755   7.993 -10.235  0.00  0.00    -0.028 A 
ATOM     12  C   UNL     1      -4.599   7.336 -10.680  0.00  0.00    +0.005 A 
ATOM     13  C   UNL     1      -5.760   8.549  -8.946  0.00  0.00    +0.005 A 
ATOM     14  C   UNL     1      -3.468   7.259  -9.864  0.00  0.00    +0.000 A 
ATOM     15  C   UNL     1      -4.629   8.470  -8.134  0.00  0.00    +0.000 A 
ATOM     16  C   UNL     1      -3.482   7.827  -8.594  0.00  0.00    +0.000 A 
ENDBRANCH  10  11
ENDBRANCH   1  10
TORSDOF 2
ENDMDL
MODEL 9
REMARK VINA RESULT:    -4.863     18.774     19.475
REMARK INTER + INTRA:          -5.550
REMARK INTER:                  -5.418
REMARK INTRA:                  -0.132
REMARK UNBOUND:                -0.118
REMARK  Name = 1550473
REMARK  2 active torsions:
REMARK  status: ('A' for Active; 'I' for Inactive)
REMARK    1  A    between atoms: N_1  and  C_4
REMARK    2  A    between atoms: C_4  and  C_5
REMARK                            x       y       z     vdW  Elec       q    Type
REMARK                         _______ _______ _______ _____ _____    ______ ____
ROOT
ATOM      1  N   UNL     1      -6.453  20.785  -8.426  0.00  0.00    -0.354 N 
ATOM      2  N   UNL     1      -8.410  21.189  -7.256  0.00  0.00    -0.372 N 
ATOM      3  N   UNL     1      -6.444  22.069  -6.466  0.00  0.00    -0.372 N 
ATOM      4  C   UNL     1      -7.088  21.346  -7.389  0.00  0.00    +0.166 C 
ATOM      5  H   UNL     1      -6.994  20.223  -9.074  0.00  0.00    +0.163 HD
ATOM      6  H   UNL     1      -8.917  21.604  -6.485  0.00  0.00    +0.159 HD
ATOM      7  H   UNL     1      -8.955  20.666  -7.930  0.00  0.00    +0.159 HD
ATOM      8  H   UNL     1      -5.444  22.220  -6.506  0.00  0.00    +0.159 HD
ATOM      9  H   UNL     1      -6.931  22.482  -5.681  0.00  0.00    +0.159 HD
ENDROOT
BRANCH   1  10
ATOM     10  C   UNL     1      -5.024  20.939  -8.692  0.00  0.00    +0.151 C 
BRANCH  10  11
ATOM     11  C   UNL     1      -4.794  20.904 -10.178  0.00  0.00    -0.028 A 
ATOM     12  C   UNL     1      -5.878  20.824 -11.064  0.00  0.00    +0.005 A 
ATOM     13  C   UNL     1      -3.495  20.956 -10.705  0.00  0.00    +0.005 A 
ATOM     14  C   UNL     1      -5.666  20.821 -12.445  0.00  0.00    +0.000 A 
ATOM     15  C   UNL     1      -3.288  20.952 -12.085  0.00  0.00    +0.000 A 
ATOM     16  C   UNL     1      -4.374  20.887 -12.954  0.00  0.00    +0.000 A 
ENDBRANCH  10  11
ENDBRANCH   1  10
TORSDOF 2
ENDMDL
