MODEL 1
REMARK VINA RESULT:    -5.701      0.000      0.000
REMARK INTER + INTRA:          -6.500
REMARK INTER:                  -6.368
REMARK INTRA:                  -0.132
REMARK UNBOUND:                -0.132
REMARK  Name = 1550473
REMARK  2 active torsions:
REMARK  status: ('A' for Active; 'I' for Inactive)
REMARK    1  A    between atoms: N_1  and  C_4
REMARK    2  A    between atoms: C_4  and  C_5
REMARK                            x       y       z     vdW  Elec       q    Type
REMARK                         _______ _______ _______ _____ _____    ______ ____
ROOT
ATOM      1  N   UNL     1       5.381   0.119  -8.089  0.00  0.00    -0.354 N 
ATOM      2  N   UNL     1       3.858  -0.921  -6.689  0.00  0.00    -0.372 N 
ATOM      3  N   UNL     1       5.810  -2.010  -7.208  0.00  0.00    -0.372 N 
ATOM      4  C   UNL     1       5.028  -0.932  -7.338  0.00  0.00    +0.166 C 
ATOM      5  H   UNL     1       4.731   0.892  -8.171  0.00  0.00    +0.163 HD
ATOM      6  H   UNL     1       3.566  -1.698  -6.112  0.00  0.00    +0.159 HD
ATOM      7  H   UNL     1       3.230  -0.128  -6.735  0.00  0.00    +0.159 HD
ATOM      8  H   UNL     1       6.703  -2.083  -7.677  0.00  0.00    +0.159 HD
ATOM      9  H   UNL     1       5.530  -2.803  -6.645  0.00  0.00    +0.159 HD
ENDROOT
BRANCH   1  10
ATOM     10  C   UNL     1       6.657   0.229  -8.794  0.00  0.00    +0.151 C 
BRANCH  10  11
ATOM     11  C   UNL     1       7.109   1.663  -8.770  0.00  0.00    -0.028 A 
ATOM     12  C   UNL     1       6.741   2.509  -7.714  0.00  0.00    +0.005 A 
ATOM     13  C   UNL     1       7.911   2.181  -9.799  0.00  0.00    +0.005 A 
ATOM     14  C   UNL     1       7.185   3.833  -7.676  0.00  0.00    +0.000 A 
ATOM     15  C   UNL     1       8.351   3.504  -9.759  0.00  0.00    +0.000 A 
ATOM     16  C   UNL     1       7.991   4.329  -8.696  0.00  0.00    +0.000 A 
ENDBRANCH  10  11
ENDBRANCH   1  10
TORSDOF 2
ENDMDL
MODEL 2
REMARK VINA RESULT:    -5.701     15.450     16.151
REMARK INTER + INTRA:          -6.499
REMARK INTER:                  -6.335
REMARK INTRA:                  -0.164
REMARK UNBOUND:                -0.132
REMARK  Name = 1550473
REMARK  2 active torsions:
REMARK  status: ('A' for Active; 'I' for Inactive)
REMARK    1  A    between atoms: N_1  and  C_4
REMARK    2  A    between atoms: C_4  and  C_5
REMARK                            x       y       z     vdW  Elec       q    Type
REMARK                         _______ _______ _______ _____ _____    ______ ____
ROOT
ATOM      1  N   UNL     1      16.846  -3.810   2.691  0.00  0.00    -0.354 N 
ATOM      2  N   UNL     1      16.921  -3.485   0.399  0.00  0.00    -0.372 N 
ATOM      3  N   UNL     1      15.507  -5.081   1.247  0.00  0.00    -0.372 N 
ATOM      4  C   UNL     1      16.422  -4.130   1.461  0.00  0.00    +0.166 C 
ATOM      5  H   UNL     1      17.564  -3.101   2.784  0.00  0.00    +0.163 HD
ATOM      6  H   UNL     1      16.618  -3.702  -0.541  0.00  0.00    +0.159 HD
ATOM      7  H   UNL     1      17.604  -2.745   0.498  0.00  0.00    +0.159 HD
ATOM      8  H   UNL     1      15.096  -5.609   2.005  0.00  0.00    +0.159 HD
ATOM      9  H   UNL     1      15.199  -5.321   0.313  0.00  0.00    +0.159 HD
ENDROOT
BRANCH   1  10
ATOM     10  C   UNL     1      16.328  -4.415   3.917  0.00  0.00    +0.151 C 
BRANCH  10  11
ATOM     11  C   UNL     1      15.541  -3.384   4.678  0.00  0.00    -0.028 A 
ATOM     12  C   UNL     1      14.139  -3.385   4.638  0.00  0.00    +0.005 A 
ATOM     13  C   UNL     1      16.192  -2.407   5.447  0.00  0.00    +0.005 A 
ATOM     14  C   UNL     1      13.407  -2.447   5.369  0.00  0.00    +0.000 A 
ATOM     15  C   UNL     1      15.457  -1.470   6.175  0.00  0.00    +0.000 A 
ATOM     16  C   UNL     1      14.065  -1.492   6.138  0.00  0.00    +0.000 A 
ENDBRANCH  10  11
ENDBRANCH   1  10
TORSDOF 2
ENDMDL
MODEL 3
REMARK VINA RESULT:    -5.354      6.857      7.510
REMARK INTER + INTRA:          -6.112
REMARK INTER:                  -5.937
REMARK INTRA:                  -0.175
REMARK UNBOUND:                -0.132
REMARK  Name = 1550473
REMARK  2 active torsions:
REMARK  status: ('A' for Active; 'I' for Inactive)
REMARK    1  A    between atoms: N_1  and  C_4
REMARK    2  A    between atoms: C_4  and  C_5
REMARK                            x       y       z     vdW  Elec       q    Type
REMARK                         _______ _______ _______ _____ _____    ______ ____
ROOT
ATOM      1  N   UNL     1       1.032  -2.699  -7.437  0.00  0.00    -0.354 N 
ATOM      2  N   UNL     1       1.425  -0.810  -6.156  0.00  0.00    -0.372 N 
ATOM      3  N   UNL     1       1.799  -2.875  -5.229  0.00  0.00    -0.372 N 
ATOM      4  C   UNL     1       1.417  -2.142  -6.280  0.00  0.00    +0.166 C 
ATOM      5  H   UNL     1       0.725  -2.089  -8.186  0.00  0.00    +0.163 HD
ATOM      6  H   UNL     1       1.713  -0.361  -5.296  0.00  0.00    +0.159 HD
ATOM      7  H   UNL     1       1.161  -0.201  -6.921  0.00  0.00    +0.159 HD
ATOM      8  H   UNL     1       1.810  -3.886  -5.257  0.00  0.00    +0.159 HD
ATOM      9  H   UNL     1       2.080  -2.445  -4.357  0.00  0.00    +0.159 HD
ENDROOT
BRANCH   1  10
ATOM     10  C   UNL     1       1.038  -4.138  -7.694  0.00  0.00    +0.151 C 
BRANCH  10  11
ATOM     11  C   UNL     1       2.177  -4.466  -8.620  0.00  0.00    -0.028 A 
ATOM     12  C   UNL     1       3.448  -4.764  -8.108  0.00  0.00    +0.005 A 
ATOM     13  C   UNL     1       1.988  -4.488 -10.011  0.00  0.00    +0.005 A 
ATOM     14  C   UNL     1       4.498  -5.099  -8.967  0.00  0.00    +0.000 A 
ATOM     15  C   UNL     1       3.039  -4.821 -10.865  0.00  0.00    +0.000 A 
ATOM     16  C   UNL     1       4.293  -5.129 -10.342  0.00  0.00    +0.000 A 
ENDBRANCH  10  11
ENDBRANCH   1  10
TORSDOF 2
ENDMDL
MODEL 4
REMARK VINA RESULT:    -5.035     22.099     23.694
REMARK INTER + INTRA:          -5.756
REMARK INTER:                  -5.616
REMARK INTRA:                  -0.140
REMARK UNBOUND:                -0.132
REMARK  Name = 1550473
REMARK  2 active torsions:
REMARK  status: ('A' for Active; 'I' for Inactive)
REMARK    1  A    between atoms: N_1  and  C_4
REMARK    2  A    between atoms: C_4  and  C_5
REMARK                            x       y       z     vdW  Elec       q    Type
REMARK                         _______ _______ _______ _____ _____    ______ ____
ROOT
ATOM      1  N   UNL     1     -15.752  -7.918  -5.319  0.00  0.00    -0.354 N 
ATOM      2  N   UNL     1     -16.954  -9.896  -5.227  0.00  0.00    -0.372 N 
ATOM      3  N   UNL     1     -18.002  -7.994  -5.968  0.00  0.00    -0.372 N 
ATOM      4  C   UNL     1     -16.897  -8.588  -5.506  0.00  0.00    +0.166 C 
ATOM      5  H   UNL     1     -14.958  -8.419  -4.937  0.00  0.00    +0.163 HD
ATOM      6  H   UNL     1     -17.803 -10.428  -5.362  0.00  0.00    +0.159 HD
ATOM      7  H   UNL     1     -16.146 -10.404  -4.890  0.00  0.00    +0.159 HD
ATOM      8  H   UNL     1     -18.027  -7.008  -6.192  0.00  0.00    +0.159 HD
ATOM      9  H   UNL     1     -18.865  -8.507  -6.098  0.00  0.00    +0.159 HD
ENDROOT
BRANCH   1  10
ATOM     10  C   UNL     1     -15.569  -6.504  -5.642  0.00  0.00    +0.151 C 
BRANCH  10  11
ATOM     11  C   UNL     1     -14.879  -5.823  -4.493  0.00  0.00    -0.028 A 
ATOM     12  C   UNL     1     -14.028  -4.730  -4.720  0.00  0.00    +0.005 A 
ATOM     13  C   UNL     1     -15.075  -6.261  -3.175  0.00  0.00    +0.005 A 
ATOM     14  C   UNL     1     -13.410  -4.078  -3.650  0.00  0.00    +0.000 A 
ATOM     15  C   UNL     1     -14.455  -5.607  -2.109  0.00  0.00    +0.000 A 
ATOM     16  C   UNL     1     -13.625  -4.515  -2.347  0.00  0.00    +0.000 A 
ENDBRANCH  10  11
ENDBRANCH   1  10
TORSDOF 2
ENDMDL
MODEL 5
REMARK VINA RESULT:    -5.019      1.490      2.199
REMARK INTER + INTRA:          -5.738
REMARK INTER:                  -5.613
REMARK INTRA:                  -0.125
REMARK UNBOUND:                -0.132
REMARK  Name = 1550473
REMARK  2 active torsions:
REMARK  status: ('A' for Active; 'I' for Inactive)
REMARK    1  A    between atoms: N_1  and  C_4
REMARK    2  A    between atoms: C_4  and  C_5
REMARK                            x       y       z     vdW  Elec       q    Type
REMARK                         _______ _______ _______ _____ _____    ______ ____
ROOT
ATOM      1  N   UNL     1       5.090  -1.756  -8.109  0.00  0.00    -0.354 N 
ATOM      2  N   UNL     1       3.646  -3.277  -9.092  0.00  0.00    -0.372 N 
ATOM      3  N   UNL     1       3.172  -2.498  -6.986  0.00  0.00    -0.372 N 
ATOM      4  C   UNL     1       3.978  -2.500  -8.053  0.00  0.00    +0.166 C 
ATOM      5  H   UNL     1       5.675  -1.825  -8.934  0.00  0.00    +0.163 HD
ATOM      6  H   UNL     1       2.811  -3.847  -9.080  0.00  0.00    +0.159 HD
ATOM      7  H   UNL     1       4.208  -3.309  -9.934  0.00  0.00    +0.159 HD
ATOM      8  H   UNL     1       3.369  -1.938  -6.167  0.00  0.00    +0.159 HD
ATOM      9  H   UNL     1       2.337  -3.070  -6.951  0.00  0.00    +0.159 HD
ENDROOT
BRANCH   1  10
ATOM     10  C   UNL     1       5.512  -0.836  -7.054  0.00  0.00    +0.151 C 
BRANCH  10  11
ATOM     11  C   UNL     1       6.023   0.431  -7.683  0.00  0.00    -0.028 A 
ATOM     12  C   UNL     1       5.856   1.664  -7.036  0.00  0.00    +0.005 A 
ATOM     13  C   UNL     1       6.680   0.404  -8.922  0.00  0.00    +0.005 A 
ATOM     14  C   UNL     1       6.357   2.837  -7.605  0.00  0.00    +0.000 A 
ATOM     15  C   UNL     1       7.178   1.578  -9.488  0.00  0.00    +0.000 A 
ATOM     16  C   UNL     1       7.019   2.794  -8.828  0.00  0.00    +0.000 A 
ENDBRANCH  10  11
ENDBRANCH   1  10
TORSDOF 2
ENDMDL
MODEL 6
REMARK VINA RESULT:    -5.014      2.914      5.030
REMARK INTER + INTRA:          -5.732
REMARK INTER:                  -5.613
REMARK INTRA:                  -0.119
REMARK UNBOUND:                -0.132
REMARK  Name = 1550473
REMARK  2 active torsions:
REMARK  status: ('A' for Active; 'I' for Inactive)
REMARK    1  A    between atoms: N_1  and  C_4
REMARK    2  A    between atoms: C_4  and  C_5
REMARK                            x       y       z     vdW  Elec       q    Type
REMARK                         _______ _______ _______ _____ _____    ______ ____
ROOT
ATOM      1  N   UNL     1       8.661   1.123  -9.722  0.00  0.00    -0.354 N 
ATOM      2  N   UNL     1      10.366   0.577 -11.192  0.00  0.00    -0.372 N 
ATOM      3  N   UNL     1       9.202   2.528 -11.518  0.00  0.00    -0.372 N 
ATOM      4  C   UNL     1       9.398   1.415 -10.802  0.00  0.00    +0.166 C 
ATOM      5  H   UNL     1       8.839   0.250  -9.240  0.00  0.00    +0.163 HD
ATOM      6  H   UNL     1      10.940   0.773 -12.001  0.00  0.00    +0.159 HD
ATOM      7  H   UNL     1      10.572  -0.273 -10.682  0.00  0.00    +0.159 HD
ATOM      8  H   UNL     1       8.484   3.199 -11.280  0.00  0.00    +0.159 HD
ATOM      9  H   UNL     1       9.759   2.735 -12.338  0.00  0.00    +0.159 HD
ENDROOT
BRANCH   1  10
ATOM     10  C   UNL     1       7.619   1.995  -9.183  0.00  0.00    +0.151 C 
BRANCH  10  11
ATOM     11  C   UNL     1       6.668   1.172  -8.359  0.00  0.00    -0.028 A 
ATOM     12  C   UNL     1       6.210  -0.069  -8.827  0.00  0.00    +0.005 A 
ATOM     13  C   UNL     1       6.225   1.624  -7.106  0.00  0.00    +0.005 A 
ATOM     14  C   UNL     1       5.350  -0.847  -8.049  0.00  0.00    +0.000 A 
ATOM     15  C   UNL     1       5.365   0.844  -6.333  0.00  0.00    +0.000 A 
ATOM     16  C   UNL     1       4.930  -0.393  -6.803  0.00  0.00    +0.000 A 
ENDBRANCH  10  11
ENDBRANCH   1  10
TORSDOF 2
ENDMDL
MODEL 7
REMARK VINA RESULT:    -4.964     11.729     13.122
REMARK INTER + INTRA:          -5.677
REMARK INTER:                  -5.565
REMARK INTRA:                  -0.112
REMARK UNBOUND:                -0.132
REMARK  Name = 1550473
REMARK  2 active torsions:
REMARK  status: ('A' for Active; 'I' for Inactive)
REMARK    1  A    between atoms: N_1  and  C_4
REMARK    2  A    between atoms: C_4  and  C_5
REMARK                            x       y       z     vdW  Elec       q    Type
REMARK                         _______ _______ _______ _____ _____    ______ ____
ROOT
ATOM      1  N   UNL     1       0.378  -9.600 -13.285  0.00  0.00    -0.354 N 
ATOM      2  N   UNL     1      -0.850 -10.572 -14.991  0.00  0.00    -0.372 N 
ATOM      3  N   UNL     1       0.144  -8.538 -15.360  0.00  0.00    -0.372 N 
ATOM      4  C   UNL     1      -0.101  -9.561 -14.535  0.00  0.00    +0.166 C 
ATOM      5  H   UNL     1       0.131 -10.390 -12.699  0.00  0.00    +0.163 HD
ATOM      6  H   UNL     1      -1.222 -10.572 -15.931  0.00  0.00    +0.159 HD
ATOM      7  H   UNL     1      -1.057 -11.382 -14.419  0.00  0.00    +0.159 HD
ATOM      8  H   UNL     1       0.698  -7.741 -15.076  0.00  0.00    +0.159 HD
ATOM      9  H   UNL     1      -0.229  -8.514 -16.301  0.00  0.00    +0.159 HD
ENDROOT
BRANCH   1  10
ATOM     10  C   UNL     1       1.248  -8.576 -12.710  0.00  0.00    +0.151 C 
BRANCH  10  11
ATOM     11  C   UNL     1       2.645  -9.121 -12.603  0.00  0.00    -0.028 A 
ATOM     12  C   UNL     1       2.904 -10.473 -12.874  0.00  0.00    +0.005 A 
ATOM     13  C   UNL     1       3.716  -8.291 -12.238  0.00  0.00    +0.005 A 
ATOM     14  C   UNL     1       4.206 -10.974 -12.804  0.00  0.00    +0.000 A 
ATOM     15  C   UNL     1       5.014  -8.795 -12.168  0.00  0.00    +0.000 A 
ATOM     16  C   UNL     1       5.260 -10.136 -12.454  0.00  0.00    +0.000 A 
ENDBRANCH  10  11
ENDBRANCH   1  10
TORSDOF 2
ENDMDL
MODEL 8
REMARK VINA RESULT:    -4.932      3.562      4.709
REMARK INTER + INTRA:          -5.641
REMARK INTER:                  -5.539
REMARK INTRA:                  -0.102
REMARK UNBOUND:                -0.132
REMARK  Name = 1550473
REMARK  2 active torsions:
REMARK  status: ('A' for Active; 'I' for Inactive)
REMARK    1  A    between atoms: N_1  and  C_4
REMARK    2  A    between atoms: C_4  and  C_5
REMARK                            x       y       z     vdW  Elec       q    Type
REMARK                         _______ _______ _______ _____ _____    ______ ____
ROOT
ATOM      1  N   UNL     1      10.362   1.937 -11.013  0.00  0.00    -0.354 N 
ATOM      2  N   UNL     1      12.474   1.323 -10.287  0.00  0.00    -0.372 N 
ATOM      3  N   UNL     1      10.669   0.062  -9.641  0.00  0.00    -0.372 N 
ATOM      4  C   UNL     1      11.153   1.109 -10.317  0.00  0.00    +0.166 C 
ATOM      5  H   UNL     1      10.787   2.730 -11.479  0.00  0.00    +0.163 HD
ATOM      6  H   UNL     1      13.096   0.714  -9.773  0.00  0.00    +0.159 HD
ATOM      7  H   UNL     1      12.902   2.090 -10.792  0.00  0.00    +0.159 HD
ATOM      8  H   UNL     1       9.681  -0.150  -9.618  0.00  0.00    +0.159 HD
ATOM      9  H   UNL     1      11.275  -0.552  -9.111  0.00  0.00    +0.159 HD
ENDROOT
BRANCH   1  10
ATOM     10  C   UNL     1       8.918   1.762 -11.154  0.00  0.00    +0.151 C 
BRANCH  10  11
ATOM     11  C   UNL     1       8.232   2.359  -9.957  0.00  0.00    -0.028 A 
ATOM     12  C   UNL     1       7.377   1.580  -9.163  0.00  0.00    +0.005 A 
ATOM     13  C   UNL     1       8.436   3.703  -9.607  0.00  0.00    +0.005 A 
ATOM     14  C   UNL     1       6.763   2.127  -8.034  0.00  0.00    +0.000 A 
ATOM     15  C   UNL     1       7.821   4.245  -8.479  0.00  0.00    +0.000 A 
ATOM     16  C   UNL     1       6.986   3.456  -7.691  0.00  0.00    +0.000 A 
ENDBRANCH  10  11
ENDBRANCH   1  10
TORSDOF 2
ENDMDL
MODEL 9
REMARK VINA RESULT:    -4.754     14.662     15.614
REMARK INTER + INTRA:          -5.442
REMARK INTER:                  -5.298
REMARK INTRA:                  -0.144
REMARK UNBOUND:                -0.132
REMARK  Name = 1550473
REMARK  2 active torsions:
REMARK  status: ('A' for Active; 'I' for Inactive)
REMARK    1  A    between atoms: N_1  and  C_4
REMARK    2  A    between atoms: C_4  and  C_5
REMARK                            x       y       z     vdW  Elec       q    Type
REMARK                         _______ _______ _______ _____ _____    ______ ____
ROOT
ATOM      1  N   UNL     1       1.054  15.900  -7.831  0.00  0.00    -0.354 N 
ATOM      2  N   UNL     1       0.233  14.249  -9.234  0.00  0.00    -0.372 N 
ATOM      3  N   UNL     1       2.503  14.558  -9.093  0.00  0.00    -0.372 N 
ATOM      4  C   UNL     1       1.271  14.913  -8.711  0.00  0.00    +0.166 C 
ATOM      5  H   UNL     1       0.095  16.141  -7.605  0.00  0.00    +0.163 HD
ATOM      6  H   UNL     1       0.367  13.498  -9.897  0.00  0.00    +0.159 HD
ATOM      7  H   UNL     1      -0.722  14.462  -8.972  0.00  0.00    +0.159 HD
ATOM      8  H   UNL     1       3.328  15.023  -8.739  0.00  0.00    +0.159 HD
ATOM      9  H   UNL     1       2.656  13.816  -9.764  0.00  0.00    +0.159 HD
ENDROOT
BRANCH   1  10
ATOM     10  C   UNL     1       2.116  16.648  -7.162  0.00  0.00    +0.151 C 
BRANCH  10  11
ATOM     11  C   UNL     1       2.159  16.252  -5.712  0.00  0.00    -0.028 A 
ATOM     12  C   UNL     1       3.288  16.534  -4.930  0.00  0.00    +0.005 A 
ATOM     13  C   UNL     1       1.070  15.600  -5.113  0.00  0.00    +0.005 A 
ATOM     14  C   UNL     1       3.316  16.193  -3.575  0.00  0.00    +0.000 A 
ATOM     15  C   UNL     1       1.103  15.260  -3.761  0.00  0.00    +0.000 A 
ATOM     16  C   UNL     1       2.225  15.559  -2.992  0.00  0.00    +0.000 A 
ENDBRANCH  10  11
ENDBRANCH   1  10
TORSDOF 2
ENDMDL
