MODEL 1
REMARK VINA RESULT:    -5.147      0.000      0.000
REMARK INTER + INTRA:          -5.876
REMARK INTER:                  -5.748
REMARK INTRA:                  -0.128
REMARK UNBOUND:                -0.128
REMARK  Name = 1550473
REMARK  2 active torsions:
REMARK  status: ('A' for Active; 'I' for Inactive)
REMARK    1  A    between atoms: N_1  and  C_4
REMARK    2  A    between atoms: C_4  and  C_5
REMARK                            x       y       z     vdW  Elec       q    Type
REMARK                         _______ _______ _______ _____ _____    ______ ____
ROOT
ATOM      1  N   UNL     1      -4.089  17.331  -1.249  0.00  0.00    -0.354 N 
ATOM      2  N   UNL     1      -5.560  18.049  -2.888  0.00  0.00    -0.372 N 
ATOM      3  N   UNL     1      -5.852  18.787  -0.735  0.00  0.00    -0.372 N 
ATOM      4  C   UNL     1      -5.159  18.052  -1.611  0.00  0.00    +0.166 C 
ATOM      5  H   UNL     1      -3.625  16.771  -1.955  0.00  0.00    +0.163 HD
ATOM      6  H   UNL     1      -6.362  18.586  -3.191  0.00  0.00    +0.159 HD
ATOM      7  H   UNL     1      -5.067  17.525  -3.600  0.00  0.00    +0.159 HD
ATOM      8  H   UNL     1      -5.605  18.827   0.245  0.00  0.00    +0.159 HD
ATOM      9  H   UNL     1      -6.664  19.322  -1.017  0.00  0.00    +0.159 HD
ENDROOT
BRANCH   1  10
ATOM     10  C   UNL     1      -3.538  17.309   0.104  0.00  0.00    +0.151 C 
BRANCH  10  11
ATOM     11  C   UNL     1      -2.088  16.918   0.038  0.00  0.00    -0.028 A 
ATOM     12  C   UNL     1      -1.501  16.564  -1.186  0.00  0.00    +0.005 A 
ATOM     13  C   UNL     1      -1.293  16.904   1.194  0.00  0.00    +0.005 A 
ATOM     14  C   UNL     1      -0.146  16.230  -1.253  0.00  0.00    +0.000 A 
ATOM     15  C   UNL     1       0.059  16.569   1.123  0.00  0.00    +0.000 A 
ATOM     16  C   UNL     1       0.632  16.234  -0.101  0.00  0.00    +0.000 A 
ENDBRANCH  10  11
ENDBRANCH   1  10
TORSDOF 2
ENDMDL
MODEL 2
REMARK VINA RESULT:    -4.905     20.667     21.920
REMARK INTER + INTRA:          -5.606
REMARK INTER:                  -5.504
REMARK INTRA:                  -0.102
REMARK UNBOUND:                -0.128
REMARK  Name = 1550473
REMARK  2 active torsions:
REMARK  status: ('A' for Active; 'I' for Inactive)
REMARK    1  A    between atoms: N_1  and  C_4
REMARK    2  A    between atoms: C_4  and  C_5
REMARK                            x       y       z     vdW  Elec       q    Type
REMARK                         _______ _______ _______ _____ _____    ______ ____
ROOT
ATOM      1  N   UNL     1      -0.017  17.559  19.900  0.00  0.00    -0.354 N 
ATOM      2  N   UNL     1      -1.121  17.972  17.906  0.00  0.00    -0.372 N 
ATOM      3  N   UNL     1      -2.211  18.385  19.883  0.00  0.00    -0.372 N 
ATOM      4  C   UNL     1      -1.111  17.970  19.245  0.00  0.00    +0.166 C 
ATOM      5  H   UNL     1       0.772  17.228  19.358  0.00  0.00    +0.163 HD
ATOM      6  H   UNL     1      -1.931  18.279  17.384  0.00  0.00    +0.159 HD
ATOM      7  H   UNL     1      -0.314  17.683  17.367  0.00  0.00    +0.159 HD
ATOM      8  H   UNL     1      -2.269  18.402  20.892  0.00  0.00    +0.159 HD
ATOM      9  H   UNL     1      -3.035  18.685  19.378  0.00  0.00    +0.159 HD
ENDROOT
BRANCH   1  10
ATOM     10  C   UNL     1       0.115  17.569  21.356  0.00  0.00    +0.151 C 
BRANCH  10  11
ATOM     11  C   UNL     1       1.017  16.441  21.775  0.00  0.00    -0.028 A 
ATOM     12  C   UNL     1       0.483  15.186  22.100  0.00  0.00    +0.005 A 
ATOM     13  C   UNL     1       2.407  16.619  21.843  0.00  0.00    +0.005 A 
ATOM     14  C   UNL     1       1.322  14.129  22.460  0.00  0.00    +0.000 A 
ATOM     15  C   UNL     1       3.242  15.562  22.204  0.00  0.00    +0.000 A 
ATOM     16  C   UNL     1       2.699  14.316  22.510  0.00  0.00    +0.000 A 
ENDBRANCH  10  11
ENDBRANCH   1  10
TORSDOF 2
ENDMDL
MODEL 3
REMARK VINA RESULT:    -4.894     13.450     14.339
REMARK INTER + INTRA:          -5.594
REMARK INTER:                  -5.473
REMARK INTRA:                  -0.121
REMARK UNBOUND:                -0.128
REMARK  Name = 1550473
REMARK  2 active torsions:
REMARK  status: ('A' for Active; 'I' for Inactive)
REMARK    1  A    between atoms: N_1  and  C_4
REMARK    2  A    between atoms: C_4  and  C_5
REMARK                            x       y       z     vdW  Elec       q    Type
REMARK                         _______ _______ _______ _____ _____    ______ ____
ROOT
ATOM      1  N   UNL     1      -1.033   3.440  -0.977  0.00  0.00    -0.354 N 
ATOM      2  N   UNL     1      -2.834   3.446  -2.433  0.00  0.00    -0.372 N 
ATOM      3  N   UNL     1      -2.313   5.375  -1.306  0.00  0.00    -0.372 N 
ATOM      4  C   UNL     1      -2.049   4.090  -1.561  0.00  0.00    +0.166 C 
ATOM      5  H   UNL     1      -0.904   2.458  -1.190  0.00  0.00    +0.163 HD
ATOM      6  H   UNL     1      -3.606   3.911  -2.892  0.00  0.00    +0.159 HD
ATOM      7  H   UNL     1      -2.675   2.476  -2.678  0.00  0.00    +0.159 HD
ATOM      8  H   UNL     1      -1.761   5.916  -0.654  0.00  0.00    +0.159 HD
ATOM      9  H   UNL     1      -3.088   5.855  -1.747  0.00  0.00    +0.159 HD
ENDROOT
BRANCH   1  10
ATOM     10  C   UNL     1      -0.086   4.064  -0.055  0.00  0.00    +0.151 C 
BRANCH  10  11
ATOM     11  C   UNL     1       1.219   3.320  -0.113  0.00  0.00    -0.028 A 
ATOM     12  C   UNL     1       1.898   2.979   1.066  0.00  0.00    +0.005 A 
ATOM     13  C   UNL     1       1.780   2.946  -1.344  0.00  0.00    +0.005 A 
ATOM     14  C   UNL     1       3.096   2.262   1.014  0.00  0.00    +0.000 A 
ATOM     15  C   UNL     1       2.976   2.230  -1.392  0.00  0.00    +0.000 A 
ATOM     16  C   UNL     1       3.632   1.886  -0.213  0.00  0.00    +0.000 A 
ENDBRANCH  10  11
ENDBRANCH   1  10
TORSDOF 2
ENDMDL
MODEL 4
REMARK VINA RESULT:    -4.808     14.026     14.954
REMARK INTER + INTRA:          -5.498
REMARK INTER:                  -5.376
REMARK INTRA:                  -0.122
REMARK UNBOUND:                -0.128
REMARK  Name = 1550473
REMARK  2 active torsions:
REMARK  status: ('A' for Active; 'I' for Inactive)
REMARK    1  A    between atoms: N_1  and  C_4
REMARK    2  A    between atoms: C_4  and  C_5
REMARK                            x       y       z     vdW  Elec       q    Type
REMARK                         _______ _______ _______ _____ _____    ______ ____
ROOT
ATOM      1  N   UNL     1       0.116   3.294  -1.347  0.00  0.00    -0.354 N 
ATOM      2  N   UNL     1      -1.687   3.812  -2.705  0.00  0.00    -0.372 N 
ATOM      3  N   UNL     1      -1.303   5.087  -0.837  0.00  0.00    -0.372 N 
ATOM      4  C   UNL     1      -0.946   4.063  -1.619  0.00  0.00    +0.166 C 
ATOM      5  H   UNL     1       0.316   2.514  -1.963  0.00  0.00    +0.163 HD
ATOM      6  H   UNL     1      -2.492   4.377  -2.938  0.00  0.00    +0.159 HD
ATOM      7  H   UNL     1      -1.458   3.060  -3.344  0.00  0.00    +0.159 HD
ATOM      8  H   UNL     1      -0.789   5.325   0.001  0.00  0.00    +0.159 HD
ATOM      9  H   UNL     1      -2.113   5.657  -1.046  0.00  0.00    +0.159 HD
ENDROOT
BRANCH   1  10
ATOM     10  C   UNL     1       1.019   3.515  -0.219  0.00  0.00    +0.151 C 
BRANCH  10  11
ATOM     11  C   UNL     1       2.256   2.681  -0.408  0.00  0.00    -0.028 A 
ATOM     12  C   UNL     1       2.631   2.244  -1.687  0.00  0.00    +0.005 A 
ATOM     13  C   UNL     1       3.060   2.329   0.687  0.00  0.00    +0.005 A 
ATOM     14  C   UNL     1       3.796   1.494  -1.867  0.00  0.00    +0.000 A 
ATOM     15  C   UNL     1       4.222   1.579   0.503  0.00  0.00    +0.000 A 
ATOM     16  C   UNL     1       4.591   1.164  -0.775  0.00  0.00    +0.000 A 
ENDBRANCH  10  11
ENDBRANCH   1  10
TORSDOF 2
ENDMDL
MODEL 5
REMARK VINA RESULT:    -4.727     13.621     14.703
REMARK INTER + INTRA:          -5.408
REMARK INTER:                  -5.246
REMARK INTRA:                  -0.162
REMARK UNBOUND:                -0.128
REMARK  Name = 1550473
REMARK  2 active torsions:
REMARK  status: ('A' for Active; 'I' for Inactive)
REMARK    1  A    between atoms: N_1  and  C_4
REMARK    2  A    between atoms: C_4  and  C_5
REMARK                            x       y       z     vdW  Elec       q    Type
REMARK                         _______ _______ _______ _____ _____    ______ ____
ROOT
ATOM      1  N   UNL     1       0.763   4.646   0.291  0.00  0.00    -0.354 N 
ATOM      2  N   UNL     1       1.098   6.917  -0.013  0.00  0.00    -0.372 N 
ATOM      3  N   UNL     1       2.190   5.855   1.703  0.00  0.00    -0.372 N 
ATOM      4  C   UNL     1       1.350   5.791   0.665  0.00  0.00    +0.166 C 
ATOM      5  H   UNL     1       0.113   4.669  -0.486  0.00  0.00    +0.163 HD
ATOM      6  H   UNL     1       1.528   7.795   0.243  0.00  0.00    +0.159 HD
ATOM      7  H   UNL     1       0.483   6.929  -0.818  0.00  0.00    +0.159 HD
ATOM      8  H   UNL     1       2.417   5.042   2.260  0.00  0.00    +0.159 HD
ATOM      9  H   UNL     1       2.621   6.727   1.982  0.00  0.00    +0.159 HD
ENDROOT
BRANCH   1  10
ATOM     10  C   UNL     1       1.012   3.354   0.929  0.00  0.00    +0.151 C 
BRANCH  10  11
ATOM     11  C   UNL     1       2.155   2.672   0.228  0.00  0.00    -0.028 A 
ATOM     12  C   UNL     1       2.151   2.529  -1.167  0.00  0.00    +0.005 A 
ATOM     13  C   UNL     1       3.247   2.172   0.954  0.00  0.00    +0.005 A 
ATOM     14  C   UNL     1       3.226   1.922  -1.820  0.00  0.00    +0.000 A 
ATOM     15  C   UNL     1       4.318   1.566   0.298  0.00  0.00    +0.000 A 
ATOM     16  C   UNL     1       4.309   1.444  -1.090  0.00  0.00    +0.000 A 
ENDBRANCH  10  11
ENDBRANCH   1  10
TORSDOF 2
ENDMDL
MODEL 6
REMARK VINA RESULT:    -4.658     12.532     13.404
REMARK INTER + INTRA:          -5.331
REMARK INTER:                  -5.187
REMARK INTRA:                  -0.144
REMARK UNBOUND:                -0.128
REMARK  Name = 1550473
REMARK  2 active torsions:
REMARK  status: ('A' for Active; 'I' for Inactive)
REMARK    1  A    between atoms: N_1  and  C_4
REMARK    2  A    between atoms: C_4  and  C_5
REMARK                            x       y       z     vdW  Elec       q    Type
REMARK                         _______ _______ _______ _____ _____    ______ ____
ROOT
ATOM      1  N   UNL     1      -1.363   4.536  -0.919  0.00  0.00    -0.354 N 
ATOM      2  N   UNL     1      -2.703   3.422  -2.444  0.00  0.00    -0.372 N 
ATOM      3  N   UNL     1      -1.178   4.952  -3.218  0.00  0.00    -0.372 N 
ATOM      4  C   UNL     1      -1.738   4.312  -2.186  0.00  0.00    +0.166 C 
ATOM      5  H   UNL     1      -1.847   4.042  -0.179  0.00  0.00    +0.163 HD
ATOM      6  H   UNL     1      -3.005   3.229  -3.390  0.00  0.00    +0.159 HD
ATOM      7  H   UNL     1      -3.154   2.895  -1.706  0.00  0.00    +0.159 HD
ATOM      8  H   UNL     1      -0.449   5.640  -3.090  0.00  0.00    +0.159 HD
ATOM      9  H   UNL     1      -1.475   4.781  -4.171  0.00  0.00    +0.159 HD
ENDROOT
BRANCH   1  10
ATOM     10  C   UNL     1      -0.285   5.446  -0.535  0.00  0.00    +0.151 C 
BRANCH  10  11
ATOM     11  C   UNL     1       0.762   4.675   0.222  0.00  0.00    -0.028 A 
ATOM     12  C   UNL     1       0.543   3.335   0.574  0.00  0.00    +0.005 A 
ATOM     13  C   UNL     1       1.976   5.277   0.584  0.00  0.00    +0.005 A 
ATOM     14  C   UNL     1       1.527   2.610   1.250  0.00  0.00    +0.000 A 
ATOM     15  C   UNL     1       2.956   4.550   1.260  0.00  0.00    +0.000 A 
ATOM     16  C   UNL     1       2.732   3.215   1.590  0.00  0.00    +0.000 A 
ENDBRANCH  10  11
ENDBRANCH   1  10
TORSDOF 2
ENDMDL
MODEL 7
REMARK VINA RESULT:    -4.647      1.995      2.319
REMARK INTER + INTRA:          -5.318
REMARK INTER:                  -5.192
REMARK INTRA:                  -0.126
REMARK UNBOUND:                -0.128
REMARK  Name = 1550473
REMARK  2 active torsions:
REMARK  status: ('A' for Active; 'I' for Inactive)
REMARK    1  A    between atoms: N_1  and  C_4
REMARK    2  A    between atoms: C_4  and  C_5
REMARK                            x       y       z     vdW  Elec       q    Type
REMARK                         _______ _______ _______ _____ _____    ______ ____
ROOT
ATOM      1  N   UNL     1      -5.249  16.874   0.463  0.00  0.00    -0.354 N 
ATOM      2  N   UNL     1      -6.892  15.494   1.336  0.00  0.00    -0.372 N 
ATOM      3  N   UNL     1      -7.025  16.120  -0.868  0.00  0.00    -0.372 N 
ATOM      4  C   UNL     1      -6.379  16.172   0.302  0.00  0.00    +0.166 C 
ATOM      5  H   UNL     1      -4.824  16.898   1.382  0.00  0.00    +0.163 HD
ATOM      6  H   UNL     1      -7.741  14.953   1.244  0.00  0.00    +0.159 HD
ATOM      7  H   UNL     1      -6.440  15.483   2.242  0.00  0.00    +0.159 HD
ATOM      8  H   UNL     1      -6.694  16.614  -1.685  0.00  0.00    +0.159 HD
ATOM      9  H   UNL     1      -7.883  15.593  -0.976  0.00  0.00    +0.159 HD
ENDROOT
BRANCH   1  10
ATOM     10  C   UNL     1      -4.580  17.602  -0.613  0.00  0.00    +0.151 C 
BRANCH  10  11
ATOM     11  C   UNL     1      -3.131  17.200  -0.651  0.00  0.00    -0.028 A 
ATOM     12  C   UNL     1      -2.513  16.877  -1.868  0.00  0.00    +0.005 A 
ATOM     13  C   UNL     1      -2.369  17.146   0.526  0.00  0.00    +0.005 A 
ATOM     14  C   UNL     1      -1.160  16.533  -1.908  0.00  0.00    +0.000 A 
ATOM     15  C   UNL     1      -1.018  16.801   0.483  0.00  0.00    +0.000 A 
ATOM     16  C   UNL     1      -0.414  16.497  -0.735  0.00  0.00    +0.000 A 
ENDBRANCH  10  11
ENDBRANCH   1  10
TORSDOF 2
ENDMDL
MODEL 8
REMARK VINA RESULT:    -4.632     13.801     14.885
REMARK INTER + INTRA:          -5.301
REMARK INTER:                  -5.130
REMARK INTRA:                  -0.171
REMARK UNBOUND:                -0.128
REMARK  Name = 1550473
REMARK  2 active torsions:
REMARK  status: ('A' for Active; 'I' for Inactive)
REMARK    1  A    between atoms: N_1  and  C_4
REMARK    2  A    between atoms: C_4  and  C_5
REMARK                            x       y       z     vdW  Elec       q    Type
REMARK                         _______ _______ _______ _____ _____    ______ ____
ROOT
ATOM      1  N   UNL     1       0.849   2.692   0.001  0.00  0.00    -0.354 N 
ATOM      2  N   UNL     1      -0.548   3.659  -1.573  0.00  0.00    -0.372 N 
ATOM      3  N   UNL     1      -0.253   4.712   0.445  0.00  0.00    -0.372 N 
ATOM      4  C   UNL     1       0.025   3.683  -0.363  0.00  0.00    +0.166 C 
ATOM      5  H   UNL     1       0.995   1.925  -0.646  0.00  0.00    +0.163 HD
ATOM      6  H   UNL     1      -1.172   4.395  -1.877  0.00  0.00    +0.159 HD
ATOM      7  H   UNL     1      -0.365   2.915  -2.235  0.00  0.00    +0.159 HD
ATOM      8  H   UNL     1       0.143   4.786   1.372  0.00  0.00    +0.159 HD
ATOM      9  H   UNL     1      -0.883   5.452   0.163  0.00  0.00    +0.159 HD
ENDROOT
BRANCH   1  10
ATOM     10  C   UNL     1       1.566   2.650   1.274  0.00  0.00    +0.151 C 
BRANCH  10  11
ATOM     11  C   UNL     1       3.029   2.891   1.023  0.00  0.00    -0.028 A 
ATOM     12  C   UNL     1       3.856   1.848   0.582  0.00  0.00    +0.005 A 
ATOM     13  C   UNL     1       3.592   4.161   1.217  0.00  0.00    +0.005 A 
ATOM     14  C   UNL     1       5.209   2.078   0.320  0.00  0.00    +0.000 A 
ATOM     15  C   UNL     1       4.943   4.387   0.955  0.00  0.00    +0.000 A 
ATOM     16  C   UNL     1       5.751   3.346   0.504  0.00  0.00    +0.000 A 
ENDBRANCH  10  11
ENDBRANCH   1  10
TORSDOF 2
ENDMDL
MODEL 9
REMARK VINA RESULT:    -4.558      1.690      2.577
REMARK INTER + INTRA:          -5.219
REMARK INTER:                  -5.071
REMARK INTRA:                  -0.148
REMARK UNBOUND:                -0.128
REMARK  Name = 1550473
REMARK  2 active torsions:
REMARK  status: ('A' for Active; 'I' for Inactive)
REMARK    1  A    between atoms: N_1  and  C_4
REMARK    2  A    between atoms: C_4  and  C_5
REMARK                            x       y       z     vdW  Elec       q    Type
REMARK                         _______ _______ _______ _____ _____    ______ ____
ROOT
ATOM      1  N   UNL     1      -6.209  17.852  -2.407  0.00  0.00    -0.354 N 
ATOM      2  N   UNL     1      -7.787  16.987  -3.865  0.00  0.00    -0.372 N 
ATOM      3  N   UNL     1      -7.870  16.379  -1.654  0.00  0.00    -0.372 N 
ATOM      4  C   UNL     1      -7.279  17.077  -2.630  0.00  0.00    +0.166 C 
ATOM      5  H   UNL     1      -5.790  18.332  -3.195  0.00  0.00    +0.163 HD
ATOM      6  H   UNL     1      -8.596  16.413  -4.063  0.00  0.00    +0.159 HD
ATOM      7  H   UNL     1      -7.393  17.504  -4.642  0.00  0.00    +0.159 HD
ATOM      8  H   UNL     1      -7.531  16.399  -0.701  0.00  0.00    +0.159 HD
ATOM      9  H   UNL     1      -8.673  15.790  -1.835  0.00  0.00    +0.159 HD
ENDROOT
BRANCH   1  10
ATOM     10  C   UNL     1      -5.612  18.061  -1.089  0.00  0.00    +0.151 C 
BRANCH  10  11
ATOM     11  C   UNL     1      -4.195  17.558  -1.107  0.00  0.00    -0.028 A 
ATOM     12  C   UNL     1      -3.564  17.249  -2.322  0.00  0.00    +0.005 A 
ATOM     13  C   UNL     1      -3.474  17.395   0.086  0.00  0.00    +0.005 A 
ATOM     14  C   UNL     1      -2.238  16.811  -2.341  0.00  0.00    +0.000 A 
ATOM     15  C   UNL     1      -2.151  16.956   0.062  0.00  0.00    +0.000 A 
ATOM     16  C   UNL     1      -1.532  16.666  -1.151  0.00  0.00    +0.000 A 
ENDBRANCH  10  11
ENDBRANCH   1  10
TORSDOF 2
ENDMDL
