MODEL 1
REMARK VINA RESULT:    -5.641      0.000      0.000
REMARK INTER + INTRA:          -6.451
REMARK INTER:                  -6.301
REMARK INTRA:                  -0.150
REMARK UNBOUND:                -0.150
REMARK  Name = 1550473
REMARK  2 active torsions:
REMARK  status: ('A' for Active; 'I' for Inactive)
REMARK    1  A    between atoms: N_1  and  C_4
REMARK    2  A    between atoms: C_4  and  C_5
REMARK                            x       y       z     vdW  Elec       q    Type
REMARK                         _______ _______ _______ _____ _____    ______ ____
ROOT
ATOM      1  N   UNL     1       1.297  -6.588  15.284  0.00  0.00    -0.354 N 
ATOM      2  N   UNL     1       2.600  -8.493  15.480  0.00  0.00    -0.372 N 
ATOM      3  N   UNL     1       3.447  -6.681  14.356  0.00  0.00    -0.372 N 
ATOM      4  C   UNL     1       2.441  -7.240  15.037  0.00  0.00    +0.166 C 
ATOM      5  H   UNL     1       0.561  -7.078  15.780  0.00  0.00    +0.163 HD
ATOM      6  H   UNL     1       3.454  -9.009  15.312  0.00  0.00    +0.159 HD
ATOM      7  H   UNL     1       1.881  -8.964  16.016  0.00  0.00    +0.159 HD
ATOM      8  H   UNL     1       3.387  -5.740  13.989  0.00  0.00    +0.159 HD
ATOM      9  H   UNL     1       4.304  -7.185  14.167  0.00  0.00    +0.159 HD
ENDROOT
BRANCH   1  10
ATOM     10  C   UNL     1       1.044  -5.203  14.892  0.00  0.00    +0.151 C 
BRANCH  10  11
ATOM     11  C   UNL     1       0.874  -4.365  16.129  0.00  0.00    -0.028 A 
ATOM     12  C   UNL     1       0.338  -4.924  17.299  0.00  0.00    +0.005 A 
ATOM     13  C   UNL     1       1.253  -3.014  16.140  0.00  0.00    +0.005 A 
ATOM     14  C   UNL     1       0.208  -4.154  18.458  0.00  0.00    +0.000 A 
ATOM     15  C   UNL     1       1.121  -2.249  17.299  0.00  0.00    +0.000 A 
ATOM     16  C   UNL     1       0.601  -2.820  18.458  0.00  0.00    +0.000 A 
ENDBRANCH  10  11
ENDBRANCH   1  10
TORSDOF 2
ENDMDL
MODEL 2
REMARK VINA RESULT:    -5.342      2.342      3.333
REMARK INTER + INTRA:          -6.117
REMARK INTER:                  -5.998
REMARK INTRA:                  -0.119
REMARK UNBOUND:                -0.150
REMARK  Name = 1550473
REMARK  2 active torsions:
REMARK  status: ('A' for Active; 'I' for Inactive)
REMARK    1  A    between atoms: N_1  and  C_4
REMARK    2  A    between atoms: C_4  and  C_5
REMARK                            x       y       z     vdW  Elec       q    Type
REMARK                         _______ _______ _______ _____ _____    ______ ____
ROOT
ATOM      1  N   UNL     1       1.502  -5.082  18.135  0.00  0.00    -0.354 N 
ATOM      2  N   UNL     1       2.820  -6.901  17.574  0.00  0.00    -0.372 N 
ATOM      3  N   UNL     1       1.588  -6.979  19.508  0.00  0.00    -0.372 N 
ATOM      4  C   UNL     1       1.960  -6.310  18.412  0.00  0.00    +0.166 C 
ATOM      5  H   UNL     1       1.846  -4.615  17.304  0.00  0.00    +0.163 HD
ATOM      6  H   UNL     1       3.180  -7.829  17.754  0.00  0.00    +0.159 HD
ATOM      7  H   UNL     1       3.127  -6.451  16.720  0.00  0.00    +0.159 HD
ATOM      8  H   UNL     1       0.946  -6.586  20.183  0.00  0.00    +0.159 HD
ATOM      9  H   UNL     1       1.946  -7.904  19.712  0.00  0.00    +0.159 HD
ENDROOT
BRANCH   1  10
ATOM     10  C   UNL     1       0.522  -4.371  18.955  0.00  0.00    +0.151 C 
BRANCH  10  11
ATOM     11  C   UNL     1       0.484  -2.928  18.535  0.00  0.00    -0.028 A 
ATOM     12  C   UNL     1       0.047  -1.937  19.427  0.00  0.00    +0.005 A 
ATOM     13  C   UNL     1       0.890  -2.543  17.247  0.00  0.00    +0.005 A 
ATOM     14  C   UNL     1       0.041  -0.593  19.047  0.00  0.00    +0.000 A 
ATOM     15  C   UNL     1       0.881  -1.199  16.872  0.00  0.00    +0.000 A 
ATOM     16  C   UNL     1       0.459  -0.225  17.773  0.00  0.00    +0.000 A 
ENDBRANCH  10  11
ENDBRANCH   1  10
TORSDOF 2
ENDMDL
MODEL 3
REMARK VINA RESULT:    -5.172     20.813     22.237
REMARK INTER + INTRA:          -5.927
REMARK INTER:                  -5.752
REMARK INTRA:                  -0.175
REMARK UNBOUND:                -0.150
REMARK  Name = 1550473
REMARK  2 active torsions:
REMARK  status: ('A' for Active; 'I' for Inactive)
REMARK    1  A    between atoms: N_1  and  C_4
REMARK    2  A    between atoms: C_4  and  C_5
REMARK                            x       y       z     vdW  Elec       q    Type
REMARK                         _______ _______ _______ _____ _____    ______ ____
ROOT
ATOM      1  N   UNL     1      14.562  -1.863  -1.236  0.00  0.00    -0.354 N 
ATOM      2  N   UNL     1      16.803  -1.912  -1.819  0.00  0.00    -0.372 N 
ATOM      3  N   UNL     1      15.246  -1.445  -3.438  0.00  0.00    -0.372 N 
ATOM      4  C   UNL     1      15.521  -1.739  -2.163  0.00  0.00    +0.166 C 
ATOM      5  H   UNL     1      14.833  -2.118  -0.293  0.00  0.00    +0.163 HD
ATOM      6  H   UNL     1      17.548  -1.822  -2.496  0.00  0.00    +0.159 HD
ATOM      7  H   UNL     1      17.075  -2.122  -0.866  0.00  0.00    +0.159 HD
ATOM      8  H   UNL     1      14.298  -1.307  -3.763  0.00  0.00    +0.159 HD
ATOM      9  H   UNL     1      15.977  -1.361  -4.133  0.00  0.00    +0.159 HD
ENDROOT
BRANCH   1  10
ATOM     10  C   UNL     1      13.140  -1.641  -1.495  0.00  0.00    +0.151 C 
BRANCH  10  11
ATOM     11  C   UNL     1      12.475  -2.966  -1.748  0.00  0.00    -0.028 A 
ATOM     12  C   UNL     1      12.101  -3.339  -3.047  0.00  0.00    +0.005 A 
ATOM     13  C   UNL     1      12.221  -3.856  -0.693  0.00  0.00    +0.005 A 
ATOM     14  C   UNL     1      11.510  -4.582  -3.287  0.00  0.00    +0.000 A 
ATOM     15  C   UNL     1      11.630  -5.096  -0.936  0.00  0.00    +0.000 A 
ATOM     16  C   UNL     1      11.277  -5.459  -2.233  0.00  0.00    +0.000 A 
ENDBRANCH  10  11
ENDBRANCH   1  10
TORSDOF 2
ENDMDL
MODEL 4
REMARK VINA RESULT:    -5.157      3.984      5.406
REMARK INTER + INTRA:          -5.910
REMARK INTER:                  -5.806
REMARK INTRA:                  -0.104
REMARK UNBOUND:                -0.150
REMARK  Name = 1550473
REMARK  2 active torsions:
REMARK  status: ('A' for Active; 'I' for Inactive)
REMARK    1  A    between atoms: N_1  and  C_4
REMARK    2  A    between atoms: C_4  and  C_5
REMARK                            x       y       z     vdW  Elec       q    Type
REMARK                         _______ _______ _______ _____ _____    ______ ____
ROOT
ATOM      1  N   UNL     1       0.629  -2.052  18.098  0.00  0.00    -0.354 N 
ATOM      2  N   UNL     1       1.087  -4.282  18.525  0.00  0.00    -0.372 N 
ATOM      3  N   UNL     1       1.578  -3.426  16.453  0.00  0.00    -0.372 N 
ATOM      4  C   UNL     1       1.095  -3.239  17.686  0.00  0.00    +0.166 C 
ATOM      5  H   UNL     1       0.248  -1.983  19.035  0.00  0.00    +0.163 HD
ATOM      6  H   UNL     1       1.435  -5.189  18.244  0.00  0.00    +0.159 HD
ATOM      7  H   UNL     1       0.748  -4.198  19.476  0.00  0.00    +0.159 HD
ATOM      8  H   UNL     1       1.607  -2.680  15.771  0.00  0.00    +0.159 HD
ATOM      9  H   UNL     1       1.920  -4.329  16.149  0.00  0.00    +0.159 HD
ENDROOT
BRANCH   1  10
ATOM     10  C   UNL     1       0.643  -0.840  17.281  0.00  0.00    +0.151 C 
BRANCH  10  11
ATOM     11  C   UNL     1       0.311   0.342  18.149  0.00  0.00    -0.028 A 
ATOM     12  C   UNL     1       1.108   1.496  18.116  0.00  0.00    +0.005 A 
ATOM     13  C   UNL     1      -0.802   0.316  19.003  0.00  0.00    +0.005 A 
ATOM     14  C   UNL     1       0.783   2.605  18.901  0.00  0.00    +0.000 A 
ATOM     15  C   UNL     1      -1.123   1.426  19.786  0.00  0.00    +0.000 A 
ATOM     16  C   UNL     1      -0.332   2.571  19.732  0.00  0.00    +0.000 A 
ENDBRANCH  10  11
ENDBRANCH   1  10
TORSDOF 2
ENDMDL
MODEL 5
REMARK VINA RESULT:    -4.976      1.411      2.336
REMARK INTER + INTRA:          -5.708
REMARK INTER:                  -5.608
REMARK INTRA:                  -0.100
REMARK UNBOUND:                -0.150
REMARK  Name = 1550473
REMARK  2 active torsions:
REMARK  status: ('A' for Active; 'I' for Inactive)
REMARK    1  A    between atoms: N_1  and  C_4
REMARK    2  A    between atoms: C_4  and  C_5
REMARK                            x       y       z     vdW  Elec       q    Type
REMARK                         _______ _______ _______ _____ _____    ______ ____
ROOT
ATOM      1  N   UNL     1       2.303  -6.020  17.060  0.00  0.00    -0.354 N 
ATOM      2  N   UNL     1       4.178  -6.853  15.985  0.00  0.00    -0.372 N 
ATOM      3  N   UNL     1       2.117  -7.697  15.433  0.00  0.00    -0.372 N 
ATOM      4  C   UNL     1       2.852  -6.853  16.165  0.00  0.00    +0.166 C 
ATOM      5  H   UNL     1       2.918  -5.427  17.605  0.00  0.00    +0.163 HD
ATOM      6  H   UNL     1       4.621  -7.467  15.315  0.00  0.00    +0.159 HD
ATOM      7  H   UNL     1       4.786  -6.226  16.498  0.00  0.00    +0.159 HD
ATOM      8  H   UNL     1       1.112  -7.750  15.525  0.00  0.00    +0.159 HD
ATOM      9  H   UNL     1       2.543  -8.328  14.765  0.00  0.00    +0.159 HD
ENDROOT
BRANCH   1  10
ATOM     10  C   UNL     1       0.865  -5.904  17.293  0.00  0.00    +0.151 C 
BRANCH  10  11
ATOM     11  C   UNL     1       0.595  -4.653  18.083  0.00  0.00    -0.028 A 
ATOM     12  C   UNL     1       0.779  -3.390  17.501  0.00  0.00    +0.005 A 
ATOM     13  C   UNL     1       0.150  -4.724  19.412  0.00  0.00    +0.005 A 
ATOM     14  C   UNL     1       0.499  -2.228  18.224  0.00  0.00    +0.000 A 
ATOM     15  C   UNL     1      -0.127  -3.561  20.131  0.00  0.00    +0.000 A 
ATOM     16  C   UNL     1       0.046  -2.314  19.536  0.00  0.00    +0.000 A 
ENDBRANCH  10  11
ENDBRANCH   1  10
TORSDOF 2
ENDMDL
MODEL 6
REMARK VINA RESULT:    -4.970      6.571      7.971
REMARK INTER + INTRA:          -5.701
REMARK INTER:                  -5.651
REMARK INTRA:                  -0.051
REMARK UNBOUND:                -0.150
REMARK  Name = 1550473
REMARK  2 active torsions:
REMARK  status: ('A' for Active; 'I' for Inactive)
REMARK    1  A    between atoms: N_1  and  C_4
REMARK    2  A    between atoms: C_4  and  C_5
REMARK                            x       y       z     vdW  Elec       q    Type
REMARK                         _______ _______ _______ _____ _____    ______ ____
ROOT
ATOM      1  N   UNL     1       0.460   3.123  18.271  0.00  0.00    -0.354 N 
ATOM      2  N   UNL     1       1.342   4.497  16.628  0.00  0.00    -0.372 N 
ATOM      3  N   UNL     1       2.718   3.751  18.306  0.00  0.00    -0.372 N 
ATOM      4  C   UNL     1       1.503   3.781  17.747  0.00  0.00    +0.166 C 
ATOM      5  H   UNL     1      -0.441   3.211  17.816  0.00  0.00    +0.163 HD
ATOM      6  H   UNL     1       2.111   5.002  16.208  0.00  0.00    +0.159 HD
ATOM      7  H   UNL     1       0.450   4.546  16.151  0.00  0.00    +0.159 HD
ATOM      8  H   UNL     1       2.904   3.234  19.154  0.00  0.00    +0.159 HD
ATOM      9  H   UNL     1       3.498   4.259  17.907  0.00  0.00    +0.159 HD
ENDROOT
BRANCH   1  10
ATOM     10  C   UNL     1       0.542   2.272  19.456  0.00  0.00    +0.151 C 
BRANCH  10  11
ATOM     11  C   UNL     1       0.446   0.832  19.034  0.00  0.00    -0.028 A 
ATOM     12  C   UNL     1      -0.026  -0.142  19.927  0.00  0.00    +0.005 A 
ATOM     13  C   UNL     1       0.820   0.435  17.741  0.00  0.00    +0.005 A 
ATOM     14  C   UNL     1      -0.144  -1.475  19.525  0.00  0.00    +0.000 A 
ATOM     15  C   UNL     1       0.701  -0.897  17.344  0.00  0.00    +0.000 A 
ATOM     16  C   UNL     1       0.217  -1.851  18.236  0.00  0.00    +0.000 A 
ENDBRANCH  10  11
ENDBRANCH   1  10
TORSDOF 2
ENDMDL
MODEL 7
REMARK VINA RESULT:    -4.830     20.572     22.294
REMARK INTER + INTRA:          -5.545
REMARK INTER:                  -5.417
REMARK INTRA:                  -0.128
REMARK UNBOUND:                -0.150
REMARK  Name = 1550473
REMARK  2 active torsions:
REMARK  status: ('A' for Active; 'I' for Inactive)
REMARK    1  A    between atoms: N_1  and  C_4
REMARK    2  A    between atoms: C_4  and  C_5
REMARK                            x       y       z     vdW  Elec       q    Type
REMARK                         _______ _______ _______ _____ _____    ______ ____
ROOT
ATOM      1  N   UNL     1      12.087  -2.435  -4.097  0.00  0.00    -0.354 N 
ATOM      2  N   UNL     1      12.109  -1.823  -6.330  0.00  0.00    -0.372 N 
ATOM      3  N   UNL     1      13.835  -1.146  -4.978  0.00  0.00    -0.372 N 
ATOM      4  C   UNL     1      12.679  -1.804  -5.119  0.00  0.00    +0.166 C 
ATOM      5  H   UNL     1      11.196  -2.890  -4.263  0.00  0.00    +0.163 HD
ATOM      6  H   UNL     1      12.534  -1.359  -7.122  0.00  0.00    +0.159 HD
ATOM      7  H   UNL     1      11.242  -2.317  -6.504  0.00  0.00    +0.159 HD
ATOM      8  H   UNL     1      14.313  -1.089  -4.088  0.00  0.00    +0.159 HD
ATOM      9  H   UNL     1      14.270  -0.665  -5.755  0.00  0.00    +0.159 HD
ENDROOT
BRANCH   1  10
ATOM     10  C   UNL     1      12.651  -2.520  -2.751  0.00  0.00    +0.151 C 
BRANCH  10  11
ATOM     11  C   UNL     1      12.091  -3.732  -2.059  0.00  0.00    -0.028 A 
ATOM     12  C   UNL     1      11.451  -4.740  -2.795  0.00  0.00    +0.005 A 
ATOM     13  C   UNL     1      12.201  -3.880  -0.668  0.00  0.00    +0.005 A 
ATOM     14  C   UNL     1      10.956  -5.879  -2.156  0.00  0.00    +0.000 A 
ATOM     15  C   UNL     1      11.705  -5.019  -0.033  0.00  0.00    +0.000 A 
ATOM     16  C   UNL     1      11.085  -6.019  -0.778  0.00  0.00    +0.000 A 
ENDBRANCH  10  11
ENDBRANCH   1  10
TORSDOF 2
ENDMDL
MODEL 8
REMARK VINA RESULT:    -4.717      7.671      8.764
REMARK INTER + INTRA:          -5.419
REMARK INTER:                  -5.260
REMARK INTRA:                  -0.159
REMARK UNBOUND:                -0.150
REMARK  Name = 1550473
REMARK  2 active torsions:
REMARK  status: ('A' for Active; 'I' for Inactive)
REMARK    1  A    between atoms: N_1  and  C_4
REMARK    2  A    between atoms: C_4  and  C_5
REMARK                            x       y       z     vdW  Elec       q    Type
REMARK                         _______ _______ _______ _____ _____    ______ ____
ROOT
ATOM      1  N   UNL     1       0.648   2.566  17.875  0.00  0.00    -0.354 N 
ATOM      2  N   UNL     1       1.302   4.511  16.800  0.00  0.00    -0.372 N 
ATOM      3  N   UNL     1       2.664   3.628  18.421  0.00  0.00    -0.372 N 
ATOM      4  C   UNL     1       1.536   3.555  17.708  0.00  0.00    +0.166 C 
ATOM      5  H   UNL     1      -0.203   2.585  17.324  0.00  0.00    +0.163 HD
ATOM      6  H   UNL     1       1.955   5.268  16.650  0.00  0.00    +0.159 HD
ATOM      7  H   UNL     1       0.473   4.502  16.219  0.00  0.00    +0.159 HD
ATOM      8  H   UNL     1       2.897   2.941  19.126  0.00  0.00    +0.159 HD
ATOM      9  H   UNL     1       3.325   4.384  18.293  0.00  0.00    +0.159 HD
ENDROOT
BRANCH   1  10
ATOM     10  C   UNL     1       0.834   1.448  18.798  0.00  0.00    +0.151 C 
BRANCH  10  11
ATOM     11  C   UNL     1      -0.273   1.463  19.816  0.00  0.00    -0.028 A 
ATOM     12  C   UNL     1      -0.228   2.348  20.903  0.00  0.00    +0.005 A 
ATOM     13  C   UNL     1      -1.372   0.599  19.696  0.00  0.00    +0.005 A 
ATOM     14  C   UNL     1      -1.270   2.383  21.833  0.00  0.00    +0.000 A 
ATOM     15  C   UNL     1      -2.410   0.636  20.627  0.00  0.00    +0.000 A 
ATOM     16  C   UNL     1      -2.360   1.531  21.694  0.00  0.00    +0.000 A 
ENDBRANCH  10  11
ENDBRANCH   1  10
TORSDOF 2
ENDMDL
MODEL 9
REMARK VINA RESULT:    -4.630     34.377     35.604
REMARK INTER + INTRA:          -5.322
REMARK INTER:                  -5.149
REMARK INTRA:                  -0.173
REMARK UNBOUND:                -0.150
REMARK  Name = 1550473
REMARK  2 active torsions:
REMARK  status: ('A' for Active; 'I' for Inactive)
REMARK    1  A    between atoms: N_1  and  C_4
REMARK    2  A    between atoms: C_4  and  C_5
REMARK                            x       y       z     vdW  Elec       q    Type
REMARK                         _______ _______ _______ _____ _____    ______ ____
ROOT
ATOM      1  N   UNL     1      -1.514   6.382 -15.516  0.00  0.00    -0.354 N 
ATOM      2  N   UNL     1      -0.389   6.687 -13.515  0.00  0.00    -0.372 N 
ATOM      3  N   UNL     1      -2.523   7.505 -13.724  0.00  0.00    -0.372 N 
ATOM      4  C   UNL     1      -1.485   6.858 -14.264  0.00  0.00    +0.166 C 
ATOM      5  H   UNL     1      -0.684   5.927 -15.878  0.00  0.00    +0.163 HD
ATOM      6  H   UNL     1      -0.339   7.032 -12.566  0.00  0.00    +0.159 HD
ATOM      7  H   UNL     1       0.423   6.192 -13.863  0.00  0.00    +0.159 HD
ATOM      8  H   UNL     1      -3.377   7.672 -14.239  0.00  0.00    +0.159 HD
ATOM      9  H   UNL     1      -2.487   7.868 -12.779  0.00  0.00    +0.159 HD
ENDROOT
BRANCH   1  10
ATOM     10  C   UNL     1      -2.678   6.468 -16.397  0.00  0.00    +0.151 C 
BRANCH  10  11
ATOM     11  C   UNL     1      -2.546   7.686 -17.268  0.00  0.00    -0.028 A 
ATOM     12  C   UNL     1      -3.466   8.740 -17.163  0.00  0.00    +0.005 A 
ATOM     13  C   UNL     1      -1.500   7.797 -18.196  0.00  0.00    +0.005 A 
ATOM     14  C   UNL     1      -3.327   9.885 -17.951  0.00  0.00    +0.000 A 
ATOM     15  C   UNL     1      -1.364   8.941 -18.982  0.00  0.00    +0.000 A 
ATOM     16  C   UNL     1      -2.277   9.986 -18.857  0.00  0.00    +0.000 A 
ENDBRANCH  10  11
ENDBRANCH   1  10
TORSDOF 2
ENDMDL
