MODEL 1
REMARK VINA RESULT:    -6.144      0.000      0.000
REMARK INTER + INTRA:          -6.978
REMARK INTER:                  -6.862
REMARK INTRA:                  -0.116
REMARK UNBOUND:                -0.116
REMARK  Name = 1550473
REMARK  2 active torsions:
REMARK  status: ('A' for Active; 'I' for Inactive)
REMARK    1  A    between atoms: N_1  and  C_4
REMARK    2  A    between atoms: C_4  and  C_5
REMARK                            x       y       z     vdW  Elec       q    Type
REMARK                         _______ _______ _______ _____ _____    ______ ____
ROOT
ATOM      1  N   UNL     1      -3.516  -7.139  -6.853  0.00  0.00    -0.354 N 
ATOM      2  N   UNL     1      -2.755  -8.897  -5.552  0.00  0.00    -0.372 N 
ATOM      3  N   UNL     1      -2.756  -9.127  -7.835  0.00  0.00    -0.372 N 
ATOM      4  C   UNL     1      -3.013  -8.378  -6.758  0.00  0.00    +0.166 C 
ATOM      5  H   UNL     1      -3.717  -6.634  -5.998  0.00  0.00    +0.163 HD
ATOM      6  H   UNL     1      -2.372  -9.828  -5.448  0.00  0.00    +0.159 HD
ATOM      7  H   UNL     1      -2.914  -8.373  -4.700  0.00  0.00    +0.159 HD
ATOM      8  H   UNL     1      -2.934  -8.795  -8.773  0.00  0.00    +0.159 HD
ATOM      9  H   UNL     1      -2.384 -10.065  -7.751  0.00  0.00    +0.159 HD
ENDROOT
BRANCH   1  10
ATOM     10  C   UNL     1      -3.783  -6.461  -8.120  0.00  0.00    +0.151 C 
BRANCH  10  11
ATOM     11  C   UNL     1      -4.760  -5.343  -7.882  0.00  0.00    -0.028 A 
ATOM     12  C   UNL     1      -5.686  -4.984  -8.873  0.00  0.00    +0.005 A 
ATOM     13  C   UNL     1      -4.770  -4.643  -6.666  0.00  0.00    +0.005 A 
ATOM     14  C   UNL     1      -6.614  -3.966  -8.641  0.00  0.00    +0.000 A 
ATOM     15  C   UNL     1      -5.698  -3.627  -6.439  0.00  0.00    +0.000 A 
ATOM     16  C   UNL     1      -6.622  -3.290  -7.426  0.00  0.00    +0.000 A 
ENDBRANCH  10  11
ENDBRANCH   1  10
TORSDOF 2
ENDMDL
MODEL 2
REMARK VINA RESULT:    -5.915     19.938     20.890
REMARK INTER + INTRA:          -6.722
REMARK INTER:                  -6.567
REMARK INTRA:                  -0.154
REMARK UNBOUND:                -0.116
REMARK  Name = 1550473
REMARK  2 active torsions:
REMARK  status: ('A' for Active; 'I' for Inactive)
REMARK    1  A    between atoms: N_1  and  C_4
REMARK    2  A    between atoms: C_4  and  C_5
REMARK                            x       y       z     vdW  Elec       q    Type
REMARK                         _______ _______ _______ _____ _____    ______ ____
ROOT
ATOM      1  N   UNL     1      14.644  -3.501  -5.303  0.00  0.00    -0.354 N 
ATOM      2  N   UNL     1      15.088  -5.672  -4.628  0.00  0.00    -0.372 N 
ATOM      3  N   UNL     1      15.439  -5.099  -6.822  0.00  0.00    -0.372 N 
ATOM      4  C   UNL     1      15.055  -4.743  -5.592  0.00  0.00    +0.166 C 
ATOM      5  H   UNL     1      14.337  -3.303  -4.358  0.00  0.00    +0.163 HD
ATOM      6  H   UNL     1      15.396  -6.617  -4.815  0.00  0.00    +0.159 HD
ATOM      7  H   UNL     1      14.824  -5.459  -3.674  0.00  0.00    +0.159 HD
ATOM      8  H   UNL     1      15.432  -4.446  -7.595  0.00  0.00    +0.159 HD
ATOM      9  H   UNL     1      15.740  -6.042  -7.032  0.00  0.00    +0.159 HD
ENDROOT
BRANCH   1  10
ATOM     10  C   UNL     1      14.622  -2.403  -6.267  0.00  0.00    +0.151 C 
BRANCH  10  11
ATOM     11  C   UNL     1      15.532  -1.307  -5.785  0.00  0.00    -0.028 A 
ATOM     12  C   UNL     1      16.919  -1.506  -5.731  0.00  0.00    +0.005 A 
ATOM     13  C   UNL     1      15.013  -0.065  -5.386  0.00  0.00    +0.005 A 
ATOM     14  C   UNL     1      17.767  -0.478  -5.311  0.00  0.00    +0.000 A 
ATOM     15  C   UNL     1      15.863   0.958  -4.966  0.00  0.00    +0.000 A 
ATOM     16  C   UNL     1      17.240   0.752  -4.932  0.00  0.00    +0.000 A 
ENDBRANCH  10  11
ENDBRANCH   1  10
TORSDOF 2
ENDMDL
MODEL 3
REMARK VINA RESULT:    -5.582     19.206     20.345
REMARK INTER + INTRA:          -6.351
REMARK INTER:                  -6.233
REMARK INTRA:                  -0.118
REMARK UNBOUND:                -0.116
REMARK  Name = 1550473
REMARK  2 active torsions:
REMARK  status: ('A' for Active; 'I' for Inactive)
REMARK    1  A    between atoms: N_1  and  C_4
REMARK    2  A    between atoms: C_4  and  C_5
REMARK                            x       y       z     vdW  Elec       q    Type
REMARK                         _______ _______ _______ _____ _____    ______ ____
ROOT
ATOM      1  N   UNL     1      14.952  -0.200  -5.312  0.00  0.00    -0.354 N 
ATOM      2  N   UNL     1      15.847   1.936  -5.265  0.00  0.00    -0.372 N 
ATOM      3  N   UNL     1      16.607   0.381  -3.758  0.00  0.00    -0.372 N 
ATOM      4  C   UNL     1      15.797   0.691  -4.776  0.00  0.00    +0.166 C 
ATOM      5  H   UNL     1      14.343   0.106  -6.063  0.00  0.00    +0.163 HD
ATOM      6  H   UNL     1      16.478   2.628  -4.883  0.00  0.00    +0.159 HD
ATOM      7  H   UNL     1      15.271   2.225  -6.045  0.00  0.00    +0.159 HD
ATOM      8  H   UNL     1      16.613  -0.539  -3.339  0.00  0.00    +0.159 HD
ATOM      9  H   UNL     1      17.236   1.064  -3.354  0.00  0.00    +0.159 HD
ENDROOT
BRANCH   1  10
ATOM     10  C   UNL     1      14.858  -1.596  -4.889  0.00  0.00    +0.151 C 
BRANCH  10  11
ATOM     11  C   UNL     1      14.489  -2.445  -6.074  0.00  0.00    -0.028 A 
ATOM     12  C   UNL     1      13.315  -3.212  -6.062  0.00  0.00    +0.005 A 
ATOM     13  C   UNL     1      15.307  -2.482  -7.214  0.00  0.00    +0.005 A 
ATOM     14  C   UNL     1      12.957  -3.977  -7.175  0.00  0.00    +0.000 A 
ATOM     15  C   UNL     1      14.946  -3.248  -8.322  0.00  0.00    +0.000 A 
ATOM     16  C   UNL     1      13.770  -3.993  -8.303  0.00  0.00    +0.000 A 
ENDBRANCH  10  11
ENDBRANCH   1  10
TORSDOF 2
ENDMDL
MODEL 4
REMARK VINA RESULT:    -5.569     18.330     19.421
REMARK INTER + INTRA:          -6.336
REMARK INTER:                  -6.232
REMARK INTRA:                  -0.104
REMARK UNBOUND:                -0.116
REMARK  Name = 1550473
REMARK  2 active torsions:
REMARK  status: ('A' for Active; 'I' for Inactive)
REMARK    1  A    between atoms: N_1  and  C_4
REMARK    2  A    between atoms: C_4  and  C_5
REMARK                            x       y       z     vdW  Elec       q    Type
REMARK                         _______ _______ _______ _____ _____    ______ ____
ROOT
ATOM      1  N   UNL     1      13.845  -2.842  -9.415  0.00  0.00    -0.354 N 
ATOM      2  N   UNL     1      13.665  -2.592 -11.710  0.00  0.00    -0.372 N 
ATOM      3  N   UNL     1      11.975  -3.649 -10.574  0.00  0.00    -0.372 N 
ATOM      4  C   UNL     1      13.161  -3.031 -10.551  0.00  0.00    +0.166 C 
ATOM      5  H   UNL     1      14.752  -2.393  -9.468  0.00  0.00    +0.163 HD
ATOM      6  H   UNL     1      13.170  -2.717 -12.583  0.00  0.00    +0.159 HD
ATOM      7  H   UNL     1      14.551  -2.103 -11.755  0.00  0.00    +0.159 HD
ATOM      8  H   UNL     1      11.542  -4.009  -9.734  0.00  0.00    +0.159 HD
ATOM      9  H   UNL     1      11.470  -3.795 -11.439  0.00  0.00    +0.159 HD
ENDROOT
BRANCH   1  10
ATOM     10  C   UNL     1      13.359  -3.233  -8.093  0.00  0.00    +0.151 C 
BRANCH  10  11
ATOM     11  C   UNL     1      14.140  -2.493  -7.043  0.00  0.00    -0.028 A 
ATOM     12  C   UNL     1      15.543  -2.495  -7.065  0.00  0.00    +0.005 A 
ATOM     13  C   UNL     1      13.484  -1.781  -6.027  0.00  0.00    +0.005 A 
ATOM     14  C   UNL     1      16.269  -1.782  -6.108  0.00  0.00    +0.000 A 
ATOM     15  C   UNL     1      14.213  -1.071  -5.072  0.00  0.00    +0.000 A 
ATOM     16  C   UNL     1      15.605  -1.070  -5.115  0.00  0.00    +0.000 A 
ENDBRANCH  10  11
ENDBRANCH   1  10
TORSDOF 2
ENDMDL
MODEL 5
REMARK VINA RESULT:    -5.567     18.069     19.217
REMARK INTER + INTRA:          -6.333
REMARK INTER:                  -6.269
REMARK INTRA:                  -0.064
REMARK UNBOUND:                -0.116
REMARK  Name = 1550473
REMARK  2 active torsions:
REMARK  status: ('A' for Active; 'I' for Inactive)
REMARK    1  A    between atoms: N_1  and  C_4
REMARK    2  A    between atoms: C_4  and  C_5
REMARK                            x       y       z     vdW  Elec       q    Type
REMARK                         _______ _______ _______ _____ _____    ______ ____
ROOT
ATOM      1  N   UNL     1      15.440  -5.083  -6.683  0.00  0.00    -0.354 N 
ATOM      2  N   UNL     1      14.765  -5.912  -4.629  0.00  0.00    -0.372 N 
ATOM      3  N   UNL     1      15.235  -3.674  -4.822  0.00  0.00    -0.372 N 
ATOM      4  C   UNL     1      15.151  -4.882  -5.391  0.00  0.00    +0.166 C 
ATOM      5  H   UNL     1      15.386  -6.028  -7.047  0.00  0.00    +0.163 HD
ATOM      6  H   UNL     1      14.537  -5.790  -3.651  0.00  0.00    +0.159 HD
ATOM      7  H   UNL     1      14.667  -6.847  -5.006  0.00  0.00    +0.159 HD
ATOM      8  H   UNL     1      15.527  -2.857  -5.341  0.00  0.00    +0.159 HD
ATOM      9  H   UNL     1      15.023  -3.534  -3.842  0.00  0.00    +0.159 HD
ENDROOT
BRANCH   1  10
ATOM     10  C   UNL     1      15.818  -4.020  -7.612  0.00  0.00    +0.151 C 
BRANCH  10  11
ATOM     11  C   UNL     1      14.694  -3.794  -8.585  0.00  0.00    -0.028 A 
ATOM     12  C   UNL     1      13.387  -4.195  -8.268  0.00  0.00    +0.005 A 
ATOM     13  C   UNL     1      14.927  -3.174  -9.822  0.00  0.00    +0.005 A 
ATOM     14  C   UNL     1      12.337  -3.958  -9.159  0.00  0.00    +0.000 A 
ATOM     15  C   UNL     1      13.876  -2.940 -10.709  0.00  0.00    +0.000 A 
ATOM     16  C   UNL     1      12.581  -3.330 -10.376  0.00  0.00    +0.000 A 
ENDBRANCH  10  11
ENDBRANCH   1  10
TORSDOF 2
ENDMDL
MODEL 6
REMARK VINA RESULT:    -5.513     20.861     21.851
REMARK INTER + INTRA:          -6.274
REMARK INTER:                  -6.140
REMARK INTRA:                  -0.133
REMARK UNBOUND:                -0.116
REMARK  Name = 1550473
REMARK  2 active torsions:
REMARK  status: ('A' for Active; 'I' for Inactive)
REMARK    1  A    between atoms: N_1  and  C_4
REMARK    2  A    between atoms: C_4  and  C_5
REMARK                            x       y       z     vdW  Elec       q    Type
REMARK                         _______ _______ _______ _____ _____    ______ ____
ROOT
ATOM      1  N   UNL     1      17.209   0.493  -4.588  0.00  0.00    -0.354 N 
ATOM      2  N   UNL     1      19.401   1.232  -4.469  0.00  0.00    -0.372 N 
ATOM      3  N   UNL     1      18.395   0.434  -2.567  0.00  0.00    -0.372 N 
ATOM      4  C   UNL     1      18.320   0.714  -3.873  0.00  0.00    +0.166 C 
ATOM      5  H   UNL     1      17.207   0.756  -5.567  0.00  0.00    +0.163 HD
ATOM      6  H   UNL     1      20.255   1.407  -3.956  0.00  0.00    +0.159 HD
ATOM      7  H   UNL     1      19.411   1.451  -5.458  0.00  0.00    +0.159 HD
ATOM      8  H   UNL     1      17.613   0.047  -2.057  0.00  0.00    +0.159 HD
ATOM      9  H   UNL     1      19.237   0.612  -2.034  0.00  0.00    +0.159 HD
ENDROOT
BRANCH   1  10
ATOM     10  C   UNL     1      15.996  -0.117  -4.046  0.00  0.00    +0.151 C 
BRANCH  10  11
ATOM     11  C   UNL     1      15.391  -1.016  -5.089  0.00  0.00    -0.028 A 
ATOM     12  C   UNL     1      16.202  -1.643  -6.046  0.00  0.00    +0.005 A 
ATOM     13  C   UNL     1      14.007  -1.248  -5.121  0.00  0.00    +0.005 A 
ATOM     14  C   UNL     1      15.643  -2.502  -6.996  0.00  0.00    +0.000 A 
ATOM     15  C   UNL     1      13.454  -2.106  -6.072  0.00  0.00    +0.000 A 
ATOM     16  C   UNL     1      14.272  -2.734  -7.007  0.00  0.00    +0.000 A 
ENDBRANCH  10  11
ENDBRANCH   1  10
TORSDOF 2
ENDMDL
MODEL 7
REMARK VINA RESULT:    -5.454      5.615      6.018
REMARK INTER + INTRA:          -6.208
REMARK INTER:                  -6.066
REMARK INTRA:                  -0.141
REMARK UNBOUND:                -0.116
REMARK  Name = 1550473
REMARK  2 active torsions:
REMARK  status: ('A' for Active; 'I' for Inactive)
REMARK    1  A    between atoms: N_1  and  C_4
REMARK    2  A    between atoms: C_4  and  C_5
REMARK                            x       y       z     vdW  Elec       q    Type
REMARK                         _______ _______ _______ _____ _____    ______ ____
ROOT
ATOM      1  N   UNL     1       0.521  -8.427  -5.676  0.00  0.00    -0.354 N 
ATOM      2  N   UNL     1      -0.515 -10.296  -4.783  0.00  0.00    -0.372 N 
ATOM      3  N   UNL     1      -1.440  -8.229  -4.407  0.00  0.00    -0.372 N 
ATOM      4  C   UNL     1      -0.473  -8.970  -4.960  0.00  0.00    +0.166 C 
ATOM      5  H   UNL     1       1.240  -9.039  -6.043  0.00  0.00    +0.163 HD
ATOM      6  H   UNL     1      -1.255 -10.734  -4.250  0.00  0.00    +0.159 HD
ATOM      7  H   UNL     1       0.179 -10.910  -5.189  0.00  0.00    +0.159 HD
ATOM      8  H   UNL     1      -1.462  -7.223  -4.499  0.00  0.00    +0.159 HD
ATOM      9  H   UNL     1      -2.182  -8.649  -3.861  0.00  0.00    +0.159 HD
ENDROOT
BRANCH   1  10
ATOM     10  C   UNL     1       0.629  -6.999  -5.973  0.00  0.00    +0.151 C 
BRANCH  10  11
ATOM     11  C   UNL     1       0.774  -6.817  -7.458  0.00  0.00    -0.028 A 
ATOM     12  C   UNL     1       0.728  -7.923  -8.320  0.00  0.00    +0.005 A 
ATOM     13  C   UNL     1       0.952  -5.539  -8.011  0.00  0.00    +0.005 A 
ATOM     14  C   UNL     1       0.833  -7.750  -9.702  0.00  0.00    +0.000 A 
ATOM     15  C   UNL     1       1.057  -5.371  -9.392  0.00  0.00    +0.000 A 
ATOM     16  C   UNL     1       0.995  -6.477 -10.237  0.00  0.00    +0.000 A 
ENDBRANCH  10  11
ENDBRANCH   1  10
TORSDOF 2
ENDMDL
MODEL 8
REMARK VINA RESULT:    -5.390     18.233     19.401
REMARK INTER + INTRA:          -6.136
REMARK INTER:                  -5.970
REMARK INTRA:                  -0.165
REMARK UNBOUND:                -0.116
REMARK  Name = 1550473
REMARK  2 active torsions:
REMARK  status: ('A' for Active; 'I' for Inactive)
REMARK    1  A    between atoms: N_1  and  C_4
REMARK    2  A    between atoms: C_4  and  C_5
REMARK                            x       y       z     vdW  Elec       q    Type
REMARK                         _______ _______ _______ _____ _____    ______ ____
ROOT
ATOM      1  N   UNL     1      14.983  -2.869  -5.187  0.00  0.00    -0.354 N 
ATOM      2  N   UNL     1      14.237  -1.321  -3.635  0.00  0.00    -0.372 N 
ATOM      3  N   UNL     1      15.436  -0.585  -5.448  0.00  0.00    -0.372 N 
ATOM      4  C   UNL     1      14.892  -1.600  -4.769  0.00  0.00    +0.166 C 
ATOM      5  H   UNL     1      14.575  -3.597  -4.611  0.00  0.00    +0.163 HD
ATOM      6  H   UNL     1      14.148  -0.372  -3.297  0.00  0.00    +0.159 HD
ATOM      7  H   UNL     1      13.790  -2.045  -3.086  0.00  0.00    +0.159 HD
ATOM      8  H   UNL     1      15.948  -0.730  -6.308  0.00  0.00    +0.159 HD
ATOM      9  H   UNL     1      15.368   0.370  -5.119  0.00  0.00    +0.159 HD
ENDROOT
BRANCH   1  10
ATOM     10  C   UNL     1      15.628  -3.274  -6.435  0.00  0.00    +0.151 C 
BRANCH  10  11
ATOM     11  C   UNL     1      14.573  -3.498  -7.483  0.00  0.00    -0.028 A 
ATOM     12  C   UNL     1      13.334  -4.059  -7.138  0.00  0.00    +0.005 A 
ATOM     13  C   UNL     1      14.804  -3.147  -8.822  0.00  0.00    +0.005 A 
ATOM     14  C   UNL     1      12.343  -4.239  -8.106  0.00  0.00    +0.000 A 
ATOM     15  C   UNL     1      13.812  -3.330  -9.785  0.00  0.00    +0.000 A 
ATOM     16  C   UNL     1      12.581  -3.873  -9.426  0.00  0.00    +0.000 A 
ENDBRANCH  10  11
ENDBRANCH   1  10
TORSDOF 2
ENDMDL
MODEL 9
REMARK VINA RESULT:    -5.384      2.945      5.440
REMARK INTER + INTRA:          -6.129
REMARK INTER:                  -6.000
REMARK INTRA:                  -0.129
REMARK UNBOUND:                -0.116
REMARK  Name = 1550473
REMARK  2 active torsions:
REMARK  status: ('A' for Active; 'I' for Inactive)
REMARK    1  A    between atoms: N_1  and  C_4
REMARK    2  A    between atoms: C_4  and  C_5
REMARK                            x       y       z     vdW  Elec       q    Type
REMARK                         _______ _______ _______ _____ _____    ______ ____
ROOT
ATOM      1  N   UNL     1      -4.290  -6.166  -8.272  0.00  0.00    -0.354 N 
ATOM      2  N   UNL     1      -5.702  -4.350  -8.534  0.00  0.00    -0.372 N 
ATOM      3  N   UNL     1      -4.870  -4.816  -6.447  0.00  0.00    -0.372 N 
ATOM      4  C   UNL     1      -4.944  -5.123  -7.747  0.00  0.00    +0.166 C 
ATOM      5  H   UNL     1      -4.411  -6.364  -9.259  0.00  0.00    +0.163 HD
ATOM      6  H   UNL     1      -6.205  -3.553  -8.166  0.00  0.00    +0.159 HD
ATOM      7  H   UNL     1      -5.786  -4.522  -9.528  0.00  0.00    +0.159 HD
ATOM      8  H   UNL     1      -4.320  -5.363  -5.798  0.00  0.00    +0.159 HD
ATOM      9  H   UNL     1      -5.375  -4.030  -6.058  0.00  0.00    +0.159 HD
ENDROOT
BRANCH   1  10
ATOM     10  C   UNL     1      -3.396  -7.038  -7.512  0.00  0.00    +0.151 C 
BRANCH  10  11
ATOM     11  C   UNL     1      -2.094  -7.173  -8.252  0.00  0.00    -0.028 A 
ATOM     12  C   UNL     1      -1.095  -6.197  -8.119  0.00  0.00    +0.005 A 
ATOM     13  C   UNL     1      -1.850  -8.276  -9.084  0.00  0.00    +0.005 A 
ATOM     14  C   UNL     1       0.126  -6.337  -8.782  0.00  0.00    +0.000 A 
ATOM     15  C   UNL     1      -0.630  -8.411  -9.746  0.00  0.00    +0.000 A 
ATOM     16  C   UNL     1       0.359  -7.443  -9.593  0.00  0.00    +0.000 A 
ENDBRANCH  10  11
ENDBRANCH   1  10
TORSDOF 2
ENDMDL
