MODEL 1
REMARK VINA RESULT:    -5.400      0.000      0.000
REMARK INTER + INTRA:          -6.146
REMARK INTER:                  -6.031
REMARK INTRA:                  -0.114
REMARK UNBOUND:                -0.114
REMARK  Name = 1550473
REMARK  2 active torsions:
REMARK  status: ('A' for Active; 'I' for Inactive)
REMARK    1  A    between atoms: N_1  and  C_4
REMARK    2  A    between atoms: C_4  and  C_5
REMARK                            x       y       z     vdW  Elec       q    Type
REMARK                         _______ _______ _______ _____ _____    ______ ____
ROOT
ATOM      1  N   UNL     1     -11.049  -2.215 -15.700  0.00  0.00    -0.354 N 
ATOM      2  N   UNL     1     -12.254  -1.861 -13.754  0.00  0.00    -0.372 N 
ATOM      3  N   UNL     1     -10.027  -2.392 -13.598  0.00  0.00    -0.372 N 
ATOM      4  C   UNL     1     -11.099  -2.159 -14.362  0.00  0.00    +0.166 C 
ATOM      5  H   UNL     1     -11.904  -2.058 -16.221  0.00  0.00    +0.163 HD
ATOM      6  H   UNL     1     -12.322  -1.809 -12.746  0.00  0.00    +0.159 HD
ATOM      7  H   UNL     1     -13.096  -1.660 -14.278  0.00  0.00    +0.159 HD
ATOM      8  H   UNL     1      -9.127  -2.627 -13.995  0.00  0.00    +0.159 HD
ATOM      9  H   UNL     1     -10.078  -2.355 -12.588  0.00  0.00    +0.159 HD
ENDROOT
BRANCH   1  10
ATOM     10  C   UNL     1      -9.829  -2.477 -16.461  0.00  0.00    +0.151 C 
BRANCH  10  11
ATOM     11  C   UNL     1      -9.996  -3.759 -17.229  0.00  0.00    -0.028 A 
ATOM     12  C   UNL     1     -10.741  -4.819 -16.692  0.00  0.00    +0.005 A 
ATOM     13  C   UNL     1      -9.417  -3.918 -18.498  0.00  0.00    +0.005 A 
ATOM     14  C   UNL     1     -10.922  -5.999 -17.418  0.00  0.00    +0.000 A 
ATOM     15  C   UNL     1      -9.599  -5.098 -19.219  0.00  0.00    +0.000 A 
ATOM     16  C   UNL     1     -10.354  -6.137 -18.680  0.00  0.00    +0.000 A 
ENDBRANCH  10  11
ENDBRANCH   1  10
TORSDOF 2
ENDMDL
MODEL 2
REMARK VINA RESULT:    -5.343      2.964      4.496
REMARK INTER + INTRA:          -6.081
REMARK INTER:                  -5.984
REMARK INTRA:                  -0.098
REMARK UNBOUND:                -0.114
REMARK  Name = 1550473
REMARK  2 active torsions:
REMARK  status: ('A' for Active; 'I' for Inactive)
REMARK    1  A    between atoms: N_1  and  C_4
REMARK    2  A    between atoms: C_4  and  C_5
REMARK                            x       y       z     vdW  Elec       q    Type
REMARK                         _______ _______ _______ _____ _____    ______ ____
ROOT
ATOM      1  N   UNL     1      -9.429  -0.082 -17.507  0.00  0.00    -0.354 N 
ATOM      2  N   UNL     1     -10.153   1.381 -19.150  0.00  0.00    -0.372 N 
ATOM      3  N   UNL     1      -8.173   0.263 -19.455  0.00  0.00    -0.372 N 
ATOM      4  C   UNL     1      -9.244   0.510 -18.694  0.00  0.00    +0.166 C 
ATOM      5  H   UNL     1     -10.246   0.171 -16.964  0.00  0.00    +0.163 HD
ATOM      6  H   UNL     1     -10.043   1.840 -20.044  0.00  0.00    +0.159 HD
ATOM      7  H   UNL     1     -10.993   1.597 -18.627  0.00  0.00    +0.159 HD
ATOM      8  H   UNL     1      -7.447  -0.380 -19.166  0.00  0.00    +0.159 HD
ATOM      9  H   UNL     1      -8.039   0.722 -20.348  0.00  0.00    +0.159 HD
ENDROOT
BRANCH   1  10
ATOM     10  C   UNL     1      -8.526  -1.085 -16.944  0.00  0.00    +0.151 C 
BRANCH  10  11
ATOM     11  C   UNL     1      -9.307  -1.996 -16.039  0.00  0.00    -0.028 A 
ATOM     12  C   UNL     1      -9.687  -1.571 -14.757  0.00  0.00    +0.005 A 
ATOM     13  C   UNL     1      -9.676  -3.284 -16.458  0.00  0.00    +0.005 A 
ATOM     14  C   UNL     1     -10.439  -2.406 -13.927  0.00  0.00    +0.000 A 
ATOM     15  C   UNL     1     -10.425  -4.114 -15.626  0.00  0.00    +0.000 A 
ATOM     16  C   UNL     1     -10.809  -3.674 -14.361  0.00  0.00    +0.000 A 
ENDBRANCH  10  11
ENDBRANCH   1  10
TORSDOF 2
ENDMDL
MODEL 3
REMARK VINA RESULT:    -5.244      1.090      2.036
REMARK INTER + INTRA:          -5.971
REMARK INTER:                  -5.838
REMARK INTRA:                  -0.134
REMARK UNBOUND:                -0.114
REMARK  Name = 1550473
REMARK  2 active torsions:
REMARK  status: ('A' for Active; 'I' for Inactive)
REMARK    1  A    between atoms: N_1  and  C_4
REMARK    2  A    between atoms: C_4  and  C_5
REMARK                            x       y       z     vdW  Elec       q    Type
REMARK                         _______ _______ _______ _____ _____    ______ ____
ROOT
ATOM      1  N   UNL     1      -9.733  -3.095 -15.297  0.00  0.00    -0.354 N 
ATOM      2  N   UNL     1      -9.073  -1.199 -14.142  0.00  0.00    -0.372 N 
ATOM      3  N   UNL     1     -11.298  -1.760 -14.176  0.00  0.00    -0.372 N 
ATOM      4  C   UNL     1     -10.042  -2.030 -14.546  0.00  0.00    +0.166 C 
ATOM      5  H   UNL     1      -8.765  -3.228 -15.569  0.00  0.00    +0.163 HD
ATOM      6  H   UNL     1      -9.275  -0.390 -13.571  0.00  0.00    +0.159 HD
ATOM      7  H   UNL     1      -8.101  -1.360 -14.377  0.00  0.00    +0.159 HD
ATOM      8  H   UNL     1     -12.075  -2.344 -14.452  0.00  0.00    +0.159 HD
ATOM      9  H   UNL     1     -11.522  -0.947 -13.614  0.00  0.00    +0.159 HD
ENDROOT
BRANCH   1  10
ATOM     10  C   UNL     1     -10.706  -4.091 -15.744  0.00  0.00    +0.151 C 
BRANCH  10  11
ATOM     11  C   UNL     1     -10.325  -4.568 -17.118  0.00  0.00    -0.028 A 
ATOM     12  C   UNL     1      -9.580  -3.745 -17.976  0.00  0.00    +0.005 A 
ATOM     13  C   UNL     1     -10.700  -5.844 -17.566  0.00  0.00    +0.005 A 
ATOM     14  C   UNL     1      -9.201  -4.199 -19.242  0.00  0.00    +0.000 A 
ATOM     15  C   UNL     1     -10.320  -6.293 -18.831  0.00  0.00    +0.000 A 
ATOM     16  C   UNL     1      -9.568  -5.471 -19.667  0.00  0.00    +0.000 A 
ENDBRANCH  10  11
ENDBRANCH   1  10
TORSDOF 2
ENDMDL
MODEL 4
REMARK VINA RESULT:    -5.019     26.512     27.639
REMARK INTER + INTRA:          -5.719
REMARK INTER:                  -5.607
REMARK INTRA:                  -0.112
REMARK UNBOUND:                -0.114
REMARK  Name = 1550473
REMARK  2 active torsions:
REMARK  status: ('A' for Active; 'I' for Inactive)
REMARK    1  A    between atoms: N_1  and  C_4
REMARK    2  A    between atoms: C_4  and  C_5
REMARK                            x       y       z     vdW  Elec       q    Type
REMARK                         _______ _______ _______ _____ _____    ______ ____
ROOT
ATOM      1  N   UNL     1       1.602  -8.974   7.384  0.00  0.00    -0.354 N 
ATOM      2  N   UNL     1       1.342  -6.810   8.167  0.00  0.00    -0.372 N 
ATOM      3  N   UNL     1       1.606  -8.513   9.682  0.00  0.00    -0.372 N 
ATOM      4  C   UNL     1       1.518  -8.115   8.408  0.00  0.00    +0.166 C 
ATOM      5  H   UNL     1       1.498  -8.613   6.443  0.00  0.00    +0.163 HD
ATOM      6  H   UNL     1       1.278  -6.137   8.919  0.00  0.00    +0.159 HD
ATOM      7  H   UNL     1       1.284  -6.446   7.224  0.00  0.00    +0.159 HD
ATOM      8  H   UNL     1       1.733  -9.485   9.932  0.00  0.00    +0.159 HD
ATOM      9  H   UNL     1       1.533  -7.856  10.449  0.00  0.00    +0.159 HD
ENDROOT
BRANCH   1  10
ATOM     10  C   UNL     1       1.848 -10.407   7.537  0.00  0.00    +0.151 C 
BRANCH  10  11
ATOM     11  C   UNL     1       2.894 -10.835   6.546  0.00  0.00    -0.028 A 
ATOM     12  C   UNL     1       4.190 -11.160   6.975  0.00  0.00    +0.005 A 
ATOM     13  C   UNL     1       2.596 -10.923   5.178  0.00  0.00    +0.005 A 
ATOM     14  C   UNL     1       5.154 -11.586   6.058  0.00  0.00    +0.000 A 
ATOM     15  C   UNL     1       3.561 -11.348   4.266  0.00  0.00    +0.000 A 
ATOM     16  C   UNL     1       4.840 -11.682   4.707  0.00  0.00    +0.000 A 
ENDBRANCH  10  11
ENDBRANCH   1  10
TORSDOF 2
ENDMDL
MODEL 5
REMARK VINA RESULT:    -4.940      2.400      3.245
REMARK INTER + INTRA:          -5.632
REMARK INTER:                  -5.510
REMARK INTRA:                  -0.121
REMARK UNBOUND:                -0.114
REMARK  Name = 1550473
REMARK  2 active torsions:
REMARK  status: ('A' for Active; 'I' for Inactive)
REMARK    1  A    between atoms: N_1  and  C_4
REMARK    2  A    between atoms: C_4  and  C_5
REMARK                            x       y       z     vdW  Elec       q    Type
REMARK                         _______ _______ _______ _____ _____    ______ ____
ROOT
ATOM      1  N   UNL     1      -9.488  -1.404 -17.973  0.00  0.00    -0.354 N 
ATOM      2  N   UNL     1      -8.869   0.652 -18.840  0.00  0.00    -0.372 N 
ATOM      3  N   UNL     1      -8.238   0.115 -16.701  0.00  0.00    -0.372 N 
ATOM      4  C   UNL     1      -8.868  -0.226 -17.830  0.00  0.00    +0.166 C 
ATOM      5  H   UNL     1      -9.974  -1.590 -18.843  0.00  0.00    +0.163 HD
ATOM      6  H   UNL     1      -8.407   1.547 -18.763  0.00  0.00    +0.159 HD
ATOM      7  H   UNL     1      -9.316   0.444 -19.725  0.00  0.00    +0.159 HD
ATOM      8  H   UNL     1      -8.206  -0.500 -15.899  0.00  0.00    +0.159 HD
ATOM      9  H   UNL     1      -7.779   1.012 -16.600  0.00  0.00    +0.159 HD
ENDROOT
BRANCH   1  10
ATOM     10  C   UNL     1      -9.500  -2.451 -16.952  0.00  0.00    +0.151 C 
BRANCH  10  11
ATOM     11  C   UNL     1      -9.802  -3.771 -17.607  0.00  0.00    -0.028 A 
ATOM     12  C   UNL     1      -9.307  -4.062 -18.886  0.00  0.00    +0.005 A 
ATOM     13  C   UNL     1     -10.579  -4.738 -16.950  0.00  0.00    +0.005 A 
ATOM     14  C   UNL     1      -9.562  -5.300 -19.482  0.00  0.00    +0.000 A 
ATOM     15  C   UNL     1     -10.832  -5.972 -17.548  0.00  0.00    +0.000 A 
ATOM     16  C   UNL     1     -10.322  -6.254 -18.813  0.00  0.00    +0.000 A 
ENDBRANCH  10  11
ENDBRANCH   1  10
TORSDOF 2
ENDMDL
MODEL 6
REMARK VINA RESULT:    -4.764     21.708     24.364
REMARK INTER + INTRA:          -5.435
REMARK INTER:                  -5.308
REMARK INTRA:                  -0.127
REMARK UNBOUND:                -0.114
REMARK  Name = 1550473
REMARK  2 active torsions:
REMARK  status: ('A' for Active; 'I' for Inactive)
REMARK    1  A    between atoms: N_1  and  C_4
REMARK    2  A    between atoms: C_4  and  C_5
REMARK                            x       y       z     vdW  Elec       q    Type
REMARK                         _______ _______ _______ _____ _____    ______ ____
ROOT
ATOM      1  N   UNL     1     -13.386   5.245   3.760  0.00  0.00    -0.354 N 
ATOM      2  N   UNL     1     -11.808   4.089   2.521  0.00  0.00    -0.372 N 
ATOM      3  N   UNL     1     -11.920   3.731   4.785  0.00  0.00    -0.372 N 
ATOM      4  C   UNL     1     -12.381   4.362   3.700  0.00  0.00    +0.166 C 
ATOM      5  H   UNL     1     -13.669   5.712   2.906  0.00  0.00    +0.163 HD
ATOM      6  H   UNL     1     -11.049   3.425   2.444  0.00  0.00    +0.159 HD
ATOM      7  H   UNL     1     -12.123   4.523   1.662  0.00  0.00    +0.159 HD
ATOM      8  H   UNL     1     -12.306   3.896   5.705  0.00  0.00    +0.159 HD
ATOM      9  H   UNL     1     -11.154   3.071   4.729  0.00  0.00    +0.159 HD
ENDROOT
BRANCH   1  10
ATOM     10  C   UNL     1     -14.114   5.572   4.985  0.00  0.00    +0.151 C 
BRANCH  10  11
ATOM     11  C   UNL     1     -13.997   7.049   5.246  0.00  0.00    -0.028 A 
ATOM     12  C   UNL     1     -12.918   7.780   4.729  0.00  0.00    +0.005 A 
ATOM     13  C   UNL     1     -14.966   7.723   6.005  0.00  0.00    +0.005 A 
ATOM     14  C   UNL     1     -12.826   9.157   4.945  0.00  0.00    +0.000 A 
ATOM     15  C   UNL     1     -14.869   9.098   6.220  0.00  0.00    +0.000 A 
ATOM     16  C   UNL     1     -13.800   9.815   5.688  0.00  0.00    +0.000 A 
ENDBRANCH  10  11
ENDBRANCH   1  10
TORSDOF 2
ENDMDL
MODEL 7
REMARK VINA RESULT:    -4.675     18.030     19.171
REMARK INTER + INTRA:          -5.335
REMARK INTER:                  -5.218
REMARK INTRA:                  -0.117
REMARK UNBOUND:                -0.114
REMARK  Name = 1550473
REMARK  2 active torsions:
REMARK  status: ('A' for Active; 'I' for Inactive)
REMARK    1  A    between atoms: N_1  and  C_4
REMARK    2  A    between atoms: C_4  and  C_5
REMARK                            x       y       z     vdW  Elec       q    Type
REMARK                         _______ _______ _______ _____ _____    ______ ____
ROOT
ATOM      1  N   UNL     1      -6.225   9.888  -4.150  0.00  0.00    -0.354 N 
ATOM      2  N   UNL     1      -4.214   9.181  -5.057  0.00  0.00    -0.372 N 
ATOM      3  N   UNL     1      -4.434  11.375  -4.423  0.00  0.00    -0.372 N 
ATOM      4  C   UNL     1      -4.971  10.155  -4.537  0.00  0.00    +0.166 C 
ATOM      5  H   UNL     1      -6.583   8.950  -4.292  0.00  0.00    +0.163 HD
ATOM      6  H   UNL     1      -3.263   9.352  -5.354  0.00  0.00    +0.159 HD
ATOM      7  H   UNL     1      -4.559   8.233  -5.155  0.00  0.00    +0.159 HD
ATOM      8  H   UNL     1      -4.954  12.155  -4.044  0.00  0.00    +0.159 HD
ATOM      9  H   UNL     1      -3.488  11.568  -4.726  0.00  0.00    +0.159 HD
ENDROOT
BRANCH   1  10
ATOM     10  C   UNL     1      -7.113  10.865  -3.523  0.00  0.00    +0.151 C 
BRANCH  10  11
ATOM     11  C   UNL     1      -8.536  10.539  -3.884  0.00  0.00    -0.028 A 
ATOM     12  C   UNL     1      -8.953   9.205  -4.001  0.00  0.00    +0.005 A 
ATOM     13  C   UNL     1      -9.473  11.559  -4.106  0.00  0.00    +0.005 A 
ATOM     14  C   UNL     1     -10.282   8.901  -4.307  0.00  0.00    +0.000 A 
ATOM     15  C   UNL     1     -10.799  11.252  -4.412  0.00  0.00    +0.000 A 
ATOM     16  C   UNL     1     -11.203   9.923  -4.510  0.00  0.00    +0.000 A 
ENDBRANCH  10  11
ENDBRANCH   1  10
TORSDOF 2
ENDMDL
MODEL 8
REMARK VINA RESULT:    -4.664     28.442     29.521
REMARK INTER + INTRA:          -5.323
REMARK INTER:                  -5.149
REMARK INTRA:                  -0.174
REMARK UNBOUND:                -0.114
REMARK  Name = 1550473
REMARK  2 active torsions:
REMARK  status: ('A' for Active; 'I' for Inactive)
REMARK    1  A    between atoms: N_1  and  C_4
REMARK    2  A    between atoms: C_4  and  C_5
REMARK                            x       y       z     vdW  Elec       q    Type
REMARK                         _______ _______ _______ _____ _____    ______ ____
ROOT
ATOM      1  N   UNL     1      11.026   6.669  -0.063  0.00  0.00    -0.354 N 
ATOM      2  N   UNL     1      10.592   8.002   1.780  0.00  0.00    -0.372 N 
ATOM      3  N   UNL     1      10.262   8.869  -0.318  0.00  0.00    -0.372 N 
ATOM      4  C   UNL     1      10.629   7.840   0.452  0.00  0.00    +0.166 C 
ATOM      5  H   UNL     1      11.321   5.937   0.574  0.00  0.00    +0.163 HD
ATOM      6  H   UNL     1      10.294   8.873   2.198  0.00  0.00    +0.159 HD
ATOM      7  H   UNL     1      10.843   7.254   2.415  0.00  0.00    +0.159 HD
ATOM      8  H   UNL     1      10.273   8.814  -1.328  0.00  0.00    +0.159 HD
ATOM      9  H   UNL     1       9.972   9.753   0.081  0.00  0.00    +0.159 HD
ENDROOT
BRANCH   1  10
ATOM     10  C   UNL     1      11.051   6.372  -1.494  0.00  0.00    +0.151 C 
BRANCH  10  11
ATOM     11  C   UNL     1      12.480   6.307  -1.958  0.00  0.00    -0.028 A 
ATOM     12  C   UNL     1      13.177   5.090  -1.949  0.00  0.00    +0.005 A 
ATOM     13  C   UNL     1      13.142   7.458  -2.412  0.00  0.00    +0.005 A 
ATOM     14  C   UNL     1      14.495   5.024  -2.407  0.00  0.00    +0.000 A 
ATOM     15  C   UNL     1      14.458   7.388  -2.868  0.00  0.00    +0.000 A 
ATOM     16  C   UNL     1      15.134   6.170  -2.868  0.00  0.00    +0.000 A 
ENDBRANCH  10  11
ENDBRANCH   1  10
TORSDOF 2
ENDMDL
MODEL 9
REMARK VINA RESULT:    -4.598      3.420      5.170
REMARK INTER + INTRA:          -5.249
REMARK INTER:                  -5.129
REMARK INTRA:                  -0.120
REMARK UNBOUND:                -0.114
REMARK  Name = 1550473
REMARK  2 active torsions:
REMARK  status: ('A' for Active; 'I' for Inactive)
REMARK    1  A    between atoms: N_1  and  C_4
REMARK    2  A    between atoms: C_4  and  C_5
REMARK                            x       y       z     vdW  Elec       q    Type
REMARK                         _______ _______ _______ _____ _____    ______ ____
ROOT
ATOM      1  N   UNL     1      -8.685  -3.742 -19.339  0.00  0.00    -0.354 N 
ATOM      2  N   UNL     1      -8.253  -4.933 -21.278  0.00  0.00    -0.372 N 
ATOM      3  N   UNL     1      -8.609  -2.671 -21.422  0.00  0.00    -0.372 N 
ATOM      4  C   UNL     1      -8.519  -3.772 -20.668  0.00  0.00    +0.166 C 
ATOM      5  H   UNL     1      -8.635  -4.615 -18.828  0.00  0.00    +0.163 HD
ATOM      6  H   UNL     1      -8.120  -4.986 -22.278  0.00  0.00    +0.159 HD
ATOM      7  H   UNL     1      -8.158  -5.798 -20.758  0.00  0.00    +0.159 HD
ATOM      8  H   UNL     1      -8.813  -1.764 -21.024  0.00  0.00    +0.159 HD
ATOM      9  H   UNL     1      -8.490  -2.706 -22.427  0.00  0.00    +0.159 HD
ENDROOT
BRANCH   1  10
ATOM     10  C   UNL     1      -8.925  -2.520 -18.572  0.00  0.00    +0.151 C 
BRANCH  10  11
ATOM     11  C   UNL     1      -9.392  -2.891 -17.192  0.00  0.00    -0.028 A 
ATOM     12  C   UNL     1      -9.153  -2.036 -16.106  0.00  0.00    +0.005 A 
ATOM     13  C   UNL     1     -10.079  -4.093 -16.964  0.00  0.00    +0.005 A 
ATOM     14  C   UNL     1      -9.613  -2.365 -14.829  0.00  0.00    +0.000 A 
ATOM     15  C   UNL     1     -10.536  -4.419 -15.687  0.00  0.00    +0.000 A 
ATOM     16  C   UNL     1     -10.305  -3.554 -14.620  0.00  0.00    +0.000 A 
ENDBRANCH  10  11
ENDBRANCH   1  10
TORSDOF 2
ENDMDL
