MODEL 1
REMARK VINA RESULT:    -4.718      0.000      0.000
REMARK INTER + INTRA:          -5.452
REMARK INTER:                  -5.269
REMARK INTRA:                  -0.182
REMARK UNBOUND:                -0.182
REMARK  Name = 1550473
REMARK  2 active torsions:
REMARK  status: ('A' for Active; 'I' for Inactive)
REMARK    1  A    between atoms: N_1  and  C_4
REMARK    2  A    between atoms: C_4  and  C_5
REMARK                            x       y       z     vdW  Elec       q    Type
REMARK                         _______ _______ _______ _____ _____    ______ ____
ROOT
ATOM      1  N   UNL     1       7.516  23.853  13.568  0.00  0.00    -0.354 N 
ATOM      2  N   UNL     1       5.908  22.194  13.723  0.00  0.00    -0.372 N 
ATOM      3  N   UNL     1       6.969  22.526  11.715  0.00  0.00    -0.372 N 
ATOM      4  C   UNL     1       6.808  22.868  12.998  0.00  0.00    +0.166 C 
ATOM      5  H   UNL     1       7.326  24.084  14.536  0.00  0.00    +0.163 HD
ATOM      6  H   UNL     1       5.362  21.443  13.321  0.00  0.00    +0.159 HD
ATOM      7  H   UNL     1       5.752  22.396  14.703  0.00  0.00    +0.159 HD
ATOM      8  H   UNL     1       7.628  23.000  11.113  0.00  0.00    +0.159 HD
ATOM      9  H   UNL     1       6.423  21.785  11.292  0.00  0.00    +0.159 HD
ENDROOT
BRANCH   1  10
ATOM     10  C   UNL     1       8.559  24.613  12.881  0.00  0.00    +0.151 C 
BRANCH  10  11
ATOM     11  C   UNL     1       9.901  24.035  13.235  0.00  0.00    -0.028 A 
ATOM     12  C   UNL     1      10.604  23.249  12.310  0.00  0.00    +0.005 A 
ATOM     13  C   UNL     1      10.478  24.274  14.492  0.00  0.00    +0.005 A 
ATOM     14  C   UNL     1      11.864  22.737  12.627  0.00  0.00    +0.000 A 
ATOM     15  C   UNL     1      11.737  23.759  14.804  0.00  0.00    +0.000 A 
ATOM     16  C   UNL     1      12.430  22.993  13.871  0.00  0.00    +0.000 A 
ENDBRANCH  10  11
ENDBRANCH   1  10
TORSDOF 2
ENDMDL
MODEL 2
REMARK VINA RESULT:    -4.693     31.657     33.140
REMARK INTER + INTRA:          -5.424
REMARK INTER:                  -5.259
REMARK INTRA:                  -0.164
REMARK UNBOUND:                -0.182
REMARK  Name = 1550473
REMARK  2 active torsions:
REMARK  status: ('A' for Active; 'I' for Inactive)
REMARK    1  A    between atoms: N_1  and  C_4
REMARK    2  A    between atoms: C_4  and  C_5
REMARK                            x       y       z     vdW  Elec       q    Type
REMARK                         _______ _______ _______ _____ _____    ______ ____
ROOT
ATOM      1  N   UNL     1     -15.825   6.337   1.066  0.00  0.00    -0.354 N 
ATOM      2  N   UNL     1     -13.931   5.078   0.625  0.00  0.00    -0.372 N 
ATOM      3  N   UNL     1     -13.707   7.334   0.975  0.00  0.00    -0.372 N 
ATOM      4  C   UNL     1     -14.499   6.261   0.891  0.00  0.00    +0.166 C 
ATOM      5  H   UNL     1     -16.374   5.491   0.960  0.00  0.00    +0.163 HD
ATOM      6  H   UNL     1     -12.933   4.989   0.492  0.00  0.00    +0.159 HD
ATOM      7  H   UNL     1     -14.477   4.227   0.565  0.00  0.00    +0.159 HD
ATOM      8  H   UNL     1     -14.073   8.257   1.167  0.00  0.00    +0.159 HD
ATOM      9  H   UNL     1     -12.706   7.268   0.833  0.00  0.00    +0.159 HD
ENDROOT
BRANCH   1  10
ATOM     10  C   UNL     1     -16.535   7.566   1.413  0.00  0.00    +0.151 C 
BRANCH  10  11
ATOM     11  C   UNL     1     -17.013   8.230   0.151  0.00  0.00    -0.028 A 
ATOM     12  C   UNL     1     -18.007   7.630  -0.636  0.00  0.00    +0.005 A 
ATOM     13  C   UNL     1     -16.481   9.462  -0.260  0.00  0.00    +0.005 A 
ATOM     14  C   UNL     1     -18.473   8.260  -1.792  0.00  0.00    +0.000 A 
ATOM     15  C   UNL     1     -16.949  10.088  -1.415  0.00  0.00    +0.000 A 
ATOM     16  C   UNL     1     -17.947   9.488  -2.180  0.00  0.00    +0.000 A 
ENDBRANCH  10  11
ENDBRANCH   1  10
TORSDOF 2
ENDMDL
MODEL 3
REMARK VINA RESULT:    -4.665     22.944     23.859
REMARK INTER + INTRA:          -5.393
REMARK INTER:                  -5.215
REMARK INTRA:                  -0.178
REMARK UNBOUND:                -0.182
REMARK  Name = 1550473
REMARK  2 active torsions:
REMARK  status: ('A' for Active; 'I' for Inactive)
REMARK    1  A    between atoms: N_1  and  C_4
REMARK    2  A    between atoms: C_4  and  C_5
REMARK                            x       y       z     vdW  Elec       q    Type
REMARK                         _______ _______ _______ _____ _____    ______ ____
ROOT
ATOM      1  N   UNL     1      -8.622   9.722   5.746  0.00  0.00    -0.354 N 
ATOM      2  N   UNL     1      -9.608   8.080   7.049  0.00  0.00    -0.372 N 
ATOM      3  N   UNL     1      -7.321   8.273   7.050  0.00  0.00    -0.372 N 
ATOM      4  C   UNL     1      -8.508   8.702   6.607  0.00  0.00    +0.166 C 
ATOM      5  H   UNL     1      -9.548   9.979   5.425  0.00  0.00    +0.163 HD
ATOM      6  H   UNL     1      -9.553   7.310   7.701  0.00  0.00    +0.159 HD
ATOM      7  H   UNL     1     -10.535   8.370   6.762  0.00  0.00    +0.159 HD
ATOM      8  H   UNL     1      -6.453   8.695   6.749  0.00  0.00    +0.159 HD
ATOM      9  H   UNL     1      -7.245   7.495   7.694  0.00  0.00    +0.159 HD
ENDROOT
BRANCH   1  10
ATOM     10  C   UNL     1      -7.490  10.500   5.245  0.00  0.00    +0.151 C 
BRANCH  10  11
ATOM     11  C   UNL     1      -7.101   9.983   3.888  0.00  0.00    -0.028 A 
ATOM     12  C   UNL     1      -8.007  10.034   2.819  0.00  0.00    +0.005 A 
ATOM     13  C   UNL     1      -5.824   9.446   3.663  0.00  0.00    +0.005 A 
ATOM     14  C   UNL     1      -7.635   9.581   1.551  0.00  0.00    +0.000 A 
ATOM     15  C   UNL     1      -5.457   8.994   2.396  0.00  0.00    +0.000 A 
ATOM     16  C   UNL     1      -6.362   9.064   1.339  0.00  0.00    +0.000 A 
ENDBRANCH  10  11
ENDBRANCH   1  10
TORSDOF 2
ENDMDL
MODEL 4
REMARK VINA RESULT:    -4.645     17.825     19.412
REMARK INTER + INTRA:          -5.370
REMARK INTER:                  -5.244
REMARK INTRA:                  -0.127
REMARK UNBOUND:                -0.182
REMARK  Name = 1550473
REMARK  2 active torsions:
REMARK  status: ('A' for Active; 'I' for Inactive)
REMARK    1  A    between atoms: N_1  and  C_4
REMARK    2  A    between atoms: C_4  and  C_5
REMARK                            x       y       z     vdW  Elec       q    Type
REMARK                         _______ _______ _______ _____ _____    ______ ____
ROOT
ATOM      1  N   UNL     1      23.976  10.293   8.758  0.00  0.00    -0.354 N 
ATOM      2  N   UNL     1      26.033  10.454   9.810  0.00  0.00    -0.372 N 
ATOM      3  N   UNL     1      25.968   9.933   7.577  0.00  0.00    -0.372 N 
ATOM      4  C   UNL     1      25.313  10.225   8.706  0.00  0.00    +0.166 C 
ATOM      5  H   UNL     1      23.539  10.489   9.651  0.00  0.00    +0.163 HD
ATOM      6  H   UNL     1      27.043  10.413   9.801  0.00  0.00    +0.159 HD
ATOM      7  H   UNL     1      25.595  10.695  10.691  0.00  0.00    +0.159 HD
ATOM      8  H   UNL     1      25.483   9.744   6.710  0.00  0.00    +0.159 HD
ATOM      9  H   UNL     1      26.978   9.876   7.550  0.00  0.00    +0.159 HD
ENDROOT
BRANCH   1  10
ATOM     10  C   UNL     1      23.102  10.113   7.600  0.00  0.00    +0.151 C 
BRANCH  10  11
ATOM     11  C   UNL     1      21.940  11.061   7.709  0.00  0.00    -0.028 A 
ATOM     12  C   UNL     1      22.153  12.421   7.978  0.00  0.00    +0.005 A 
ATOM     13  C   UNL     1      20.623  10.607   7.540  0.00  0.00    +0.005 A 
ATOM     14  C   UNL     1      21.076  13.307   8.050  0.00  0.00    +0.000 A 
ATOM     15  C   UNL     1      19.550  11.495   7.614  0.00  0.00    +0.000 A 
ATOM     16  C   UNL     1      19.777  12.845   7.866  0.00  0.00    +0.000 A 
ENDBRANCH  10  11
ENDBRANCH   1  10
TORSDOF 2
ENDMDL
MODEL 5
REMARK VINA RESULT:    -4.565     26.240     27.764
REMARK INTER + INTRA:          -5.282
REMARK INTER:                  -5.133
REMARK INTRA:                  -0.149
REMARK UNBOUND:                -0.182
REMARK  Name = 1550473
REMARK  2 active torsions:
REMARK  status: ('A' for Active; 'I' for Inactive)
REMARK    1  A    between atoms: N_1  and  C_4
REMARK    2  A    between atoms: C_4  and  C_5
REMARK                            x       y       z     vdW  Elec       q    Type
REMARK                         _______ _______ _______ _____ _____    ______ ____
ROOT
ATOM      1  N   UNL     1      -3.306  -2.462   7.799  0.00  0.00    -0.354 N 
ATOM      2  N   UNL     1      -3.103  -4.769   7.831  0.00  0.00    -0.372 N 
ATOM      3  N   UNL     1      -2.799  -3.602   9.783  0.00  0.00    -0.372 N 
ATOM      4  C   UNL     1      -3.070  -3.595   8.474  0.00  0.00    +0.166 C 
ATOM      5  H   UNL     1      -3.475  -2.522   6.802  0.00  0.00    +0.163 HD
ATOM      6  H   UNL     1      -2.932  -5.641   8.315  0.00  0.00    +0.159 HD
ATOM      7  H   UNL     1      -3.318  -4.830   6.844  0.00  0.00    +0.159 HD
ATOM      8  H   UNL     1      -2.753  -2.749  10.325  0.00  0.00    +0.159 HD
ATOM      9  H   UNL     1      -2.613  -4.463  10.282  0.00  0.00    +0.159 HD
ENDROOT
BRANCH   1  10
ATOM     10  C   UNL     1      -3.347  -1.137   8.415  0.00  0.00    +0.151 C 
BRANCH  10  11
ATOM     11  C   UNL     1      -2.344  -0.248   7.734  0.00  0.00    -0.028 A 
ATOM     12  C   UNL     1      -2.735   0.990   7.202  0.00  0.00    +0.005 A 
ATOM     13  C   UNL     1      -0.999  -0.633   7.622  0.00  0.00    +0.005 A 
ATOM     14  C   UNL     1      -1.798   1.830   6.595  0.00  0.00    +0.000 A 
ATOM     15  C   UNL     1      -0.067   0.208   7.015  0.00  0.00    +0.000 A 
ATOM     16  C   UNL     1      -0.466   1.440   6.504  0.00  0.00    +0.000 A 
ENDBRANCH  10  11
ENDBRANCH   1  10
TORSDOF 2
ENDMDL
MODEL 6
REMARK VINA RESULT:    -4.531     23.105     24.913
REMARK INTER + INTRA:          -5.243
REMARK INTER:                  -5.120
REMARK INTRA:                  -0.123
REMARK UNBOUND:                -0.182
REMARK  Name = 1550473
REMARK  2 active torsions:
REMARK  status: ('A' for Active; 'I' for Inactive)
REMARK    1  A    between atoms: N_1  and  C_4
REMARK    2  A    between atoms: C_4  and  C_5
REMARK                            x       y       z     vdW  Elec       q    Type
REMARK                         _______ _______ _______ _____ _____    ______ ____
ROOT
ATOM      1  N   UNL     1       0.354   3.290   4.980  0.00  0.00    -0.354 N 
ATOM      2  N   UNL     1       1.100   4.652   3.261  0.00  0.00    -0.372 N 
ATOM      3  N   UNL     1       2.616   3.333   4.369  0.00  0.00    -0.372 N 
ATOM      4  C   UNL     1       1.354   3.748   4.216  0.00  0.00    +0.166 C 
ATOM      5  H   UNL     1      -0.576   3.668   4.833  0.00  0.00    +0.163 HD
ATOM      6  H   UNL     1       1.834   5.013   2.667  0.00  0.00    +0.159 HD
ATOM      7  H   UNL     1       0.163   4.993   3.086  0.00  0.00    +0.159 HD
ATOM      8  H   UNL     1       2.875   2.657   5.076  0.00  0.00    +0.159 HD
ATOM      9  H   UNL     1       3.366   3.692   3.792  0.00  0.00    +0.159 HD
ENDROOT
BRANCH   1  10
ATOM     10  C   UNL     1       0.515   2.267   6.011  0.00  0.00    +0.151 C 
BRANCH  10  11
ATOM     11  C   UNL     1      -0.843   1.785   6.441  0.00  0.00    -0.028 A 
ATOM     12  C   UNL     1      -1.999   2.487   6.068  0.00  0.00    +0.005 A 
ATOM     13  C   UNL     1      -0.981   0.624   7.217  0.00  0.00    +0.005 A 
ATOM     14  C   UNL     1      -3.262   2.023   6.443  0.00  0.00    +0.000 A 
ATOM     15  C   UNL     1      -2.245   0.165   7.590  0.00  0.00    +0.000 A 
ATOM     16  C   UNL     1      -3.385   0.863   7.200  0.00  0.00    +0.000 A 
ENDBRANCH  10  11
ENDBRANCH   1  10
TORSDOF 2
ENDMDL
MODEL 7
REMARK VINA RESULT:    -4.465     15.868     17.057
REMARK INTER + INTRA:          -5.169
REMARK INTER:                  -5.001
REMARK INTRA:                  -0.168
REMARK UNBOUND:                -0.182
REMARK  Name = 1550473
REMARK  2 active torsions:
REMARK  status: ('A' for Active; 'I' for Inactive)
REMARK    1  A    between atoms: N_1  and  C_4
REMARK    2  A    between atoms: C_4  and  C_5
REMARK                            x       y       z     vdW  Elec       q    Type
REMARK                         _______ _______ _______ _____ _____    ______ ____
ROOT
ATOM      1  N   UNL     1      21.191  14.396   4.988  0.00  0.00    -0.354 N 
ATOM      2  N   UNL     1      20.053  15.319   3.195  0.00  0.00    -0.372 N 
ATOM      3  N   UNL     1      19.648  16.131   5.302  0.00  0.00    -0.372 N 
ATOM      4  C   UNL     1      20.304  15.277   4.509  0.00  0.00    +0.166 C 
ATOM      5  H   UNL     1      21.633  13.755   4.339  0.00  0.00    +0.163 HD
ATOM      6  H   UNL     1      19.391  15.975   2.803  0.00  0.00    +0.159 HD
ATOM      7  H   UNL     1      20.530  14.708   2.542  0.00  0.00    +0.159 HD
ATOM      8  H   UNL     1      19.787  16.147   6.303  0.00  0.00    +0.159 HD
ATOM      9  H   UNL     1      18.973  16.788   4.930  0.00  0.00    +0.159 HD
ENDROOT
BRANCH   1  10
ATOM     10  C   UNL     1      21.575  14.306   6.396  0.00  0.00    +0.151 C 
BRANCH  10  11
ATOM     11  C   UNL     1      21.105  12.989   6.950  0.00  0.00    -0.028 A 
ATOM     12  C   UNL     1      19.812  12.860   7.477  0.00  0.00    +0.005 A 
ATOM     13  C   UNL     1      21.946  11.866   6.946  0.00  0.00    +0.005 A 
ATOM     14  C   UNL     1      19.364  11.630   7.965  0.00  0.00    +0.000 A 
ATOM     15  C   UNL     1      21.495  10.640   7.435  0.00  0.00    +0.000 A 
ATOM     16  C   UNL     1      20.203  10.522   7.942  0.00  0.00    +0.000 A 
ENDBRANCH  10  11
ENDBRANCH   1  10
TORSDOF 2
ENDMDL
MODEL 8
REMARK VINA RESULT:    -4.457     31.019     32.307
REMARK INTER + INTRA:          -5.160
REMARK INTER:                  -4.980
REMARK INTRA:                  -0.181
REMARK UNBOUND:                -0.182
REMARK  Name = 1550473
REMARK  2 active torsions:
REMARK  status: ('A' for Active; 'I' for Inactive)
REMARK    1  A    between atoms: N_1  and  C_4
REMARK    2  A    between atoms: C_4  and  C_5
REMARK                            x       y       z     vdW  Elec       q    Type
REMARK                         _______ _______ _______ _____ _____    ______ ____
ROOT
ATOM      1  N   UNL     1     -15.777   6.278   0.926  0.00  0.00    -0.354 N 
ATOM      2  N   UNL     1     -13.908   4.922   1.102  0.00  0.00    -0.372 N 
ATOM      3  N   UNL     1     -13.618   7.187   0.882  0.00  0.00    -0.372 N 
ATOM      4  C   UNL     1     -14.445   6.140   0.968  0.00  0.00    +0.166 C 
ATOM      5  H   UNL     1     -16.349   5.442   0.966  0.00  0.00    +0.163 HD
ATOM      6  H   UNL     1     -12.907   4.787   1.140  0.00  0.00    +0.159 HD
ATOM      7  H   UNL     1     -14.483   4.092   1.187  0.00  0.00    +0.159 HD
ATOM      8  H   UNL     1     -13.960   8.133   0.775  0.00  0.00    +0.159 HD
ATOM      9  H   UNL     1     -12.612   7.072   0.907  0.00  0.00    +0.159 HD
ENDROOT
BRANCH   1  10
ATOM     10  C   UNL     1     -16.464   7.566   0.837  0.00  0.00    +0.151 C 
BRANCH  10  11
ATOM     11  C   UNL     1     -16.942   7.963   2.206  0.00  0.00    -0.028 A 
ATOM     12  C   UNL     1     -18.161   7.478   2.702  0.00  0.00    +0.005 A 
ATOM     13  C   UNL     1     -16.179   8.819   3.014  0.00  0.00    +0.005 A 
ATOM     14  C   UNL     1     -18.592   7.822   3.986  0.00  0.00    +0.000 A 
ATOM     15  C   UNL     1     -16.613   9.161   4.295  0.00  0.00    +0.000 A 
ATOM     16  C   UNL     1     -17.818   8.661   4.781  0.00  0.00    +0.000 A 
ENDBRANCH  10  11
ENDBRANCH   1  10
TORSDOF 2
ENDMDL
MODEL 9
REMARK VINA RESULT:    -4.427     31.490     32.861
REMARK INTER + INTRA:          -5.127
REMARK INTER:                  -4.986
REMARK INTRA:                  -0.141
REMARK UNBOUND:                -0.182
REMARK  Name = 1550473
REMARK  2 active torsions:
REMARK  status: ('A' for Active; 'I' for Inactive)
REMARK    1  A    between atoms: N_1  and  C_4
REMARK    2  A    between atoms: C_4  and  C_5
REMARK                            x       y       z     vdW  Elec       q    Type
REMARK                         _______ _______ _______ _____ _____    ______ ____
ROOT
ATOM      1  N   UNL     1      26.556  -3.564   7.373  0.00  0.00    -0.354 N 
ATOM      2  N   UNL     1      27.322  -3.278   9.539  0.00  0.00    -0.372 N 
ATOM      3  N   UNL     1      25.681  -1.882   8.750  0.00  0.00    -0.372 N 
ATOM      4  C   UNL     1      26.513  -2.908   8.540  0.00  0.00    +0.166 C 
ATOM      5  H   UNL     1      27.230  -4.313   7.266  0.00  0.00    +0.163 HD
ATOM      6  H   UNL     1      27.310  -2.804  10.433  0.00  0.00    +0.159 HD
ATOM      7  H   UNL     1      27.963  -4.057   9.446  0.00  0.00    +0.159 HD
ATOM      8  H   UNL     1      25.050  -1.549   8.034  0.00  0.00    +0.159 HD
ATOM      9  H   UNL     1      25.663  -1.387   9.633  0.00  0.00    +0.159 HD
ENDROOT
BRANCH   1  10
ATOM     10  C   UNL     1      25.680  -3.274   6.239  0.00  0.00    +0.151 C 
BRANCH  10  11
ATOM     11  C   UNL     1      24.805  -4.469   5.977  0.00  0.00    -0.028 A 
ATOM     12  C   UNL     1      25.041  -5.683   6.638  0.00  0.00    +0.005 A 
ATOM     13  C   UNL     1      23.734  -4.392   5.073  0.00  0.00    +0.005 A 
ATOM     14  C   UNL     1      24.210  -6.785   6.417  0.00  0.00    +0.000 A 
ATOM     15  C   UNL     1      22.908  -5.494   4.855  0.00  0.00    +0.000 A 
ATOM     16  C   UNL     1      23.144  -6.689   5.529  0.00  0.00    +0.000 A 
ENDBRANCH  10  11
ENDBRANCH   1  10
TORSDOF 2
ENDMDL
