MODEL 1
REMARK VINA RESULT:    -4.905      0.000      0.000
REMARK INTER + INTRA:          -5.656
REMARK INTER:                  -5.478
REMARK INTRA:                  -0.177
REMARK UNBOUND:                -0.177
REMARK  Name = 1550473
REMARK  2 active torsions:
REMARK  status: ('A' for Active; 'I' for Inactive)
REMARK    1  A    between atoms: N_1  and  C_4
REMARK    2  A    between atoms: C_4  and  C_5
REMARK                            x       y       z     vdW  Elec       q    Type
REMARK                         _______ _______ _______ _____ _____    ______ ____
ROOT
ATOM      1  N   UNL     1     -12.137  15.090   0.286  0.00  0.00    -0.354 N 
ATOM      2  N   UNL     1     -11.940  16.136   2.343  0.00  0.00    -0.372 N 
ATOM      3  N   UNL     1     -12.325  13.875   2.281  0.00  0.00    -0.372 N 
ATOM      4  C   UNL     1     -12.136  15.024   1.624  0.00  0.00    +0.166 C 
ATOM      5  H   UNL     1     -12.019  15.997  -0.151  0.00  0.00    +0.163 HD
ATOM      6  H   UNL     1     -11.931  16.117   3.354  0.00  0.00    +0.159 HD
ATOM      7  H   UNL     1     -11.777  17.033   1.903  0.00  0.00    +0.159 HD
ATOM      8  H   UNL     1     -12.484  13.001   1.797  0.00  0.00    +0.159 HD
ATOM      9  H   UNL     1     -12.330  13.837   3.293  0.00  0.00    +0.159 HD
ENDROOT
BRANCH   1  10
ATOM     10  C   UNL     1     -12.288  13.929  -0.589  0.00  0.00    +0.151 C 
BRANCH  10  11
ATOM     11  C   UNL     1     -10.954  13.598  -1.200  0.00  0.00    -0.028 A 
ATOM     12  C   UNL     1     -10.526  14.244  -2.369  0.00  0.00    +0.005 A 
ATOM     13  C   UNL     1     -10.111  12.643  -0.611  0.00  0.00    +0.005 A 
ATOM     14  C   UNL     1      -9.274  13.958  -2.919  0.00  0.00    +0.000 A 
ATOM     15  C   UNL     1      -8.863  12.360  -1.164  0.00  0.00    +0.000 A 
ATOM     16  C   UNL     1      -8.443  13.020  -2.317  0.00  0.00    +0.000 A 
ENDBRANCH  10  11
ENDBRANCH   1  10
TORSDOF 2
ENDMDL
MODEL 2
REMARK VINA RESULT:    -4.789     17.788     18.854
REMARK INTER + INTRA:          -5.526
REMARK INTER:                  -5.412
REMARK INTRA:                  -0.114
REMARK UNBOUND:                -0.177
REMARK  Name = 1550473
REMARK  2 active torsions:
REMARK  status: ('A' for Active; 'I' for Inactive)
REMARK    1  A    between atoms: N_1  and  C_4
REMARK    2  A    between atoms: C_4  and  C_5
REMARK                            x       y       z     vdW  Elec       q    Type
REMARK                         _______ _______ _______ _____ _____    ______ ____
ROOT
ATOM      1  N   UNL     1     -17.292  -4.223   4.805  0.00  0.00    -0.354 N 
ATOM      2  N   UNL     1     -17.967  -6.112   5.963  0.00  0.00    -0.372 N 
ATOM      3  N   UNL     1     -18.618  -5.859   3.777  0.00  0.00    -0.372 N 
ATOM      4  C   UNL     1     -17.956  -5.386   4.838  0.00  0.00    +0.166 C 
ATOM      5  H   UNL     1     -16.835  -3.905   5.652  0.00  0.00    +0.163 HD
ATOM      6  H   UNL     1     -18.457  -6.995   6.017  0.00  0.00    +0.159 HD
ATOM      7  H   UNL     1     -17.472  -5.813   6.794  0.00  0.00    +0.159 HD
ATOM      8  H   UNL     1     -18.654  -5.357   2.900  0.00  0.00    +0.159 HD
ATOM      9  H   UNL     1     -19.124  -6.736   3.815  0.00  0.00    +0.159 HD
ENDROOT
BRANCH   1  10
ATOM     10  C   UNL     1     -17.173  -3.383   3.614  0.00  0.00    +0.151 C 
BRANCH  10  11
ATOM     11  C   UNL     1     -15.917  -2.562   3.715  0.00  0.00    -0.028 A 
ATOM     12  C   UNL     1     -15.158  -2.279   2.571  0.00  0.00    +0.005 A 
ATOM     13  C   UNL     1     -15.485  -2.060   4.952  0.00  0.00    +0.005 A 
ATOM     14  C   UNL     1     -14.008  -1.491   2.660  0.00  0.00    +0.000 A 
ATOM     15  C   UNL     1     -14.336  -1.274   5.037  0.00  0.00    +0.000 A 
ATOM     16  C   UNL     1     -13.599  -0.988   3.890  0.00  0.00    +0.000 A 
ENDBRANCH  10  11
ENDBRANCH   1  10
TORSDOF 2
ENDMDL
MODEL 3
REMARK VINA RESULT:    -4.724     17.017     18.107
REMARK INTER + INTRA:          -5.453
REMARK INTER:                  -5.285
REMARK INTRA:                  -0.168
REMARK UNBOUND:                -0.177
REMARK  Name = 1550473
REMARK  2 active torsions:
REMARK  status: ('A' for Active; 'I' for Inactive)
REMARK    1  A    between atoms: N_1  and  C_4
REMARK    2  A    between atoms: C_4  and  C_5
REMARK                            x       y       z     vdW  Elec       q    Type
REMARK                         _______ _______ _______ _____ _____    ______ ____
ROOT
ATOM      1  N   UNL     1     -17.553  -3.349   5.383  0.00  0.00    -0.354 N 
ATOM      2  N   UNL     1     -19.740  -2.610   5.568  0.00  0.00    -0.372 N 
ATOM      3  N   UNL     1     -18.917  -3.131   3.490  0.00  0.00    -0.372 N 
ATOM      4  C   UNL     1     -18.722  -3.035   4.809  0.00  0.00    +0.166 C 
ATOM      5  H   UNL     1     -17.459  -3.225   6.384  0.00  0.00    +0.163 HD
ATOM      6  H   UNL     1     -20.635  -2.370   5.164  0.00  0.00    +0.159 HD
ATOM      7  H   UNL     1     -19.659  -2.532   6.574  0.00  0.00    +0.159 HD
ATOM      8  H   UNL     1     -18.187  -3.439   2.862  0.00  0.00    +0.159 HD
ATOM      9  H   UNL     1     -19.802  -2.883   3.065  0.00  0.00    +0.159 HD
ENDROOT
BRANCH   1  10
ATOM     10  C   UNL     1     -16.399  -3.871   4.654  0.00  0.00    +0.151 C 
BRANCH  10  11
ATOM     11  C   UNL     1     -15.474  -2.734   4.316  0.00  0.00    -0.028 A 
ATOM     12  C   UNL     1     -15.079  -1.821   5.305  0.00  0.00    +0.005 A 
ATOM     13  C   UNL     1     -14.986  -2.567   3.011  0.00  0.00    +0.005 A 
ATOM     14  C   UNL     1     -14.197  -0.782   4.999  0.00  0.00    +0.000 A 
ATOM     15  C   UNL     1     -14.106  -1.528   2.709  0.00  0.00    +0.000 A 
ATOM     16  C   UNL     1     -13.710  -0.637   3.704  0.00  0.00    +0.000 A 
ENDBRANCH  10  11
ENDBRANCH   1  10
TORSDOF 2
ENDMDL
MODEL 4
REMARK VINA RESULT:    -4.662     15.887     16.905
REMARK INTER + INTRA:          -5.384
REMARK INTER:                  -5.232
REMARK INTRA:                  -0.152
REMARK UNBOUND:                -0.177
REMARK  Name = 1550473
REMARK  2 active torsions:
REMARK  status: ('A' for Active; 'I' for Inactive)
REMARK    1  A    between atoms: N_1  and  C_4
REMARK    2  A    between atoms: C_4  and  C_5
REMARK                            x       y       z     vdW  Elec       q    Type
REMARK                         _______ _______ _______ _____ _____    ______ ____
ROOT
ATOM      1  N   UNL     1     -16.174  -1.167   7.622  0.00  0.00    -0.354 N 
ATOM      2  N   UNL     1     -15.711  -0.228   9.688  0.00  0.00    -0.372 N 
ATOM      3  N   UNL     1     -17.103   0.891   8.248  0.00  0.00    -0.372 N 
ATOM      4  C   UNL     1     -16.334  -0.172   8.505  0.00  0.00    +0.166 C 
ATOM      5  H   UNL     1     -15.553  -1.931   7.866  0.00  0.00    +0.163 HD
ATOM      6  H   UNL     1     -15.816   0.506  10.376  0.00  0.00    +0.159 HD
ATOM      7  H   UNL     1     -15.128  -1.015   9.947  0.00  0.00    +0.159 HD
ATOM      8  H   UNL     1     -17.596   0.996   7.371  0.00  0.00    +0.159 HD
ATOM      9  H   UNL     1     -17.211   1.642   8.918  0.00  0.00    +0.159 HD
ENDROOT
BRANCH   1  10
ATOM     10  C   UNL     1     -16.849  -1.229   6.328  0.00  0.00    +0.151 C 
BRANCH  10  11
ATOM     11  C   UNL     1     -15.817  -1.232   5.234  0.00  0.00    -0.028 A 
ATOM     12  C   UNL     1     -14.924  -0.159   5.095  0.00  0.00    +0.005 A 
ATOM     13  C   UNL     1     -15.723  -2.307   4.337  0.00  0.00    +0.005 A 
ATOM     14  C   UNL     1     -13.946  -0.175   4.099  0.00  0.00    +0.000 A 
ATOM     15  C   UNL     1     -14.745  -2.319   3.343  0.00  0.00    +0.000 A 
ATOM     16  C   UNL     1     -13.855  -1.254   3.225  0.00  0.00    +0.000 A 
ENDBRANCH  10  11
ENDBRANCH   1  10
TORSDOF 2
ENDMDL
MODEL 5
REMARK VINA RESULT:    -4.525      3.444      4.626
REMARK INTER + INTRA:          -5.231
REMARK INTER:                  -5.126
REMARK INTRA:                  -0.105
REMARK UNBOUND:                -0.177
REMARK  Name = 1550473
REMARK  2 active torsions:
REMARK  status: ('A' for Active; 'I' for Inactive)
REMARK    1  A    between atoms: N_1  and  C_4
REMARK    2  A    between atoms: C_4  and  C_5
REMARK                            x       y       z     vdW  Elec       q    Type
REMARK                         _______ _______ _______ _____ _____    ______ ____
ROOT
ATOM      1  N   UNL     1      -9.589  10.439  -0.123  0.00  0.00    -0.354 N 
ATOM      2  N   UNL     1      -9.866   8.177   0.287  0.00  0.00    -0.372 N 
ATOM      3  N   UNL     1      -7.758   9.077   0.409  0.00  0.00    -0.372 N 
ATOM      4  C   UNL     1      -9.067   9.246   0.188  0.00  0.00    +0.166 C 
ATOM      5  H   UNL     1     -10.584  10.495  -0.308  0.00  0.00    +0.163 HD
ATOM      6  H   UNL     1      -9.500   7.264   0.524  0.00  0.00    +0.159 HD
ATOM      7  H   UNL     1     -10.866   8.244   0.147  0.00  0.00    +0.159 HD
ATOM      8  H   UNL     1      -7.101   9.843   0.344  0.00  0.00    +0.159 HD
ATOM      9  H   UNL     1      -7.372   8.169   0.636  0.00  0.00    +0.159 HD
ENDROOT
BRANCH   1  10
ATOM     10  C   UNL     1      -8.814  11.676  -0.203  0.00  0.00    +0.151 C 
BRANCH  10  11
ATOM     11  C   UNL     1      -9.547  12.660  -1.073  0.00  0.00    -0.028 A 
ATOM     12  C   UNL     1      -8.890  13.301  -2.133  0.00  0.00    +0.005 A 
ATOM     13  C   UNL     1     -10.901  12.951  -0.845  0.00  0.00    +0.005 A 
ATOM     14  C   UNL     1      -9.579  14.193  -2.959  0.00  0.00    +0.000 A 
ATOM     15  C   UNL     1     -11.585  13.842  -1.672  0.00  0.00    +0.000 A 
ATOM     16  C   UNL     1     -10.924  14.461  -2.730  0.00  0.00    +0.000 A 
ENDBRANCH  10  11
ENDBRANCH   1  10
TORSDOF 2
ENDMDL
MODEL 6
REMARK VINA RESULT:    -4.472     12.447     13.739
REMARK INTER + INTRA:          -5.172
REMARK INTER:                  -4.992
REMARK INTRA:                  -0.180
REMARK UNBOUND:                -0.177
REMARK  Name = 1550473
REMARK  2 active torsions:
REMARK  status: ('A' for Active; 'I' for Inactive)
REMARK    1  A    between atoms: N_1  and  C_4
REMARK    2  A    between atoms: C_4  and  C_5
REMARK                            x       y       z     vdW  Elec       q    Type
REMARK                         _______ _______ _______ _____ _____    ______ ____
ROOT
ATOM      1  N   UNL     1     -20.989   6.475  -2.711  0.00  0.00    -0.354 N 
ATOM      2  N   UNL     1     -22.691   6.265  -4.267  0.00  0.00    -0.372 N 
ATOM      3  N   UNL     1     -22.991   7.671  -2.479  0.00  0.00    -0.372 N 
ATOM      4  C   UNL     1     -22.214   6.807  -3.140  0.00  0.00    +0.166 C 
ATOM      5  H   UNL     1     -20.462   5.791  -3.241  0.00  0.00    +0.163 HD
ATOM      6  H   UNL     1     -23.610   6.499  -4.618  0.00  0.00    +0.159 HD
ATOM      7  H   UNL     1     -22.144   5.617  -4.820  0.00  0.00    +0.159 HD
ATOM      8  H   UNL     1     -22.692   8.110  -1.619  0.00  0.00    +0.159 HD
ATOM      9  H   UNL     1     -23.919   7.909  -2.808  0.00  0.00    +0.159 HD
ENDROOT
BRANCH   1  10
ATOM     10  C   UNL     1     -20.355   7.048  -1.525  0.00  0.00    +0.151 C 
BRANCH  10  11
ATOM     11  C   UNL     1     -20.511   6.093  -0.374  0.00  0.00    -0.028 A 
ATOM     12  C   UNL     1     -19.770   4.902  -0.332  0.00  0.00    +0.005 A 
ATOM     13  C   UNL     1     -21.393   6.374   0.680  0.00  0.00    +0.005 A 
ATOM     14  C   UNL     1     -19.891   4.029   0.751  0.00  0.00    +0.000 A 
ATOM     15  C   UNL     1     -21.512   5.499   1.760  0.00  0.00    +0.000 A 
ATOM     16  C   UNL     1     -20.759   4.327   1.796  0.00  0.00    +0.000 A 
ENDBRANCH  10  11
ENDBRANCH   1  10
TORSDOF 2
ENDMDL
MODEL 7
REMARK VINA RESULT:    -4.448      1.660      2.759
REMARK INTER + INTRA:          -5.146
REMARK INTER:                  -4.974
REMARK INTRA:                  -0.171
REMARK UNBOUND:                -0.177
REMARK  Name = 1550473
REMARK  2 active torsions:
REMARK  status: ('A' for Active; 'I' for Inactive)
REMARK    1  A    between atoms: N_1  and  C_4
REMARK    2  A    between atoms: C_4  and  C_5
REMARK                            x       y       z     vdW  Elec       q    Type
REMARK                         _______ _______ _______ _____ _____    ______ ____
ROOT
ATOM      1  N   UNL     1     -11.969  15.812   2.565  0.00  0.00    -0.354 N 
ATOM      2  N   UNL     1     -13.889  15.334   3.769  0.00  0.00    -0.372 N 
ATOM      3  N   UNL     1     -14.093  16.218   1.661  0.00  0.00    -0.372 N 
ATOM      4  C   UNL     1     -13.306  15.792   2.655  0.00  0.00    +0.166 C 
ATOM      5  H   UNL     1     -11.428  15.504   3.365  0.00  0.00    +0.163 HD
ATOM      6  H   UNL     1     -14.895  15.304   3.864  0.00  0.00    +0.159 HD
ATOM      7  H   UNL     1     -13.347  14.984   4.549  0.00  0.00    +0.159 HD
ATOM      8  H   UNL     1     -13.715  16.581   0.797  0.00  0.00    +0.159 HD
ATOM      9  H   UNL     1     -15.102  16.206   1.742  0.00  0.00    +0.159 HD
ENDROOT
BRANCH   1  10
ATOM     10  C   UNL     1     -11.236  16.241   1.376  0.00  0.00    +0.151 C 
BRANCH  10  11
ATOM     11  C   UNL     1     -10.969  15.045   0.505  0.00  0.00    -0.028 A 
ATOM     12  C   UNL     1     -10.226  13.960   0.993  0.00  0.00    +0.005 A 
ATOM     13  C   UNL     1     -11.462  14.987  -0.808  0.00  0.00    +0.005 A 
ATOM     14  C   UNL     1     -10.003  12.836   0.195  0.00  0.00    +0.000 A 
ATOM     15  C   UNL     1     -11.237  13.863  -1.602  0.00  0.00    +0.000 A 
ATOM     16  C   UNL     1     -10.509  12.787  -1.100  0.00  0.00    +0.000 A 
ENDBRANCH  10  11
ENDBRANCH   1  10
TORSDOF 2
ENDMDL
MODEL 8
REMARK VINA RESULT:    -4.433     12.424     12.801
REMARK INTER + INTRA:          -5.128
REMARK INTER:                  -5.013
REMARK INTRA:                  -0.115
REMARK UNBOUND:                -0.177
REMARK  Name = 1550473
REMARK  2 active torsions:
REMARK  status: ('A' for Active; 'I' for Inactive)
REMARK    1  A    between atoms: N_1  and  C_4
REMARK    2  A    between atoms: C_4  and  C_5
REMARK                            x       y       z     vdW  Elec       q    Type
REMARK                         _______ _______ _______ _____ _____    ______ ____
ROOT
ATOM      1  N   UNL     1     -14.697   9.864  10.203  0.00  0.00    -0.354 N 
ATOM      2  N   UNL     1     -13.018  11.272  10.953  0.00  0.00    -0.372 N 
ATOM      3  N   UNL     1     -13.745   9.584  12.326  0.00  0.00    -0.372 N 
ATOM      4  C   UNL     1     -13.832  10.229  11.158  0.00  0.00    +0.166 C 
ATOM      5  H   UNL     1     -14.735  10.413   9.352  0.00  0.00    +0.163 HD
ATOM      6  H   UNL     1     -12.352  11.568  11.653  0.00  0.00    +0.159 HD
ATOM      7  H   UNL     1     -13.025  11.790  10.083  0.00  0.00    +0.159 HD
ATOM      8  H   UNL     1     -14.335   8.793  12.546  0.00  0.00    +0.159 HD
ATOM      9  H   UNL     1     -13.093   9.873  13.045  0.00  0.00    +0.159 HD
ENDROOT
BRANCH   1  10
ATOM     10  C   UNL     1     -15.589   8.710  10.306  0.00  0.00    +0.151 C 
BRANCH  10  11
ATOM     11  C   UNL     1     -16.759   8.911   9.383  0.00  0.00    -0.028 A 
ATOM     12  C   UNL     1     -17.135   7.905   8.481  0.00  0.00    +0.005 A 
ATOM     13  C   UNL     1     -17.501  10.102   9.410  0.00  0.00    +0.005 A 
ATOM     14  C   UNL     1     -18.240   8.078   7.644  0.00  0.00    +0.000 A 
ATOM     15  C   UNL     1     -18.603  10.272   8.572  0.00  0.00    +0.000 A 
ATOM     16  C   UNL     1     -18.974   9.259   7.691  0.00  0.00    +0.000 A 
ENDBRANCH  10  11
ENDBRANCH   1  10
TORSDOF 2
ENDMDL
MODEL 9
REMARK VINA RESULT:    -4.387     12.350     13.771
REMARK INTER + INTRA:          -5.077
REMARK INTER:                  -4.974
REMARK INTRA:                  -0.103
REMARK UNBOUND:                -0.177
REMARK  Name = 1550473
REMARK  2 active torsions:
REMARK  status: ('A' for Active; 'I' for Inactive)
REMARK    1  A    between atoms: N_1  and  C_4
REMARK    2  A    between atoms: C_4  and  C_5
REMARK                            x       y       z     vdW  Elec       q    Type
REMARK                         _______ _______ _______ _____ _____    ______ ____
ROOT
ATOM      1  N   UNL     1     -14.503   8.687  10.176  0.00  0.00    -0.354 N 
ATOM      2  N   UNL     1     -13.725  10.834  10.561  0.00  0.00    -0.372 N 
ATOM      3  N   UNL     1     -15.989  10.467  10.513  0.00  0.00    -0.372 N 
ATOM      4  C   UNL     1     -14.747   9.983  10.414  0.00  0.00    +0.166 C 
ATOM      5  H   UNL     1     -13.539   8.388  10.082  0.00  0.00    +0.163 HD
ATOM      6  H   UNL     1     -13.878  11.816  10.745  0.00  0.00    +0.159 HD
ATOM      7  H   UNL     1     -12.762  10.524  10.512  0.00  0.00    +0.159 HD
ATOM      8  H   UNL     1     -16.804   9.878  10.406  0.00  0.00    +0.159 HD
ATOM      9  H   UNL     1     -16.163  11.450  10.685  0.00  0.00    +0.159 HD
ENDROOT
BRANCH   1  10
ATOM     10  C   UNL     1     -15.544   7.668  10.053  0.00  0.00    +0.151 C 
BRANCH  10  11
ATOM     11  C   UNL     1     -14.954   6.322  10.373  0.00  0.00    -0.028 A 
ATOM     12  C   UNL     1     -14.699   5.396   9.352  0.00  0.00    +0.005 A 
ATOM     13  C   UNL     1     -14.644   5.970  11.695  0.00  0.00    +0.005 A 
ATOM     14  C   UNL     1     -14.123   4.157   9.645  0.00  0.00    +0.000 A 
ATOM     15  C   UNL     1     -14.070   4.732  11.984  0.00  0.00    +0.000 A 
ATOM     16  C   UNL     1     -13.807   3.827  10.958  0.00  0.00    +0.000 A 
ENDBRANCH  10  11
ENDBRANCH   1  10
TORSDOF 2
ENDMDL
