MODEL 1
REMARK VINA RESULT:    -4.900      0.000      0.000
REMARK INTER + INTRA:          -5.635
REMARK INTER:                  -5.473
REMARK INTRA:                  -0.162
REMARK UNBOUND:                -0.162
REMARK  Name = 1550473
REMARK  2 active torsions:
REMARK  status: ('A' for Active; 'I' for Inactive)
REMARK    1  A    between atoms: N_1  and  C_4
REMARK    2  A    between atoms: C_4  and  C_5
REMARK                            x       y       z     vdW  Elec       q    Type
REMARK                         _______ _______ _______ _____ _____    ______ ____
ROOT
ATOM      1  N   UNL     1      -8.242  -0.954 -13.426  0.00  0.00    -0.354 N 
ATOM      2  N   UNL     1      -6.287  -2.090 -12.926  0.00  0.00    -0.372 N 
ATOM      3  N   UNL     1      -7.075  -0.531 -11.438  0.00  0.00    -0.372 N 
ATOM      4  C   UNL     1      -7.214  -1.182 -12.598  0.00  0.00    +0.166 C 
ATOM      5  H   UNL     1      -8.273  -1.459 -14.304  0.00  0.00    +0.163 HD
ATOM      6  H   UNL     1      -5.502  -2.286 -12.319  0.00  0.00    +0.159 HD
ATOM      7  H   UNL     1      -6.346  -2.626 -13.782  0.00  0.00    +0.159 HD
ATOM      8  H   UNL     1      -7.737   0.171 -11.136  0.00  0.00    +0.159 HD
ATOM      9  H   UNL     1      -6.290  -0.705 -10.823  0.00  0.00    +0.159 HD
ENDROOT
BRANCH   1  10
ATOM     10  C   UNL     1      -9.333  -0.025 -13.138  0.00  0.00    +0.151 C 
BRANCH  10  11
ATOM     11  C   UNL     1     -10.574  -0.811 -12.813  0.00  0.00    -0.028 A 
ATOM     12  C   UNL     1     -11.004  -1.844 -13.658  0.00  0.00    +0.005 A 
ATOM     13  C   UNL     1     -11.320  -0.531 -11.658  0.00  0.00    +0.005 A 
ATOM     14  C   UNL     1     -12.139  -2.594 -13.341  0.00  0.00    +0.000 A 
ATOM     15  C   UNL     1     -12.453  -1.281 -11.345  0.00  0.00    +0.000 A 
ATOM     16  C   UNL     1     -12.861  -2.314 -12.185  0.00  0.00    +0.000 A 
ENDBRANCH  10  11
ENDBRANCH   1  10
TORSDOF 2
ENDMDL
MODEL 2
REMARK VINA RESULT:    -4.571      1.223      2.078
REMARK INTER + INTRA:          -5.268
REMARK INTER:                  -5.128
REMARK INTRA:                  -0.141
REMARK UNBOUND:                -0.162
REMARK  Name = 1550473
REMARK  2 active torsions:
REMARK  status: ('A' for Active; 'I' for Inactive)
REMARK    1  A    between atoms: N_1  and  C_4
REMARK    2  A    between atoms: C_4  and  C_5
REMARK                            x       y       z     vdW  Elec       q    Type
REMARK                         _______ _______ _______ _____ _____    ______ ____
ROOT
ATOM      1  N   UNL     1      -6.889  -0.666 -13.589  0.00  0.00    -0.354 N 
ATOM      2  N   UNL     1      -4.916  -1.333 -12.576  0.00  0.00    -0.372 N 
ATOM      3  N   UNL     1      -5.927   0.602 -11.869  0.00  0.00    -0.372 N 
ATOM      4  C   UNL     1      -5.924  -0.459 -12.683  0.00  0.00    +0.166 C 
ATOM      5  H   UNL     1      -6.813  -1.473 -14.197  0.00  0.00    +0.163 HD
ATOM      6  H   UNL     1      -4.176  -1.205 -11.899  0.00  0.00    +0.159 HD
ATOM      7  H   UNL     1      -4.867  -2.163 -13.154  0.00  0.00    +0.159 HD
ATOM      8  H   UNL     1      -6.657   1.302 -11.904  0.00  0.00    +0.159 HD
ATOM      9  H   UNL     1      -5.189   0.754 -11.193  0.00  0.00    +0.159 HD
ENDROOT
BRANCH   1  10
ATOM     10  C   UNL     1      -8.058   0.197 -13.750  0.00  0.00    +0.151 C 
BRANCH  10  11
ATOM     11  C   UNL     1      -9.301  -0.602 -13.467  0.00  0.00    -0.028 A 
ATOM     12  C   UNL     1     -10.101  -0.304 -12.355  0.00  0.00    +0.005 A 
ATOM     13  C   UNL     1      -9.686  -1.655 -14.311  0.00  0.00    +0.005 A 
ATOM     14  C   UNL     1     -11.272  -1.026 -12.109  0.00  0.00    +0.000 A 
ATOM     15  C   UNL     1     -10.855  -2.374 -14.062  0.00  0.00    +0.000 A 
ATOM     16  C   UNL     1     -11.648  -2.058 -12.962  0.00  0.00    +0.000 A 
ENDBRANCH  10  11
ENDBRANCH   1  10
TORSDOF 2
ENDMDL
MODEL 3
REMARK VINA RESULT:    -4.548     19.690     22.431
REMARK INTER + INTRA:          -5.243
REMARK INTER:                  -5.072
REMARK INTRA:                  -0.171
REMARK UNBOUND:                -0.162
REMARK  Name = 1550473
REMARK  2 active torsions:
REMARK  status: ('A' for Active; 'I' for Inactive)
REMARK    1  A    between atoms: N_1  and  C_4
REMARK    2  A    between atoms: C_4  and  C_5
REMARK                            x       y       z     vdW  Elec       q    Type
REMARK                         _______ _______ _______ _____ _____    ______ ____
ROOT
ATOM      1  N   UNL     1       7.645   8.019  -7.076  0.00  0.00    -0.354 N 
ATOM      2  N   UNL     1       6.240   6.495  -8.109  0.00  0.00    -0.372 N 
ATOM      3  N   UNL     1       8.122   7.196  -9.218  0.00  0.00    -0.372 N 
ATOM      4  C   UNL     1       7.347   7.247  -8.130  0.00  0.00    +0.166 C 
ATOM      5  H   UNL     1       7.000   8.037  -6.294  0.00  0.00    +0.163 HD
ATOM      6  H   UNL     1       5.991   5.900  -8.888  0.00  0.00    +0.159 HD
ATOM      7  H   UNL     1       5.621   6.479  -7.307  0.00  0.00    +0.159 HD
ATOM      8  H   UNL     1       8.968   7.744  -9.298  0.00  0.00    +0.159 HD
ATOM      9  H   UNL     1       7.884   6.616 -10.012  0.00  0.00    +0.159 HD
ENDROOT
BRANCH   1  10
ATOM     10  C   UNL     1       8.854   8.835  -6.976  0.00  0.00    +0.151 C 
BRANCH  10  11
ATOM     11  C   UNL     1       9.855   8.125  -6.108  0.00  0.00    -0.028 A 
ATOM     12  C   UNL     1      10.768   7.220  -6.668  0.00  0.00    +0.005 A 
ATOM     13  C   UNL     1       9.900   8.357  -4.725  0.00  0.00    +0.005 A 
ATOM     14  C   UNL     1      11.718   6.582  -5.867  0.00  0.00    +0.000 A 
ATOM     15  C   UNL     1      10.850   7.718  -3.928  0.00  0.00    +0.000 A 
ATOM     16  C   UNL     1      11.760   6.832  -4.499  0.00  0.00    +0.000 A 
ENDBRANCH  10  11
ENDBRANCH   1  10
TORSDOF 2
ENDMDL
MODEL 4
REMARK VINA RESULT:    -4.463      1.814      2.140
REMARK INTER + INTRA:          -5.147
REMARK INTER:                  -5.013
REMARK INTRA:                  -0.134
REMARK UNBOUND:                -0.162
REMARK  Name = 1550473
REMARK  2 active torsions:
REMARK  status: ('A' for Active; 'I' for Inactive)
REMARK    1  A    between atoms: N_1  and  C_4
REMARK    2  A    between atoms: C_4  and  C_5
REMARK                            x       y       z     vdW  Elec       q    Type
REMARK                         _______ _______ _______ _____ _____    ______ ____
ROOT
ATOM      1  N   UNL     1      -7.331   0.571 -13.081  0.00  0.00    -0.354 N 
ATOM      2  N   UNL     1      -5.637   1.439 -14.401  0.00  0.00    -0.372 N 
ATOM      3  N   UNL     1      -5.138  -0.240 -12.919  0.00  0.00    -0.372 N 
ATOM      4  C   UNL     1      -6.045   0.582 -13.457  0.00  0.00    +0.166 C 
ATOM      5  H   UNL     1      -7.962   1.241 -13.506  0.00  0.00    +0.163 HD
ATOM      6  H   UNL     1      -4.673   1.468 -14.707  0.00  0.00    +0.159 HD
ATOM      7  H   UNL     1      -6.279   2.076 -14.856  0.00  0.00    +0.159 HD
ATOM      8  H   UNL     1      -5.381  -0.906 -12.197  0.00  0.00    +0.159 HD
ATOM      9  H   UNL     1      -4.167  -0.218 -13.203  0.00  0.00    +0.159 HD
ENDROOT
BRANCH   1  10
ATOM     10  C   UNL     1      -7.888  -0.358 -12.101  0.00  0.00    +0.151 C 
BRANCH  10  11
ATOM     11  C   UNL     1      -9.150  -0.960 -12.656  0.00  0.00    -0.028 A 
ATOM     12  C   UNL     1      -9.108  -1.780 -13.792  0.00  0.00    +0.005 A 
ATOM     13  C   UNL     1     -10.390  -0.717 -12.046  0.00  0.00    +0.005 A 
ATOM     14  C   UNL     1     -10.275  -2.363 -14.290  0.00  0.00    +0.000 A 
ATOM     15  C   UNL     1     -11.554  -1.300 -12.547  0.00  0.00    +0.000 A 
ATOM     16  C   UNL     1     -11.496  -2.125 -13.668  0.00  0.00    +0.000 A 
ENDBRANCH  10  11
ENDBRANCH   1  10
TORSDOF 2
ENDMDL
MODEL 5
REMARK VINA RESULT:    -4.434     17.230     18.072
REMARK INTER + INTRA:          -5.115
REMARK INTER:                  -4.982
REMARK INTRA:                  -0.134
REMARK UNBOUND:                -0.162
REMARK  Name = 1550473
REMARK  2 active torsions:
REMARK  status: ('A' for Active; 'I' for Inactive)
REMARK    1  A    between atoms: N_1  and  C_4
REMARK    2  A    between atoms: C_4  and  C_5
REMARK                            x       y       z     vdW  Elec       q    Type
REMARK                         _______ _______ _______ _____ _____    ______ ____
ROOT
ATOM      1  N   UNL     1       6.150 -10.255 -11.585  0.00  0.00    -0.354 N 
ATOM      2  N   UNL     1       7.965 -11.400 -10.715  0.00  0.00    -0.372 N 
ATOM      3  N   UNL     1       6.670 -12.421 -12.311  0.00  0.00    -0.372 N 
ATOM      4  C   UNL     1       6.915 -11.353 -11.544  0.00  0.00    +0.166 C 
ATOM      5  H   UNL     1       6.371  -9.490 -10.957  0.00  0.00    +0.163 HD
ATOM      6  H   UNL     1       8.562 -12.214 -10.665  0.00  0.00    +0.159 HD
ATOM      7  H   UNL     1       8.211 -10.617 -10.122  0.00  0.00    +0.159 HD
ATOM      8  H   UNL     1       5.890 -12.452 -12.953  0.00  0.00    +0.159 HD
ATOM      9  H   UNL     1       7.250 -13.250 -12.266  0.00  0.00    +0.159 HD
ENDROOT
BRANCH   1  10
ATOM     10  C   UNL     1       5.016 -10.081 -12.492  0.00  0.00    +0.151 C 
BRANCH  10  11
ATOM     11  C   UNL     1       5.239  -8.852 -13.328  0.00  0.00    -0.028 A 
ATOM     12  C   UNL     1       5.571  -7.630 -12.724  0.00  0.00    +0.005 A 
ATOM     13  C   UNL     1       5.126  -8.903 -14.726  0.00  0.00    +0.005 A 
ATOM     14  C   UNL     1       5.808  -6.495 -13.502  0.00  0.00    +0.000 A 
ATOM     15  C   UNL     1       5.363  -7.766 -15.500  0.00  0.00    +0.000 A 
ATOM     16  C   UNL     1       5.706  -6.563 -14.888  0.00  0.00    +0.000 A 
ENDBRANCH  10  11
ENDBRANCH   1  10
TORSDOF 2
ENDMDL
MODEL 6
REMARK VINA RESULT:    -4.245     16.976     17.920
REMARK INTER + INTRA:          -4.904
REMARK INTER:                  -4.789
REMARK INTRA:                  -0.114
REMARK UNBOUND:                -0.162
REMARK  Name = 1550473
REMARK  2 active torsions:
REMARK  status: ('A' for Active; 'I' for Inactive)
REMARK    1  A    between atoms: N_1  and  C_4
REMARK    2  A    between atoms: C_4  and  C_5
REMARK                            x       y       z     vdW  Elec       q    Type
REMARK                         _______ _______ _______ _____ _____    ______ ____
ROOT
ATOM      1  N   UNL     1      -8.362  -7.601   4.720  0.00  0.00    -0.354 N 
ATOM      2  N   UNL     1      -8.476  -9.910   4.579  0.00  0.00    -0.372 N 
ATOM      3  N   UNL     1      -6.459  -8.875   4.224  0.00  0.00    -0.372 N 
ATOM      4  C   UNL     1      -7.762  -8.780   4.508  0.00  0.00    +0.166 C 
ATOM      5  H   UNL     1      -9.360  -7.594   4.901  0.00  0.00    +0.163 HD
ATOM      6  H   UNL     1      -8.050 -10.815   4.427  0.00  0.00    +0.159 HD
ATOM      7  H   UNL     1      -9.463  -9.904   4.805  0.00  0.00    +0.159 HD
ATOM      8  H   UNL     1      -5.866  -8.059   4.151  0.00  0.00    +0.159 HD
ATOM      9  H   UNL     1      -6.016  -9.770   4.058  0.00  0.00    +0.159 HD
ENDROOT
BRANCH   1  10
ATOM     10  C   UNL     1      -7.665  -6.317   4.719  0.00  0.00    +0.151 C 
BRANCH  10  11
ATOM     11  C   UNL     1      -8.658  -5.219   4.455  0.00  0.00    -0.028 A 
ATOM     12  C   UNL     1      -8.290  -4.092   3.705  0.00  0.00    +0.005 A 
ATOM     13  C   UNL     1      -9.969  -5.302   4.948  0.00  0.00    +0.005 A 
ATOM     14  C   UNL     1      -9.221  -3.086   3.434  0.00  0.00    +0.000 A 
ATOM     15  C   UNL     1     -10.895  -4.294   4.676  0.00  0.00    +0.000 A 
ATOM     16  C   UNL     1     -10.521  -3.188   3.917  0.00  0.00    +0.000 A 
ENDBRANCH  10  11
ENDBRANCH   1  10
TORSDOF 2
ENDMDL
MODEL 7
REMARK VINA RESULT:    -4.222      1.915      2.456
REMARK INTER + INTRA:          -4.878
REMARK INTER:                  -4.770
REMARK INTRA:                  -0.109
REMARK UNBOUND:                -0.162
REMARK  Name = 1550473
REMARK  2 active torsions:
REMARK  status: ('A' for Active; 'I' for Inactive)
REMARK    1  A    between atoms: N_1  and  C_4
REMARK    2  A    between atoms: C_4  and  C_5
REMARK                            x       y       z     vdW  Elec       q    Type
REMARK                         _______ _______ _______ _____ _____    ______ ____
ROOT
ATOM      1  N   UNL     1      -9.276  -1.371 -15.023  0.00  0.00    -0.354 N 
ATOM      2  N   UNL     1      -7.361  -0.166 -15.515  0.00  0.00    -0.372 N 
ATOM      3  N   UNL     1      -7.194  -2.006 -14.154  0.00  0.00    -0.372 N 
ATOM      4  C   UNL     1      -7.955  -1.191 -14.892  0.00  0.00    +0.166 C 
ATOM      5  H   UNL     1      -9.802  -0.701 -15.571  0.00  0.00    +0.163 HD
ATOM      6  H   UNL     1      -6.365  -0.006 -15.438  0.00  0.00    +0.159 HD
ATOM      7  H   UNL     1      -7.882   0.476 -16.100  0.00  0.00    +0.159 HD
ATOM      8  H   UNL     1      -7.583  -2.794 -13.654  0.00  0.00    +0.159 HD
ATOM      9  H   UNL     1      -6.198  -1.856 -14.056  0.00  0.00    +0.159 HD
ENDROOT
BRANCH   1  10
ATOM     10  C   UNL     1     -10.012  -2.487 -14.430  0.00  0.00    +0.151 C 
BRANCH  10  11
ATOM     11  C   UNL     1     -11.424  -2.052 -14.152  0.00  0.00    -0.028 A 
ATOM     12  C   UNL     1     -12.172  -1.392 -15.138  0.00  0.00    +0.005 A 
ATOM     13  C   UNL     1     -12.022  -2.303 -12.907  0.00  0.00    +0.005 A 
ATOM     14  C   UNL     1     -13.495  -1.015 -14.891  0.00  0.00    +0.000 A 
ATOM     15  C   UNL     1     -13.342  -1.924 -12.664  0.00  0.00    +0.000 A 
ATOM     16  C   UNL     1     -14.079  -1.282 -13.657  0.00  0.00    +0.000 A 
ENDBRANCH  10  11
ENDBRANCH   1  10
TORSDOF 2
ENDMDL
MODEL 8
REMARK VINA RESULT:    -4.142     17.331     18.231
REMARK INTER + INTRA:          -4.788
REMARK INTER:                  -4.666
REMARK INTRA:                  -0.122
REMARK UNBOUND:                -0.162
REMARK  Name = 1550473
REMARK  2 active torsions:
REMARK  status: ('A' for Active; 'I' for Inactive)
REMARK    1  A    between atoms: N_1  and  C_4
REMARK    2  A    between atoms: C_4  and  C_5
REMARK                            x       y       z     vdW  Elec       q    Type
REMARK                         _______ _______ _______ _____ _____    ______ ____
ROOT
ATOM      1  N   UNL     1      -6.079  -4.950   5.705  0.00  0.00    -0.354 N 
ATOM      2  N   UNL     1      -4.419  -5.480   7.231  0.00  0.00    -0.372 N 
ATOM      3  N   UNL     1      -4.635  -6.759   5.338  0.00  0.00    -0.372 N 
ATOM      4  C   UNL     1      -5.055  -5.729   6.080  0.00  0.00    +0.166 C 
ATOM      5  H   UNL     1      -6.368  -4.203   6.327  0.00  0.00    +0.163 HD
ATOM      6  H   UNL     1      -3.640  -6.048   7.538  0.00  0.00    +0.159 HD
ATOM      7  H   UNL     1      -4.680  -4.705   7.828  0.00  0.00    +0.159 HD
ATOM      8  H   UNL     1      -5.076  -7.003   4.461  0.00  0.00    +0.159 HD
ATOM      9  H   UNL     1      -3.865  -7.346   5.634  0.00  0.00    +0.159 HD
ENDROOT
BRANCH   1  10
ATOM     10  C   UNL     1      -6.803  -5.102   4.445  0.00  0.00    +0.151 C 
BRANCH  10  11
ATOM     11  C   UNL     1      -8.041  -4.249   4.484  0.00  0.00    -0.028 A 
ATOM     12  C   UNL     1      -8.704  -3.902   3.298  0.00  0.00    +0.005 A 
ATOM     13  C   UNL     1      -8.560  -3.790   5.704  0.00  0.00    +0.005 A 
ATOM     14  C   UNL     1      -9.871  -3.134   3.335  0.00  0.00    +0.000 A 
ATOM     15  C   UNL     1      -9.724  -3.024   5.738  0.00  0.00    +0.000 A 
ATOM     16  C   UNL     1     -10.381  -2.698   4.553  0.00  0.00    +0.000 A 
ENDBRANCH  10  11
ENDBRANCH   1  10
TORSDOF 2
ENDMDL
MODEL 9
REMARK VINA RESULT:    -4.090     16.699     17.793
REMARK INTER + INTRA:          -4.730
REMARK INTER:                  -4.635
REMARK INTRA:                  -0.095
REMARK UNBOUND:                -0.162
REMARK  Name = 1550473
REMARK  2 active torsions:
REMARK  status: ('A' for Active; 'I' for Inactive)
REMARK    1  A    between atoms: N_1  and  C_4
REMARK    2  A    between atoms: C_4  and  C_5
REMARK                            x       y       z     vdW  Elec       q    Type
REMARK                         _______ _______ _______ _____ _____    ______ ____
ROOT
ATOM      1  N   UNL     1      -9.941  -2.789   4.685  0.00  0.00    -0.354 N 
ATOM      2  N   UNL     1     -11.502  -1.502   5.812  0.00  0.00    -0.372 N 
ATOM      3  N   UNL     1     -11.600  -1.611   3.522  0.00  0.00    -0.372 N 
ATOM      4  C   UNL     1     -11.005  -1.975   4.663  0.00  0.00    +0.166 C 
ATOM      5  H   UNL     1      -9.517  -3.002   5.580  0.00  0.00    +0.163 HD
ATOM      6  H   UNL     1     -12.306  -0.889   5.826  0.00  0.00    +0.159 HD
ATOM      7  H   UNL     1     -11.105  -1.754   6.708  0.00  0.00    +0.159 HD
ATOM      8  H   UNL     1     -11.269  -1.929   2.620  0.00  0.00    +0.159 HD
ATOM      9  H   UNL     1     -12.398  -0.989   3.515  0.00  0.00    +0.159 HD
ENDROOT
BRANCH   1  10
ATOM     10  C   UNL     1      -9.355  -3.401   3.494  0.00  0.00    +0.151 C 
BRANCH  10  11
ATOM     11  C   UNL     1      -8.454  -4.530   3.915  0.00  0.00    -0.028 A 
ATOM     12  C   UNL     1      -7.071  -4.329   4.034  0.00  0.00    +0.005 A 
ATOM     13  C   UNL     1      -8.978  -5.800   4.201  0.00  0.00    +0.005 A 
ATOM     14  C   UNL     1      -6.237  -5.369   4.454  0.00  0.00    +0.000 A 
ATOM     15  C   UNL     1      -8.142  -6.835   4.619  0.00  0.00    +0.000 A 
ATOM     16  C   UNL     1      -6.772  -6.618   4.748  0.00  0.00    +0.000 A 
ENDBRANCH  10  11
ENDBRANCH   1  10
TORSDOF 2
ENDMDL
