MODEL 1
REMARK VINA RESULT:    -6.015      0.000      0.000
REMARK INTER + INTRA:          -6.841
REMARK INTER:                  -6.718
REMARK INTRA:                  -0.123
REMARK UNBOUND:                -0.123
REMARK  Name = 1550473
REMARK  2 active torsions:
REMARK  status: ('A' for Active; 'I' for Inactive)
REMARK    1  A    between atoms: N_1  and  C_4
REMARK    2  A    between atoms: C_4  and  C_5
REMARK                            x       y       z     vdW  Elec       q    Type
REMARK                         _______ _______ _______ _____ _____    ______ ____
ROOT
ATOM      1  N   UNL     1       8.570  -1.392  12.625  0.00  0.00    -0.354 N 
ATOM      2  N   UNL     1      10.671  -0.657  11.984  0.00  0.00    -0.372 N 
ATOM      3  N   UNL     1      10.290  -2.913  12.155  0.00  0.00    -0.372 N 
ATOM      4  C   UNL     1       9.831  -1.661  12.259  0.00  0.00    +0.166 C 
ATOM      5  H   UNL     1       8.292  -0.421  12.714  0.00  0.00    +0.163 HD
ATOM      6  H   UNL     1      11.627  -0.829  11.702  0.00  0.00    +0.159 HD
ATOM      7  H   UNL     1      10.377   0.311  12.030  0.00  0.00    +0.159 HD
ATOM      8  H   UNL     1       9.708  -3.715  12.355  0.00  0.00    +0.159 HD
ATOM      9  H   UNL     1      11.247  -3.106  11.886  0.00  0.00    +0.159 HD
ENDROOT
BRANCH   1  10
ATOM     10  C   UNL     1       7.560  -2.414  12.894  0.00  0.00    +0.151 C 
BRANCH  10  11
ATOM     11  C   UNL     1       6.193  -1.809  12.733  0.00  0.00    -0.028 A 
ATOM     12  C   UNL     1       5.123  -2.246  13.526  0.00  0.00    +0.005 A 
ATOM     13  C   UNL     1       5.963  -0.793  11.792  0.00  0.00    +0.005 A 
ATOM     14  C   UNL     1       3.860  -1.663  13.398  0.00  0.00    +0.000 A 
ATOM     15  C   UNL     1       4.701  -0.214  11.667  0.00  0.00    +0.000 A 
ATOM     16  C   UNL     1       3.650  -0.647  12.471  0.00  0.00    +0.000 A 
ENDBRANCH  10  11
ENDBRANCH   1  10
TORSDOF 2
ENDMDL
MODEL 2
REMARK VINA RESULT:    -5.250      2.998      4.463
REMARK INTER + INTRA:          -5.987
REMARK INTER:                  -5.826
REMARK INTRA:                  -0.161
REMARK UNBOUND:                -0.123
REMARK  Name = 1550473
REMARK  2 active torsions:
REMARK  status: ('A' for Active; 'I' for Inactive)
REMARK    1  A    between atoms: N_1  and  C_4
REMARK    2  A    between atoms: C_4  and  C_5
REMARK                            x       y       z     vdW  Elec       q    Type
REMARK                         _______ _______ _______ _____ _____    ______ ____
ROOT
ATOM      1  N   UNL     1       4.628  -1.474  12.840  0.00  0.00    -0.354 N 
ATOM      2  N   UNL     1       6.502  -2.596  12.069  0.00  0.00    -0.372 N 
ATOM      3  N   UNL     1       4.990  -1.784  10.546  0.00  0.00    -0.372 N 
ATOM      4  C   UNL     1       5.360  -1.944  11.821  0.00  0.00    +0.166 C 
ATOM      5  H   UNL     1       4.948  -1.655  13.785  0.00  0.00    +0.163 HD
ATOM      6  H   UNL     1       7.076  -2.959  11.320  0.00  0.00    +0.159 HD
ATOM      7  H   UNL     1       6.842  -2.735  13.013  0.00  0.00    +0.159 HD
ATOM      8  H   UNL     1       4.136  -1.305  10.292  0.00  0.00    +0.159 HD
ATOM      9  H   UNL     1       5.546  -2.149   9.783  0.00  0.00    +0.159 HD
ENDROOT
BRANCH   1  10
ATOM     10  C   UNL     1       3.397  -0.704  12.677  0.00  0.00    +0.151 C 
BRANCH  10  11
ATOM     11  C   UNL     1       2.229  -1.547  13.107  0.00  0.00    -0.028 A 
ATOM     12  C   UNL     1       2.160  -2.055  14.412  0.00  0.00    +0.005 A 
ATOM     13  C   UNL     1       1.184  -1.837  12.215  0.00  0.00    +0.005 A 
ATOM     14  C   UNL     1       1.060  -2.813  14.821  0.00  0.00    +0.000 A 
ATOM     15  C   UNL     1       0.089  -2.595  12.627  0.00  0.00    +0.000 A 
ATOM     16  C   UNL     1       0.026  -3.081  13.931  0.00  0.00    +0.000 A 
ENDBRANCH  10  11
ENDBRANCH   1  10
TORSDOF 2
ENDMDL
MODEL 3
REMARK VINA RESULT:    -5.240     11.487     12.019
REMARK INTER + INTRA:          -5.976
REMARK INTER:                  -5.855
REMARK INTRA:                  -0.121
REMARK UNBOUND:                -0.123
REMARK  Name = 1550473
REMARK  2 active torsions:
REMARK  status: ('A' for Active; 'I' for Inactive)
REMARK    1  A    between atoms: N_1  and  C_4
REMARK    2  A    between atoms: C_4  and  C_5
REMARK                            x       y       z     vdW  Elec       q    Type
REMARK                         _______ _______ _______ _____ _____    ______ ____
ROOT
ATOM      1  N   UNL     1       9.329   3.562  20.494  0.00  0.00    -0.354 N 
ATOM      2  N   UNL     1       7.890   2.409  19.093  0.00  0.00    -0.372 N 
ATOM      3  N   UNL     1      10.002   1.581  19.438  0.00  0.00    -0.372 N 
ATOM      4  C   UNL     1       9.086   2.524  19.684  0.00  0.00    +0.166 C 
ATOM      5  H   UNL     1       8.603   4.259  20.615  0.00  0.00    +0.163 HD
ATOM      6  H   UNL     1       7.676   1.635  18.479  0.00  0.00    +0.159 HD
ATOM      7  H   UNL     1       7.151   3.082  19.252  0.00  0.00    +0.159 HD
ATOM      8  H   UNL     1      10.926   1.613  19.848  0.00  0.00    +0.159 HD
ATOM      9  H   UNL     1       9.811   0.805  18.817  0.00  0.00    +0.159 HD
ENDROOT
BRANCH   1  10
ATOM     10  C   UNL     1      10.579   3.751  21.228  0.00  0.00    +0.151 C 
BRANCH  10  11
ATOM     11  C   UNL     1      10.362   4.767  22.316  0.00  0.00    -0.028 A 
ATOM     12  C   UNL     1      11.418   5.579  22.753  0.00  0.00    +0.005 A 
ATOM     13  C   UNL     1       9.100   4.926  22.909  0.00  0.00    +0.005 A 
ATOM     14  C   UNL     1      11.209   6.544  23.741  0.00  0.00    +0.000 A 
ATOM     15  C   UNL     1       8.896   5.889  23.896  0.00  0.00    +0.000 A 
ATOM     16  C   UNL     1       9.950   6.700  24.311  0.00  0.00    +0.000 A 
ENDBRANCH  10  11
ENDBRANCH   1  10
TORSDOF 2
ENDMDL
MODEL 4
REMARK VINA RESULT:    -4.980     27.674     29.057
REMARK INTER + INTRA:          -5.685
REMARK INTER:                  -5.555
REMARK INTRA:                  -0.131
REMARK UNBOUND:                -0.123
REMARK  Name = 1550473
REMARK  2 active torsions:
REMARK  status: ('A' for Active; 'I' for Inactive)
REMARK    1  A    between atoms: N_1  and  C_4
REMARK    2  A    between atoms: C_4  and  C_5
REMARK                            x       y       z     vdW  Elec       q    Type
REMARK                         _______ _______ _______ _____ _____    ______ ____
ROOT
ATOM      1  N   UNL     1      -8.896   3.282 -11.926  0.00  0.00    -0.354 N 
ATOM      2  N   UNL     1     -10.714   2.907 -13.311  0.00  0.00    -0.372 N 
ATOM      3  N   UNL     1     -11.087   3.591 -11.152  0.00  0.00    -0.372 N 
ATOM      4  C   UNL     1     -10.222   3.263 -12.118  0.00  0.00    +0.166 C 
ATOM      5  H   UNL     1      -8.295   2.994 -12.689  0.00  0.00    +0.163 HD
ATOM      6  H   UNL     1     -11.710   2.887 -13.486  0.00  0.00    +0.159 HD
ATOM      7  H   UNL     1     -10.110   2.664 -14.086  0.00  0.00    +0.159 HD
ATOM      8  H   UNL     1     -10.779   3.862 -10.228  0.00  0.00    +0.159 HD
ATOM      9  H   UNL     1     -12.087   3.565 -11.305  0.00  0.00    +0.159 HD
ENDROOT
BRANCH   1  10
ATOM     10  C   UNL     1      -8.256   3.706 -10.682  0.00  0.00    +0.151 C 
BRANCH  10  11
ATOM     11  C   UNL     1      -6.917   4.311 -11.000  0.00  0.00    -0.028 A 
ATOM     12  C   UNL     1      -6.111   4.833  -9.977  0.00  0.00    +0.005 A 
ATOM     13  C   UNL     1      -6.446   4.361 -12.320  0.00  0.00    +0.005 A 
ATOM     14  C   UNL     1      -4.854   5.368 -10.268  0.00  0.00    +0.000 A 
ATOM     15  C   UNL     1      -5.190   4.897 -12.607  0.00  0.00    +0.000 A 
ATOM     16  C   UNL     1      -4.393   5.398 -11.581  0.00  0.00    +0.000 A 
ENDBRANCH  10  11
ENDBRANCH   1  10
TORSDOF 2
ENDMDL
MODEL 5
REMARK VINA RESULT:    -4.957     11.828     12.366
REMARK INTER + INTRA:          -5.659
REMARK INTER:                  -5.533
REMARK INTRA:                  -0.126
REMARK UNBOUND:                -0.123
REMARK  Name = 1550473
REMARK  2 active torsions:
REMARK  status: ('A' for Active; 'I' for Inactive)
REMARK    1  A    between atoms: N_1  and  C_4
REMARK    2  A    between atoms: C_4  and  C_5
REMARK                            x       y       z     vdW  Elec       q    Type
REMARK                         _______ _______ _______ _____ _____    ______ ____
ROOT
ATOM      1  N   UNL     1       9.031   5.328  23.615  0.00  0.00    -0.354 N 
ATOM      2  N   UNL     1       7.898   6.965  24.798  0.00  0.00    -0.372 N 
ATOM      3  N   UNL     1      10.192   6.991  24.790  0.00  0.00    -0.372 N 
ATOM      4  C   UNL     1       9.050   6.418  24.394  0.00  0.00    +0.166 C 
ATOM      5  H   UNL     1       8.133   4.924  23.374  0.00  0.00    +0.163 HD
ATOM      6  H   UNL     1       7.881   7.790  25.383  0.00  0.00    +0.159 HD
ATOM      7  H   UNL     1       7.001   6.587  24.518  0.00  0.00    +0.159 HD
ATOM      8  H   UNL     1      11.096   6.623  24.524  0.00  0.00    +0.159 HD
ATOM      9  H   UNL     1      10.196   7.809  25.385  0.00  0.00    +0.159 HD
ENDROOT
BRANCH   1  10
ATOM     10  C   UNL     1      10.229   4.687  23.077  0.00  0.00    +0.151 C 
BRANCH  10  11
ATOM     11  C   UNL     1       9.852   3.881  21.864  0.00  0.00    -0.028 A 
ATOM     12  C   UNL     1       8.504   3.682  21.532  0.00  0.00    +0.005 A 
ATOM     13  C   UNL     1      10.839   3.320  21.039  0.00  0.00    +0.005 A 
ATOM     14  C   UNL     1       8.154   2.960  20.389  0.00  0.00    +0.000 A 
ATOM     15  C   UNL     1      10.485   2.598  19.899  0.00  0.00    +0.000 A 
ATOM     16  C   UNL     1       9.142   2.421  19.573  0.00  0.00    +0.000 A 
ENDBRANCH  10  11
ENDBRANCH   1  10
TORSDOF 2
ENDMDL
MODEL 6
REMARK VINA RESULT:    -4.955     26.898     28.302
REMARK INTER + INTRA:          -5.657
REMARK INTER:                  -5.560
REMARK INTRA:                  -0.097
REMARK UNBOUND:                -0.123
REMARK  Name = 1550473
REMARK  2 active torsions:
REMARK  status: ('A' for Active; 'I' for Inactive)
REMARK    1  A    between atoms: N_1  and  C_4
REMARK    2  A    between atoms: C_4  and  C_5
REMARK                            x       y       z     vdW  Elec       q    Type
REMARK                         _______ _______ _______ _____ _____    ______ ____
ROOT
ATOM      1  N   UNL     1      -9.418   4.182  -7.769  0.00  0.00    -0.354 N 
ATOM      2  N   UNL     1      -9.958   4.196  -5.517  0.00  0.00    -0.372 N 
ATOM      3  N   UNL     1      -8.573   5.832  -6.335  0.00  0.00    -0.372 N 
ATOM      4  C   UNL     1      -9.311   4.739  -6.555  0.00  0.00    +0.166 C 
ATOM      5  H   UNL     1      -9.968   3.336  -7.864  0.00  0.00    +0.163 HD
ATOM      6  H   UNL     1      -9.899   4.595  -4.590  0.00  0.00    +0.159 HD
ATOM      7  H   UNL     1     -10.545   3.377  -5.624  0.00  0.00    +0.159 HD
ATOM      8  H   UNL     1      -8.055   6.286  -7.075  0.00  0.00    +0.159 HD
ATOM      9  H   UNL     1      -8.492   6.240  -5.412  0.00  0.00    +0.159 HD
ENDROOT
BRANCH   1  10
ATOM     10  C   UNL     1      -8.796   4.726  -8.976  0.00  0.00    +0.151 C 
BRANCH  10  11
ATOM     11  C   UNL     1      -9.500   4.171 -10.183  0.00  0.00    -0.028 A 
ATOM     12  C   UNL     1      -8.973   3.068 -10.870  0.00  0.00    +0.005 A 
ATOM     13  C   UNL     1     -10.698   4.741 -10.643  0.00  0.00    +0.005 A 
ATOM     14  C   UNL     1      -9.642   2.533 -11.974  0.00  0.00    +0.000 A 
ATOM     15  C   UNL     1     -11.362   4.205 -11.746  0.00  0.00    +0.000 A 
ATOM     16  C   UNL     1     -10.835   3.100 -12.409  0.00  0.00    +0.000 A 
ENDBRANCH  10  11
ENDBRANCH   1  10
TORSDOF 2
ENDMDL
MODEL 7
REMARK VINA RESULT:    -4.913     27.464     28.754
REMARK INTER + INTRA:          -5.610
REMARK INTER:                  -5.492
REMARK INTRA:                  -0.118
REMARK UNBOUND:                -0.123
REMARK  Name = 1550473
REMARK  2 active torsions:
REMARK  status: ('A' for Active; 'I' for Inactive)
REMARK    1  A    between atoms: N_1  and  C_4
REMARK    2  A    between atoms: C_4  and  C_5
REMARK                            x       y       z     vdW  Elec       q    Type
REMARK                         _______ _______ _______ _____ _____    ______ ____
ROOT
ATOM      1  N   UNL     1      -7.407   4.339  -9.795  0.00  0.00    -0.354 N 
ATOM      2  N   UNL     1      -5.179   4.966  -9.736  0.00  0.00    -0.372 N 
ATOM      3  N   UNL     1      -6.765   6.434  -8.966  0.00  0.00    -0.372 N 
ATOM      4  C   UNL     1      -6.466   5.245  -9.498  0.00  0.00    +0.166 C 
ATOM      5  H   UNL     1      -7.118   3.468 -10.225  0.00  0.00    +0.163 HD
ATOM      6  H   UNL     1      -4.446   5.629  -9.519  0.00  0.00    +0.159 HD
ATOM      7  H   UNL     1      -4.888   4.077 -10.123  0.00  0.00    +0.159 HD
ATOM      8  H   UNL     1      -7.719   6.708  -8.768  0.00  0.00    +0.159 HD
ATOM      9  H   UNL     1      -6.047   7.116  -8.753  0.00  0.00    +0.159 HD
ENDROOT
BRANCH   1  10
ATOM     10  C   UNL     1      -8.832   4.522  -9.527  0.00  0.00    +0.151 C 
BRANCH  10  11
ATOM     11  C   UNL     1      -9.623   4.005 -10.697  0.00  0.00    -0.028 A 
ATOM     12  C   UNL     1      -9.297   2.776 -11.289  0.00  0.00    +0.005 A 
ATOM     13  C   UNL     1     -10.704   4.735 -11.214  0.00  0.00    +0.005 A 
ATOM     14  C   UNL     1     -10.049   2.281 -12.357  0.00  0.00    +0.000 A 
ATOM     15  C   UNL     1     -11.453   4.238 -12.280  0.00  0.00    +0.000 A 
ATOM     16  C   UNL     1     -11.127   3.009 -12.850  0.00  0.00    +0.000 A 
ENDBRANCH  10  11
ENDBRANCH   1  10
TORSDOF 2
ENDMDL
MODEL 8
REMARK VINA RESULT:    -4.739     26.098     27.451
REMARK INTER + INTRA:          -5.416
REMARK INTER:                  -5.292
REMARK INTRA:                  -0.124
REMARK UNBOUND:                -0.123
REMARK  Name = 1550473
REMARK  2 active torsions:
REMARK  status: ('A' for Active; 'I' for Inactive)
REMARK    1  A    between atoms: N_1  and  C_4
REMARK    2  A    between atoms: C_4  and  C_5
REMARK                            x       y       z     vdW  Elec       q    Type
REMARK                         _______ _______ _______ _____ _____    ______ ____
ROOT
ATOM      1  N   UNL     1      -8.430   4.933  -8.131  0.00  0.00    -0.354 N 
ATOM      2  N   UNL     1      -8.954   5.207  -5.892  0.00  0.00    -0.372 N 
ATOM      3  N   UNL     1     -10.543   4.345  -7.306  0.00  0.00    -0.372 N 
ATOM      4  C   UNL     1      -9.308   4.826  -7.125  0.00  0.00    +0.166 C 
ATOM      5  H   UNL     1      -7.520   5.333  -7.935  0.00  0.00    +0.163 HD
ATOM      6  H   UNL     1      -9.594   5.135  -5.113  0.00  0.00    +0.159 HD
ATOM      7  H   UNL     1      -8.028   5.564  -5.690  0.00  0.00    +0.159 HD
ATOM      8  H   UNL     1     -10.874   4.046  -8.213  0.00  0.00    +0.159 HD
ATOM      9  H   UNL     1     -11.202   4.276  -6.540  0.00  0.00    +0.159 HD
ENDROOT
BRANCH   1  10
ATOM     10  C   UNL     1      -8.698   4.496  -9.500  0.00  0.00    +0.151 C 
BRANCH  10  11
ATOM     11  C   UNL     1      -7.422   4.560 -10.295  0.00  0.00    -0.028 A 
ATOM     12  C   UNL     1      -6.230   4.988  -9.693  0.00  0.00    +0.005 A 
ATOM     13  C   UNL     1      -7.398   4.187 -11.647  0.00  0.00    +0.005 A 
ATOM     14  C   UNL     1      -5.039   5.019 -10.422  0.00  0.00    +0.000 A 
ATOM     15  C   UNL     1      -6.207   4.220 -12.372  0.00  0.00    +0.000 A 
ATOM     16  C   UNL     1      -5.027   4.634 -11.759  0.00  0.00    +0.000 A 
ENDBRANCH  10  11
ENDBRANCH   1  10
TORSDOF 2
ENDMDL
MODEL 9
REMARK VINA RESULT:    -4.716      2.714      5.206
REMARK INTER + INTRA:          -5.390
REMARK INTER:                  -5.280
REMARK INTRA:                  -0.110
REMARK UNBOUND:                -0.123
REMARK  Name = 1550473
REMARK  2 active torsions:
REMARK  status: ('A' for Active; 'I' for Inactive)
REMARK    1  A    between atoms: N_1  and  C_4
REMARK    2  A    between atoms: C_4  and  C_5
REMARK                            x       y       z     vdW  Elec       q    Type
REMARK                         _______ _______ _______ _____ _____    ______ ____
ROOT
ATOM      1  N   UNL     1       5.458  -1.717  12.174  0.00  0.00    -0.354 N 
ATOM      2  N   UNL     1       3.142  -1.740  12.132  0.00  0.00    -0.372 N 
ATOM      3  N   UNL     1       4.234   0.273  11.990  0.00  0.00    -0.372 N 
ATOM      4  C   UNL     1       4.293  -1.058  12.099  0.00  0.00    +0.166 C 
ATOM      5  H   UNL     1       5.435  -2.724  12.286  0.00  0.00    +0.163 HD
ATOM      6  H   UNL     1       2.248  -1.271  12.074  0.00  0.00    +0.159 HD
ATOM      7  H   UNL     1       3.123  -2.751  12.198  0.00  0.00    +0.159 HD
ATOM      8  H   UNL     1       5.066   0.846  11.966  0.00  0.00    +0.159 HD
ATOM      9  H   UNL     1       3.348   0.762  11.943  0.00  0.00    +0.159 HD
ENDROOT
BRANCH   1  10
ATOM     10  C   UNL     1       6.768  -1.074  12.093  0.00  0.00    +0.151 C 
BRANCH  10  11
ATOM     11  C   UNL     1       7.789  -1.952  12.761  0.00  0.00    -0.028 A 
ATOM     12  C   UNL     1       8.888  -2.442  12.041  0.00  0.00    +0.005 A 
ATOM     13  C   UNL     1       7.666  -2.294  14.117  0.00  0.00    +0.005 A 
ATOM     14  C   UNL     1       9.853  -3.233  12.669  0.00  0.00    +0.000 A 
ATOM     15  C   UNL     1       8.631  -3.085  14.740  0.00  0.00    +0.000 A 
ATOM     16  C   UNL     1       9.725  -3.553  14.016  0.00  0.00    +0.000 A 
ENDBRANCH  10  11
ENDBRANCH   1  10
TORSDOF 2
ENDMDL
