MODEL 1
REMARK VINA RESULT:    -5.527      0.000      0.000
REMARK INTER + INTRA:          -6.298
REMARK INTER:                  -6.174
REMARK INTRA:                  -0.125
REMARK UNBOUND:                -0.125
REMARK  Name = 1550473
REMARK  2 active torsions:
REMARK  status: ('A' for Active; 'I' for Inactive)
REMARK    1  A    between atoms: N_1  and  C_4
REMARK    2  A    between atoms: C_4  and  C_5
REMARK                            x       y       z     vdW  Elec       q    Type
REMARK                         _______ _______ _______ _____ _____    ______ ____
ROOT
ATOM      1  N   UNL     1      -8.553  11.717  -3.089  0.00  0.00    -0.354 N 
ATOM      2  N   UNL     1      -8.589  13.538  -1.659  0.00  0.00    -0.372 N 
ATOM      3  N   UNL     1      -7.364  13.671  -3.595  0.00  0.00    -0.372 N 
ATOM      4  C   UNL     1      -8.167  12.964  -2.792  0.00  0.00    +0.166 C 
ATOM      5  H   UNL     1      -9.138  11.223  -2.425  0.00  0.00    +0.163 HD
ATOM      6  H   UNL     1      -8.317  14.480  -1.410  0.00  0.00    +0.159 HD
ATOM      7  H   UNL     1      -9.211  13.059  -1.019  0.00  0.00    +0.159 HD
ATOM      8  H   UNL     1      -7.005  13.294  -4.461  0.00  0.00    +0.159 HD
ATOM      9  H   UNL     1      -7.071  14.611  -3.357  0.00  0.00    +0.159 HD
ENDROOT
BRANCH   1  10
ATOM     10  C   UNL     1      -8.193  11.021  -4.323  0.00  0.00    +0.151 C 
BRANCH  10  11
ATOM     11  C   UNL     1      -9.051   9.794  -4.464  0.00  0.00    -0.028 A 
ATOM     12  C   UNL     1      -9.962   9.443  -3.457  0.00  0.00    +0.005 A 
ATOM     13  C   UNL     1      -8.963   8.982  -5.605  0.00  0.00    +0.005 A 
ATOM     14  C   UNL     1     -10.781   8.320  -3.601  0.00  0.00    +0.000 A 
ATOM     15  C   UNL     1      -9.782   7.861  -5.744  0.00  0.00    +0.000 A 
ATOM     16  C   UNL     1     -10.692   7.532  -4.743  0.00  0.00    +0.000 A 
ENDBRANCH  10  11
ENDBRANCH   1  10
TORSDOF 2
ENDMDL
MODEL 2
REMARK VINA RESULT:    -5.506      0.224      1.470
REMARK INTER + INTRA:          -6.274
REMARK INTER:                  -6.152
REMARK INTRA:                  -0.122
REMARK UNBOUND:                -0.125
REMARK  Name = 1550473
REMARK  2 active torsions:
REMARK  status: ('A' for Active; 'I' for Inactive)
REMARK    1  A    between atoms: N_1  and  C_4
REMARK    2  A    between atoms: C_4  and  C_5
REMARK                            x       y       z     vdW  Elec       q    Type
REMARK                         _______ _______ _______ _____ _____    ______ ____
ROOT
ATOM      1  N   UNL     1      -8.730  11.578  -3.038  0.00  0.00    -0.354 N 
ATOM      2  N   UNL     1      -8.898  13.441  -1.673  0.00  0.00    -0.372 N 
ATOM      3  N   UNL     1      -7.379  13.459  -3.393  0.00  0.00    -0.372 N 
ATOM      4  C   UNL     1      -8.332  12.815  -2.712  0.00  0.00    +0.166 C 
ATOM      5  H   UNL     1      -9.436  11.132  -2.464  0.00  0.00    +0.163 HD
ATOM      6  H   UNL     1      -8.621  14.376  -1.406  0.00  0.00    +0.159 HD
ATOM      7  H   UNL     1      -9.636  13.011  -1.129  0.00  0.00    +0.159 HD
ATOM      8  H   UNL     1      -6.909  13.039  -4.184  0.00  0.00    +0.159 HD
ATOM      9  H   UNL     1      -7.080  14.391  -3.134  0.00  0.00    +0.159 HD
ENDROOT
BRANCH   1  10
ATOM     10  C   UNL     1      -8.217  10.829  -4.184  0.00  0.00    +0.151 C 
BRANCH  10  11
ATOM     11  C   UNL     1      -9.111   9.647  -4.439  0.00  0.00    -0.028 A 
ATOM     12  C   UNL     1      -8.986   8.902  -5.621  0.00  0.00    +0.005 A 
ATOM     13  C   UNL     1     -10.081   9.264  -3.501  0.00  0.00    +0.005 A 
ATOM     14  C   UNL     1      -9.797   7.786  -5.845  0.00  0.00    +0.000 A 
ATOM     15  C   UNL     1     -10.889   8.150  -3.729  0.00  0.00    +0.000 A 
ATOM     16  C   UNL     1     -10.745   7.410  -4.900  0.00  0.00    +0.000 A 
ENDBRANCH  10  11
ENDBRANCH   1  10
TORSDOF 2
ENDMDL
MODEL 3
REMARK VINA RESULT:    -5.334      5.000      6.863
REMARK INTER + INTRA:          -6.083
REMARK INTER:                  -5.957
REMARK INTRA:                  -0.126
REMARK UNBOUND:                -0.125
REMARK  Name = 1550473
REMARK  2 active torsions:
REMARK  status: ('A' for Active; 'I' for Inactive)
REMARK    1  A    between atoms: N_1  and  C_4
REMARK    2  A    between atoms: C_4  and  C_5
REMARK                            x       y       z     vdW  Elec       q    Type
REMARK                         _______ _______ _______ _____ _____    ______ ____
ROOT
ATOM      1  N   UNL     1     -12.348   6.850  -7.524  0.00  0.00    -0.354 N 
ATOM      2  N   UNL     1     -12.926   6.264  -9.689  0.00  0.00    -0.372 N 
ATOM      3  N   UNL     1     -13.735   5.009  -7.946  0.00  0.00    -0.372 N 
ATOM      4  C   UNL     1     -13.000   6.042  -8.371  0.00  0.00    +0.166 C 
ATOM      5  H   UNL     1     -11.784   7.598  -7.911  0.00  0.00    +0.163 HD
ATOM      6  H   UNL     1     -13.410   5.673 -10.352  0.00  0.00    +0.159 HD
ATOM      7  H   UNL     1     -12.399   7.040 -10.070  0.00  0.00    +0.159 HD
ATOM      8  H   UNL     1     -13.827   4.784  -6.965  0.00  0.00    +0.159 HD
ATOM      9  H   UNL     1     -14.217   4.399  -8.595  0.00  0.00    +0.159 HD
ENDROOT
BRANCH   1  10
ATOM     10  C   UNL     1     -12.407   6.728  -6.069  0.00  0.00    +0.151 C 
BRANCH  10  11
ATOM     11  C   UNL     1     -11.242   7.464  -5.466  0.00  0.00    -0.028 A 
ATOM     12  C   UNL     1     -10.108   7.754  -6.238  0.00  0.00    +0.005 A 
ATOM     13  C   UNL     1     -11.269   7.878  -4.126  0.00  0.00    +0.005 A 
ATOM     14  C   UNL     1      -9.038   8.464  -5.687  0.00  0.00    +0.000 A 
ATOM     15  C   UNL     1     -10.198   8.586  -3.579  0.00  0.00    +0.000 A 
ATOM     16  C   UNL     1      -9.084   8.881  -4.361  0.00  0.00    +0.000 A 
ENDBRANCH  10  11
ENDBRANCH   1  10
TORSDOF 2
ENDMDL
MODEL 4
REMARK VINA RESULT:    -5.329      4.137      5.821
REMARK INTER + INTRA:          -6.076
REMARK INTER:                  -5.961
REMARK INTRA:                  -0.116
REMARK UNBOUND:                -0.125
REMARK  Name = 1550473
REMARK  2 active torsions:
REMARK  status: ('A' for Active; 'I' for Inactive)
REMARK    1  A    between atoms: N_1  and  C_4
REMARK    2  A    between atoms: C_4  and  C_5
REMARK                            x       y       z     vdW  Elec       q    Type
REMARK                         _______ _______ _______ _____ _____    ______ ____
ROOT
ATOM      1  N   UNL     1     -11.259   7.470  -6.823  0.00  0.00    -0.354 N 
ATOM      2  N   UNL     1     -12.658   7.396  -8.667  0.00  0.00    -0.372 N 
ATOM      3  N   UNL     1     -13.080   5.996  -6.899  0.00  0.00    -0.372 N 
ATOM      4  C   UNL     1     -12.324   6.952  -7.449  0.00  0.00    +0.166 C 
ATOM      5  H   UNL     1     -10.709   8.171  -7.307  0.00  0.00    +0.163 HD
ATOM      6  H   UNL     1     -13.458   7.027  -9.163  0.00  0.00    +0.159 HD
ATOM      7  H   UNL     1     -12.134   8.129  -9.129  0.00  0.00    +0.159 HD
ATOM      8  H   UNL     1     -12.878   5.614  -5.984  0.00  0.00    +0.159 HD
ATOM      9  H   UNL     1     -13.878   5.606  -7.384  0.00  0.00    +0.159 HD
ENDROOT
BRANCH   1  10
ATOM     10  C   UNL     1     -10.842   7.095  -5.473  0.00  0.00    +0.151 C 
BRANCH  10  11
ATOM     11  C   UNL     1     -10.111   8.249  -4.846  0.00  0.00    -0.028 A 
ATOM     12  C   UNL     1     -10.219   8.497  -3.469  0.00  0.00    +0.005 A 
ATOM     13  C   UNL     1      -9.304   9.096  -5.621  0.00  0.00    +0.005 A 
ATOM     14  C   UNL     1      -9.516   9.552  -2.881  0.00  0.00    +0.000 A 
ATOM     15  C   UNL     1      -8.605  10.148  -5.030  0.00  0.00    +0.000 A 
ATOM     16  C   UNL     1      -8.709  10.374  -3.660  0.00  0.00    +0.000 A 
ENDBRANCH  10  11
ENDBRANCH   1  10
TORSDOF 2
ENDMDL
MODEL 5
REMARK VINA RESULT:    -5.056      1.225      2.134
REMARK INTER + INTRA:          -5.772
REMARK INTER:                  -5.649
REMARK INTRA:                  -0.123
REMARK UNBOUND:                -0.125
REMARK  Name = 1550473
REMARK  2 active torsions:
REMARK  status: ('A' for Active; 'I' for Inactive)
REMARK    1  A    between atoms: N_1  and  C_4
REMARK    2  A    between atoms: C_4  and  C_5
REMARK                            x       y       z     vdW  Elec       q    Type
REMARK                         _______ _______ _______ _____ _____    ______ ____
ROOT
ATOM      1  N   UNL     1      -8.734  12.874  -2.168  0.00  0.00    -0.354 N 
ATOM      2  N   UNL     1      -8.859  14.289  -0.338  0.00  0.00    -0.372 N 
ATOM      3  N   UNL     1      -8.244  15.156  -2.372  0.00  0.00    -0.372 N 
ATOM      4  C   UNL     1      -8.611  14.099  -1.640  0.00  0.00    +0.166 C 
ATOM      5  H   UNL     1      -8.986  12.108  -1.553  0.00  0.00    +0.163 HD
ATOM      6  H   UNL     1      -8.778  15.203   0.087  0.00  0.00    +0.159 HD
ATOM      7  H   UNL     1      -9.156  13.530   0.264  0.00  0.00    +0.159 HD
ATOM      8  H   UNL     1      -8.036  15.079  -3.358  0.00  0.00    +0.159 HD
ATOM      9  H   UNL     1      -8.146  16.077  -1.961  0.00  0.00    +0.159 HD
ENDROOT
BRANCH   1  10
ATOM     10  C   UNL     1      -8.539  12.570  -3.584  0.00  0.00    +0.151 C 
BRANCH  10  11
ATOM     11  C   UNL     1      -8.954  11.148  -3.844  0.00  0.00    -0.028 A 
ATOM     12  C   UNL     1      -8.616  10.517  -5.049  0.00  0.00    +0.005 A 
ATOM     13  C   UNL     1      -9.681  10.426  -2.886  0.00  0.00    +0.005 A 
ATOM     14  C   UNL     1      -8.975   9.186  -5.278  0.00  0.00    +0.000 A 
ATOM     15  C   UNL     1     -10.039   9.098  -3.119  0.00  0.00    +0.000 A 
ATOM     16  C   UNL     1      -9.684   8.478  -4.314  0.00  0.00    +0.000 A 
ENDBRANCH  10  11
ENDBRANCH   1  10
TORSDOF 2
ENDMDL
MODEL 6
REMARK VINA RESULT:    -4.810     13.737     14.980
REMARK INTER + INTRA:          -5.497
REMARK INTER:                  -5.354
REMARK INTRA:                  -0.143
REMARK UNBOUND:                -0.125
REMARK  Name = 1550473
REMARK  2 active torsions:
REMARK  status: ('A' for Active; 'I' for Inactive)
REMARK    1  A    between atoms: N_1  and  C_4
REMARK    2  A    between atoms: C_4  and  C_5
REMARK                            x       y       z     vdW  Elec       q    Type
REMARK                         _______ _______ _______ _____ _____    ______ ____
ROOT
ATOM      1  N   UNL     1      -4.224   3.260 -15.417  0.00  0.00    -0.354 N 
ATOM      2  N   UNL     1      -6.454   3.652 -14.929  0.00  0.00    -0.372 N 
ATOM      3  N   UNL     1      -5.261   2.218 -13.593  0.00  0.00    -0.372 N 
ATOM      4  C   UNL     1      -5.298   3.039 -14.648  0.00  0.00    +0.166 C 
ATOM      5  H   UNL     1      -4.324   3.871 -16.220  0.00  0.00    +0.163 HD
ATOM      6  H   UNL     1      -7.280   3.507 -14.365  0.00  0.00    +0.159 HD
ATOM      7  H   UNL     1      -6.539   4.297 -15.705  0.00  0.00    +0.159 HD
ATOM      8  H   UNL     1      -4.421   1.720 -13.330  0.00  0.00    +0.159 HD
ATOM      9  H   UNL     1      -6.081   2.051 -13.022  0.00  0.00    +0.159 HD
ENDROOT
BRANCH   1  10
ATOM     10  C   UNL     1      -2.904   2.684 -15.165  0.00  0.00    +0.151 C 
BRANCH  10  11
ATOM     11  C   UNL     1      -1.888   3.792 -15.101  0.00  0.00    -0.028 A 
ATOM     12  C   UNL     1      -2.273   5.123 -15.317  0.00  0.00    +0.005 A 
ATOM     13  C   UNL     1      -0.541   3.516 -14.820  0.00  0.00    +0.005 A 
ATOM     14  C   UNL     1      -1.335   6.155 -15.228  0.00  0.00    +0.000 A 
ATOM     15  C   UNL     1       0.392   4.550 -14.734  0.00  0.00    +0.000 A 
ATOM     16  C   UNL     1      -0.006   5.869 -14.936  0.00  0.00    +0.000 A 
ENDBRANCH  10  11
ENDBRANCH   1  10
TORSDOF 2
ENDMDL
MODEL 7
REMARK VINA RESULT:    -4.556      9.833     11.428
REMARK INTER + INTRA:          -5.214
REMARK INTER:                  -5.067
REMARK INTRA:                  -0.147
REMARK UNBOUND:                -0.125
REMARK  Name = 1550473
REMARK  2 active torsions:
REMARK  status: ('A' for Active; 'I' for Inactive)
REMARK    1  A    between atoms: N_1  and  C_4
REMARK    2  A    between atoms: C_4  and  C_5
REMARK                            x       y       z     vdW  Elec       q    Type
REMARK                         _______ _______ _______ _____ _____    ______ ____
ROOT
ATOM      1  N   UNL     1      -3.510  17.963  -7.642  0.00  0.00    -0.354 N 
ATOM      2  N   UNL     1      -4.730  19.425  -8.961  0.00  0.00    -0.372 N 
ATOM      3  N   UNL     1      -4.592  17.221  -9.584  0.00  0.00    -0.372 N 
ATOM      4  C   UNL     1      -4.270  18.191  -8.722  0.00  0.00    +0.166 C 
ATOM      5  H   UNL     1      -3.277  18.747  -7.044  0.00  0.00    +0.163 HD
ATOM      6  H   UNL     1      -5.308  19.626  -9.766  0.00  0.00    +0.159 HD
ATOM      7  H   UNL     1      -4.533  20.197  -8.336  0.00  0.00    +0.159 HD
ATOM      8  H   UNL     1      -4.271  16.269  -9.463  0.00  0.00    +0.159 HD
ATOM      9  H   UNL     1      -5.160  17.405 -10.401  0.00  0.00    +0.159 HD
ENDROOT
BRANCH   1  10
ATOM     10  C   UNL     1      -3.003  16.645  -7.262  0.00  0.00    +0.151 C 
BRANCH  10  11
ATOM     11  C   UNL     1      -1.500  16.667  -7.302  0.00  0.00    -0.028 A 
ATOM     12  C   UNL     1      -0.802  15.907  -8.251  0.00  0.00    +0.005 A 
ATOM     13  C   UNL     1      -0.768  17.451  -6.396  0.00  0.00    +0.005 A 
ATOM     14  C   UNL     1       0.593  15.950  -8.308  0.00  0.00    +0.000 A 
ATOM     15  C   UNL     1       0.625  17.491  -6.456  0.00  0.00    +0.000 A 
ATOM     16  C   UNL     1       1.305  16.743  -7.413  0.00  0.00    +0.000 A 
ENDBRANCH  10  11
ENDBRANCH   1  10
TORSDOF 2
ENDMDL
MODEL 8
REMARK VINA RESULT:    -4.427     11.178     12.493
REMARK INTER + INTRA:          -5.069
REMARK INTER:                  -4.945
REMARK INTRA:                  -0.124
REMARK UNBOUND:                -0.125
REMARK  Name = 1550473
REMARK  2 active torsions:
REMARK  status: ('A' for Active; 'I' for Inactive)
REMARK    1  A    between atoms: N_1  and  C_4
REMARK    2  A    between atoms: C_4  and  C_5
REMARK                            x       y       z     vdW  Elec       q    Type
REMARK                         _______ _______ _______ _____ _____    ______ ____
ROOT
ATOM      1  N   UNL     1       0.950  19.302  -5.002  0.00  0.00    -0.354 N 
ATOM      2  N   UNL     1       2.454  20.668  -3.891  0.00  0.00    -0.372 N 
ATOM      3  N   UNL     1       0.287  20.566  -3.143  0.00  0.00    -0.372 N 
ATOM      4  C   UNL     1       1.218  20.170  -4.018  0.00  0.00    +0.166 C 
ATOM      5  H   UNL     1       1.692  19.065  -5.650  0.00  0.00    +0.163 HD
ATOM      6  H   UNL     1       2.688  21.323  -3.156  0.00  0.00    +0.159 HD
ATOM      7  H   UNL     1       3.206  20.394  -4.512  0.00  0.00    +0.159 HD
ATOM      8  H   UNL     1      -0.666  20.233  -3.189  0.00  0.00    +0.159 HD
ATOM      9  H   UNL     1       0.498  21.230  -2.408  0.00  0.00    +0.159 HD
ENDROOT
BRANCH   1  10
ATOM     10  C   UNL     1      -0.349  18.660  -5.194  0.00  0.00    +0.151 C 
BRANCH  10  11
ATOM     11  C   UNL     1      -0.230  17.625  -6.278  0.00  0.00    -0.028 A 
ATOM     12  C   UNL     1       0.997  17.405  -6.921  0.00  0.00    +0.005 A 
ATOM     13  C   UNL     1      -1.339  16.856  -6.663  0.00  0.00    +0.005 A 
ATOM     14  C   UNL     1       1.116  16.423  -7.907  0.00  0.00    +0.000 A 
ATOM     15  C   UNL     1      -1.217  15.877  -7.649  0.00  0.00    +0.000 A 
ATOM     16  C   UNL     1       0.011  15.659  -8.269  0.00  0.00    +0.000 A 
ENDBRANCH  10  11
ENDBRANCH   1  10
TORSDOF 2
ENDMDL
MODEL 9
REMARK VINA RESULT:    -4.360     26.663     27.580
REMARK INTER + INTRA:          -4.994
REMARK INTER:                  -4.879
REMARK INTRA:                  -0.115
REMARK UNBOUND:                -0.125
REMARK  Name = 1550473
REMARK  2 active torsions:
REMARK  status: ('A' for Active; 'I' for Inactive)
REMARK    1  A    between atoms: N_1  and  C_4
REMARK    2  A    between atoms: C_4  and  C_5
REMARK                            x       y       z     vdW  Elec       q    Type
REMARK                         _______ _______ _______ _____ _____    ______ ____
ROOT
ATOM      1  N   UNL     1      -0.679   1.499  21.738  0.00  0.00    -0.354 N 
ATOM      2  N   UNL     1       0.012  -0.485  22.712  0.00  0.00    -0.372 N 
ATOM      3  N   UNL     1      -1.920  -0.471  21.476  0.00  0.00    -0.372 N 
ATOM      4  C   UNL     1      -0.869   0.193  21.968  0.00  0.00    +0.166 C 
ATOM      5  H   UNL     1       0.122   1.951  22.164  0.00  0.00    +0.163 HD
ATOM      6  H   UNL     1      -0.103  -1.472  22.900  0.00  0.00    +0.159 HD
ATOM      7  H   UNL     1       0.836  -0.041  23.099  0.00  0.00    +0.159 HD
ATOM      8  H   UNL     1      -2.625  -0.016  20.911  0.00  0.00    +0.159 HD
ATOM      9  H   UNL     1      -2.060  -1.456  21.662  0.00  0.00    +0.159 HD
ENDROOT
BRANCH   1  10
ATOM     10  C   UNL     1      -1.550   2.317  20.896  0.00  0.00    +0.151 C 
BRANCH  10  11
ATOM     11  C   UNL     1      -0.746   3.439  20.300  0.00  0.00    -0.028 A 
ATOM     12  C   UNL     1      -1.097   4.775  20.545  0.00  0.00    +0.005 A 
ATOM     13  C   UNL     1       0.372   3.173  19.495  0.00  0.00    +0.005 A 
ATOM     14  C   UNL     1      -0.332   5.818  20.016  0.00  0.00    +0.000 A 
ATOM     15  C   UNL     1       1.132   4.217  18.968  0.00  0.00    +0.000 A 
ATOM     16  C   UNL     1       0.781   5.539  19.231  0.00  0.00    +0.000 A 
ENDBRANCH  10  11
ENDBRANCH   1  10
TORSDOF 2
ENDMDL
