MODEL 1
REMARK VINA RESULT:    -6.338      0.000      0.000
REMARK INTER + INTRA:          -7.183
REMARK INTER:                  -7.079
REMARK INTRA:                  -0.104
REMARK UNBOUND:                -0.104
REMARK  Name = 1550473
REMARK  2 active torsions:
REMARK  status: ('A' for Active; 'I' for Inactive)
REMARK    1  A    between atoms: N_1  and  C_4
REMARK    2  A    between atoms: C_4  and  C_5
REMARK                            x       y       z     vdW  Elec       q    Type
REMARK                         _______ _______ _______ _____ _____    ______ ____
ROOT
ATOM      1  N   UNL     1      -5.613   3.674  -3.698  0.00  0.00    -0.354 N 
ATOM      2  N   UNL     1      -4.962   1.733  -4.781  0.00  0.00    -0.372 N 
ATOM      3  N   UNL     1      -6.801   2.870  -5.551  0.00  0.00    -0.372 N 
ATOM      4  C   UNL     1      -5.799   2.772  -4.671  0.00  0.00    +0.166 C 
ATOM      5  H   UNL     1      -4.852   3.527  -3.045  0.00  0.00    +0.163 HD
ATOM      6  H   UNL     1      -5.076   1.039  -5.508  0.00  0.00    +0.159 HD
ATOM      7  H   UNL     1      -4.176   1.614  -4.155  0.00  0.00    +0.159 HD
ATOM      8  H   UNL     1      -7.471   3.627  -5.518  0.00  0.00    +0.159 HD
ATOM      9  H   UNL     1      -6.938   2.178  -6.277  0.00  0.00    +0.159 HD
ENDROOT
BRANCH   1  10
ATOM     10  C   UNL     1      -6.435   4.871  -3.524  0.00  0.00    +0.151 C 
BRANCH  10  11
ATOM     11  C   UNL     1      -5.561   6.004  -3.064  0.00  0.00    -0.028 A 
ATOM     12  C   UNL     1      -5.185   6.112  -1.717  0.00  0.00    +0.005 A 
ATOM     13  C   UNL     1      -5.100   6.971  -3.971  0.00  0.00    +0.005 A 
ATOM     14  C   UNL     1      -4.348   7.148  -1.294  0.00  0.00    +0.000 A 
ATOM     15  C   UNL     1      -4.266   8.005  -3.545  0.00  0.00    +0.000 A 
ATOM     16  C   UNL     1      -3.888   8.091  -2.207  0.00  0.00    +0.000 A 
ENDBRANCH  10  11
ENDBRANCH   1  10
TORSDOF 2
ENDMDL
MODEL 2
REMARK VINA RESULT:    -6.319      0.106      1.458
REMARK INTER + INTRA:          -7.162
REMARK INTER:                  -7.057
REMARK INTRA:                  -0.105
REMARK UNBOUND:                -0.104
REMARK  Name = 1550473
REMARK  2 active torsions:
REMARK  status: ('A' for Active; 'I' for Inactive)
REMARK    1  A    between atoms: N_1  and  C_4
REMARK    2  A    between atoms: C_4  and  C_5
REMARK                            x       y       z     vdW  Elec       q    Type
REMARK                         _______ _______ _______ _____ _____    ______ ____
ROOT
ATOM      1  N   UNL     1      -5.589   3.737  -3.715  0.00  0.00    -0.354 N 
ATOM      2  N   UNL     1      -5.007   1.824  -4.885  0.00  0.00    -0.372 N 
ATOM      3  N   UNL     1      -6.904   2.962  -5.493  0.00  0.00    -0.372 N 
ATOM      4  C   UNL     1      -5.840   2.854  -4.691  0.00  0.00    +0.166 C 
ATOM      5  H   UNL     1      -4.781   3.582  -3.122  0.00  0.00    +0.163 HD
ATOM      6  H   UNL     1      -5.169   1.144  -5.616  0.00  0.00    +0.159 HD
ATOM      7  H   UNL     1      -4.176   1.697  -4.320  0.00  0.00    +0.159 HD
ATOM      8  H   UNL     1      -7.574   3.713  -5.395  0.00  0.00    +0.159 HD
ATOM      9  H   UNL     1      -7.090   2.285  -6.223  0.00  0.00    +0.159 HD
ENDROOT
BRANCH   1  10
ATOM     10  C   UNL     1      -6.403   4.923  -3.456  0.00  0.00    +0.151 C 
BRANCH  10  11
ATOM     11  C   UNL     1      -5.505   6.053  -3.036  0.00  0.00    -0.028 A 
ATOM     12  C   UNL     1      -5.043   6.983  -3.979  0.00  0.00    +0.005 A 
ATOM     13  C   UNL     1      -5.116   6.203  -1.696  0.00  0.00    +0.005 A 
ATOM     14  C   UNL     1      -4.233   8.051  -3.585  0.00  0.00    +0.000 A 
ATOM     15  C   UNL     1      -4.307   7.270  -1.307  0.00  0.00    +0.000 A 
ATOM     16  C   UNL     1      -3.867   8.195  -2.251  0.00  0.00    +0.000 A 
ENDBRANCH  10  11
ENDBRANCH   1  10
TORSDOF 2
ENDMDL
MODEL 3
REMARK VINA RESULT:    -6.200      4.535      6.342
REMARK INTER + INTRA:          -7.029
REMARK INTER:                  -6.890
REMARK INTRA:                  -0.139
REMARK UNBOUND:                -0.104
REMARK  Name = 1550473
REMARK  2 active torsions:
REMARK  status: ('A' for Active; 'I' for Inactive)
REMARK    1  A    between atoms: N_1  and  C_4
REMARK    2  A    between atoms: C_4  and  C_5
REMARK                            x       y       z     vdW  Elec       q    Type
REMARK                         _______ _______ _______ _____ _____    ______ ____
ROOT
ATOM      1  N   UNL     1      -2.395   9.603  -1.921  0.00  0.00    -0.354 N 
ATOM      2  N   UNL     1      -1.388  10.810  -0.220  0.00  0.00    -0.372 N 
ATOM      3  N   UNL     1      -2.685  11.922  -1.752  0.00  0.00    -0.372 N 
ATOM      4  C   UNL     1      -2.164  10.772  -1.310  0.00  0.00    +0.166 C 
ATOM      5  H   UNL     1      -1.946   8.771  -1.555  0.00  0.00    +0.163 HD
ATOM      6  H   UNL     1      -1.199  11.677   0.265  0.00  0.00    +0.159 HD
ATOM      7  H   UNL     1      -0.978   9.970   0.171  0.00  0.00    +0.159 HD
ATOM      8  H   UNL     1      -3.273  11.963  -2.573  0.00  0.00    +0.159 HD
ATOM      9  H   UNL     1      -2.497  12.802  -1.288  0.00  0.00    +0.159 HD
ENDROOT
BRANCH   1  10
ATOM     10  C   UNL     1      -3.268   9.446  -3.084  0.00  0.00    +0.151 C 
BRANCH  10  11
ATOM     11  C   UNL     1      -4.120   8.222  -2.896  0.00  0.00    -0.028 A 
ATOM     12  C   UNL     1      -4.847   7.688  -3.971  0.00  0.00    +0.005 A 
ATOM     13  C   UNL     1      -4.201   7.587  -1.647  0.00  0.00    +0.005 A 
ATOM     14  C   UNL     1      -5.615   6.534  -3.804  0.00  0.00    +0.000 A 
ATOM     15  C   UNL     1      -4.970   6.434  -1.485  0.00  0.00    +0.000 A 
ATOM     16  C   UNL     1      -5.675   5.907  -2.564  0.00  0.00    +0.000 A 
ENDBRANCH  10  11
ENDBRANCH   1  10
TORSDOF 2
ENDMDL
MODEL 4
REMARK VINA RESULT:    -5.913      2.775      6.173
REMARK INTER + INTRA:          -6.708
REMARK INTER:                  -6.528
REMARK INTRA:                  -0.180
REMARK UNBOUND:                -0.104
REMARK  Name = 1550473
REMARK  2 active torsions:
REMARK  status: ('A' for Active; 'I' for Inactive)
REMARK    1  A    between atoms: N_1  and  C_4
REMARK    2  A    between atoms: C_4  and  C_5
REMARK                            x       y       z     vdW  Elec       q    Type
REMARK                         _______ _______ _______ _____ _____    ______ ____
ROOT
ATOM      1  N   UNL     1      -4.588   4.337  -5.405  0.00  0.00    -0.354 N 
ATOM      2  N   UNL     1      -6.033   5.946  -4.576  0.00  0.00    -0.372 N 
ATOM      3  N   UNL     1      -5.508   4.142  -3.259  0.00  0.00    -0.372 N 
ATOM      4  C   UNL     1      -5.367   4.796  -4.417  0.00  0.00    +0.166 C 
ATOM      5  H   UNL     1      -4.547   4.865  -6.270  0.00  0.00    +0.163 HD
ATOM      6  H   UNL     1      -6.625   6.319  -3.846  0.00  0.00    +0.159 HD
ATOM      7  H   UNL     1      -5.953   6.495  -5.423  0.00  0.00    +0.159 HD
ATOM      8  H   UNL     1      -5.038   3.265  -3.078  0.00  0.00    +0.159 HD
ATOM      9  H   UNL     1      -6.106   4.493  -2.521  0.00  0.00    +0.159 HD
ENDROOT
BRANCH   1  10
ATOM     10  C   UNL     1      -3.779   3.123  -5.312  0.00  0.00    +0.151 C 
BRANCH  10  11
ATOM     11  C   UNL     1      -4.496   2.000  -6.010  0.00  0.00    -0.028 A 
ATOM     12  C   UNL     1      -4.715   2.047  -7.394  0.00  0.00    +0.005 A 
ATOM     13  C   UNL     1      -4.954   0.884  -5.293  0.00  0.00    +0.005 A 
ATOM     14  C   UNL     1      -5.355   0.991  -8.048  0.00  0.00    +0.000 A 
ATOM     15  C   UNL     1      -5.593  -0.168  -5.949  0.00  0.00    +0.000 A 
ATOM     16  C   UNL     1      -5.791  -0.115  -7.326  0.00  0.00    +0.000 A 
ENDBRANCH  10  11
ENDBRANCH   1  10
TORSDOF 2
ENDMDL
MODEL 5
REMARK VINA RESULT:    -5.263      1.698      2.839
REMARK INTER + INTRA:          -5.983
REMARK INTER:                  -5.807
REMARK INTRA:                  -0.176
REMARK UNBOUND:                -0.104
REMARK  Name = 1550473
REMARK  2 active torsions:
REMARK  status: ('A' for Active; 'I' for Inactive)
REMARK    1  A    between atoms: N_1  and  C_4
REMARK    2  A    between atoms: C_4  and  C_5
REMARK                            x       y       z     vdW  Elec       q    Type
REMARK                         _______ _______ _______ _____ _____    ______ ____
ROOT
ATOM      1  N   UNL     1      -6.305   5.513  -4.857  0.00  0.00    -0.354 N 
ATOM      2  N   UNL     1      -6.638   3.310  -4.224  0.00  0.00    -0.372 N 
ATOM      3  N   UNL     1      -6.646   4.942  -2.610  0.00  0.00    -0.372 N 
ATOM      4  C   UNL     1      -6.528   4.604  -3.898  0.00  0.00    +0.166 C 
ATOM      5  H   UNL     1      -6.195   5.189  -5.811  0.00  0.00    +0.163 HD
ATOM      6  H   UNL     1      -6.809   2.602  -3.522  0.00  0.00    +0.159 HD
ATOM      7  H   UNL     1      -6.573   2.995  -5.184  0.00  0.00    +0.159 HD
ATOM      8  H   UNL     1      -6.567   5.900  -2.298  0.00  0.00    +0.159 HD
ATOM      9  H   UNL     1      -6.806   4.246  -1.892  0.00  0.00    +0.159 HD
ENDROOT
BRANCH   1  10
ATOM     10  C   UNL     1      -6.223   6.952  -4.616  0.00  0.00    +0.151 C 
BRANCH  10  11
ATOM     11  C   UNL     1      -4.776   7.352  -4.517  0.00  0.00    -0.028 A 
ATOM     12  C   UNL     1      -3.888   7.075  -5.568  0.00  0.00    +0.005 A 
ATOM     13  C   UNL     1      -4.288   8.012  -3.379  0.00  0.00    +0.005 A 
ATOM     14  C   UNL     1      -2.551   7.473  -5.489  0.00  0.00    +0.000 A 
ATOM     15  C   UNL     1      -2.952   8.406  -3.305  0.00  0.00    +0.000 A 
ATOM     16  C   UNL     1      -2.085   8.139  -4.361  0.00  0.00    +0.000 A 
ENDBRANCH  10  11
ENDBRANCH   1  10
TORSDOF 2
ENDMDL
MODEL 6
REMARK VINA RESULT:    -5.211      2.839      4.924
REMARK INTER + INTRA:          -5.924
REMARK INTER:                  -5.777
REMARK INTRA:                  -0.147
REMARK UNBOUND:                -0.104
REMARK  Name = 1550473
REMARK  2 active torsions:
REMARK  status: ('A' for Active; 'I' for Inactive)
REMARK    1  A    between atoms: N_1  and  C_4
REMARK    2  A    between atoms: C_4  and  C_5
REMARK                            x       y       z     vdW  Elec       q    Type
REMARK                         _______ _______ _______ _____ _____    ______ ____
ROOT
ATOM      1  N   UNL     1      -5.020   6.635  -2.620  0.00  0.00    -0.354 N 
ATOM      2  N   UNL     1      -4.017   7.776  -0.872  0.00  0.00    -0.372 N 
ATOM      3  N   UNL     1      -3.545   8.409  -3.026  0.00  0.00    -0.372 N 
ATOM      4  C   UNL     1      -4.199   7.601  -2.186  0.00  0.00    +0.166 C 
ATOM      5  H   UNL     1      -5.463   6.036  -1.933  0.00  0.00    +0.163 HD
ATOM      6  H   UNL     1      -3.407   8.499  -0.515  0.00  0.00    +0.159 HD
ATOM      7  H   UNL     1      -4.497   7.206  -0.186  0.00  0.00    +0.159 HD
ATOM      8  H   UNL     1      -3.634   8.325  -4.030  0.00  0.00    +0.159 HD
ATOM      9  H   UNL     1      -2.920   9.131  -2.688  0.00  0.00    +0.159 HD
ENDROOT
BRANCH   1  10
ATOM     10  C   UNL     1      -5.329   6.395  -4.028  0.00  0.00    +0.151 C 
BRANCH  10  11
ATOM     11  C   UNL     1      -4.912   4.997  -4.392  0.00  0.00    -0.028 A 
ATOM     12  C   UNL     1      -5.770   3.913  -4.152  0.00  0.00    +0.005 A 
ATOM     13  C   UNL     1      -3.663   4.749  -4.981  0.00  0.00    +0.005 A 
ATOM     14  C   UNL     1      -5.396   2.618  -4.516  0.00  0.00    +0.000 A 
ATOM     15  C   UNL     1      -3.293   3.454  -5.343  0.00  0.00    +0.000 A 
ATOM     16  C   UNL     1      -4.160   2.389  -5.113  0.00  0.00    +0.000 A 
ENDBRANCH  10  11
ENDBRANCH   1  10
TORSDOF 2
ENDMDL
MODEL 7
REMARK VINA RESULT:    -5.169      3.105      4.395
REMARK INTER + INTRA:          -5.877
REMARK INTER:                  -5.703
REMARK INTRA:                  -0.173
REMARK UNBOUND:                -0.104
REMARK  Name = 1550473
REMARK  2 active torsions:
REMARK  status: ('A' for Active; 'I' for Inactive)
REMARK    1  A    between atoms: N_1  and  C_4
REMARK    2  A    between atoms: C_4  and  C_5
REMARK                            x       y       z     vdW  Elec       q    Type
REMARK                         _______ _______ _______ _____ _____    ______ ____
ROOT
ATOM      1  N   UNL     1      -3.715   7.565  -5.626  0.00  0.00    -0.354 N 
ATOM      2  N   UNL     1      -1.590   6.917  -6.280  0.00  0.00    -0.372 N 
ATOM      3  N   UNL     1      -1.817   8.304  -4.466  0.00  0.00    -0.372 N 
ATOM      4  C   UNL     1      -2.387   7.601  -5.451  0.00  0.00    +0.166 C 
ATOM      5  H   UNL     1      -4.083   7.038  -6.409  0.00  0.00    +0.163 HD
ATOM      6  H   UNL     1      -0.585   6.922  -6.171  0.00  0.00    +0.159 HD
ATOM      7  H   UNL     1      -1.963   6.354  -7.035  0.00  0.00    +0.159 HD
ATOM      8  H   UNL     1      -2.363   8.846  -3.810  0.00  0.00    +0.159 HD
ATOM      9  H   UNL     1      -0.812   8.331  -4.348  0.00  0.00    +0.159 HD
ENDROOT
BRANCH   1  10
ATOM     10  C   UNL     1      -4.674   8.231  -4.746  0.00  0.00    +0.151 C 
BRANCH  10  11
ATOM     11  C   UNL     1      -5.161   7.249  -3.717  0.00  0.00    -0.028 A 
ATOM     12  C   UNL     1      -6.125   6.287  -4.050  0.00  0.00    +0.005 A 
ATOM     13  C   UNL     1      -4.657   7.272  -2.407  0.00  0.00    +0.005 A 
ATOM     14  C   UNL     1      -6.556   5.356  -3.102  0.00  0.00    +0.000 A 
ATOM     15  C   UNL     1      -5.090   6.341  -1.463  0.00  0.00    +0.000 A 
ATOM     16  C   UNL     1      -6.037   5.381  -1.812  0.00  0.00    +0.000 A 
ENDBRANCH  10  11
ENDBRANCH   1  10
TORSDOF 2
ENDMDL
MODEL 8
REMARK VINA RESULT:    -5.030     23.242     24.739
REMARK INTER + INTRA:          -5.722
REMARK INTER:                  -5.602
REMARK INTRA:                  -0.120
REMARK UNBOUND:                -0.104
REMARK  Name = 1550473
REMARK  2 active torsions:
REMARK  status: ('A' for Active; 'I' for Inactive)
REMARK    1  A    between atoms: N_1  and  C_4
REMARK    2  A    between atoms: C_4  and  C_5
REMARK                            x       y       z     vdW  Elec       q    Type
REMARK                         _______ _______ _______ _____ _____    ______ ____
ROOT
ATOM      1  N   UNL     1       0.580   2.278  18.796  0.00  0.00    -0.354 N 
ATOM      2  N   UNL     1      -0.268   3.718  17.192  0.00  0.00    -0.372 N 
ATOM      3  N   UNL     1      -0.615   4.198  19.409  0.00  0.00    -0.372 N 
ATOM      4  C   UNL     1      -0.096   3.389  18.479  0.00  0.00    +0.166 C 
ATOM      5  H   UNL     1       0.922   1.691  18.043  0.00  0.00    +0.163 HD
ATOM      6  H   UNL     1      -0.771   4.552  16.923  0.00  0.00    +0.159 HD
ATOM      7  H   UNL     1       0.115   3.154  16.443  0.00  0.00    +0.159 HD
ATOM      8  H   UNL     1      -0.526   4.003  20.398  0.00  0.00    +0.159 HD
ATOM      9  H   UNL     1      -1.132   5.031  19.159  0.00  0.00    +0.159 HD
ENDROOT
BRANCH   1  10
ATOM     10  C   UNL     1       0.869   1.859  20.166  0.00  0.00    +0.151 C 
BRANCH  10  11
ATOM     11  C   UNL     1       2.301   1.409  20.251  0.00  0.00    -0.028 A 
ATOM     12  C   UNL     1       3.108   1.801  21.330  0.00  0.00    +0.005 A 
ATOM     13  C   UNL     1       2.856   0.586  19.260  0.00  0.00    +0.005 A 
ATOM     14  C   UNL     1       4.430   1.359  21.425  0.00  0.00    +0.000 A 
ATOM     15  C   UNL     1       4.176   0.147  19.358  0.00  0.00    +0.000 A 
ATOM     16  C   UNL     1       4.962   0.532  20.441  0.00  0.00    +0.000 A 
ENDBRANCH  10  11
ENDBRANCH   1  10
TORSDOF 2
ENDMDL
MODEL 9
REMARK VINA RESULT:    -4.840     25.123     26.563
REMARK INTER + INTRA:          -5.510
REMARK INTER:                  -5.379
REMARK INTRA:                  -0.131
REMARK UNBOUND:                -0.104
REMARK  Name = 1550473
REMARK  2 active torsions:
REMARK  status: ('A' for Active; 'I' for Inactive)
REMARK    1  A    between atoms: N_1  and  C_4
REMARK    2  A    between atoms: C_4  and  C_5
REMARK                            x       y       z     vdW  Elec       q    Type
REMARK                         _______ _______ _______ _____ _____    ______ ____
ROOT
ATOM      1  N   UNL     1       2.966   1.102  20.397  0.00  0.00    -0.354 N 
ATOM      2  N   UNL     1       0.950   2.191  20.060  0.00  0.00    -0.372 N 
ATOM      3  N   UNL     1       1.899   1.049  18.311  0.00  0.00    -0.372 N 
ATOM      4  C   UNL     1       1.952   1.439  19.589  0.00  0.00    +0.166 C 
ATOM      5  H   UNL     1       2.962   1.455  21.347  0.00  0.00    +0.163 HD
ATOM      6  H   UNL     1       0.169   2.458  19.475  0.00  0.00    +0.159 HD
ATOM      7  H   UNL     1       0.925   2.504  21.023  0.00  0.00    +0.159 HD
ATOM      8  H   UNL     1       2.627   0.485  17.892  0.00  0.00    +0.159 HD
ATOM      9  H   UNL     1       1.133   1.316  17.706  0.00  0.00    +0.159 HD
ENDROOT
BRANCH   1  10
ATOM     10  C   UNL     1       4.079   0.243  19.997  0.00  0.00    +0.151 C 
BRANCH  10  11
ATOM     11  C   UNL     1       5.311   0.649  20.759  0.00  0.00    -0.028 A 
ATOM     12  C   UNL     1       6.422  -0.205  20.823  0.00  0.00    +0.005 A 
ATOM     13  C   UNL     1       5.375   1.888  21.414  0.00  0.00    +0.005 A 
ATOM     14  C   UNL     1       7.577   0.183  21.506  0.00  0.00    +0.000 A 
ATOM     15  C   UNL     1       6.530   2.272  22.095  0.00  0.00    +0.000 A 
ATOM     16  C   UNL     1       7.632   1.421  22.138  0.00  0.00    +0.000 A 
ENDBRANCH  10  11
ENDBRANCH   1  10
TORSDOF 2
ENDMDL
