MODEL 1
REMARK VINA RESULT:    -5.677      0.000      0.000
REMARK INTER + INTRA:          -6.468
REMARK INTER:                  -6.341
REMARK INTRA:                  -0.127
REMARK UNBOUND:                -0.127
REMARK  Name = 1550473
REMARK  2 active torsions:
REMARK  status: ('A' for Active; 'I' for Inactive)
REMARK    1  A    between atoms: N_1  and  C_4
REMARK    2  A    between atoms: C_4  and  C_5
REMARK                            x       y       z     vdW  Elec       q    Type
REMARK                         _______ _______ _______ _____ _____    ______ ____
ROOT
ATOM      1  N   UNL     1      -4.537 -21.042 -18.310  0.00  0.00    -0.354 N 
ATOM      2  N   UNL     1      -2.532 -19.939 -18.663  0.00  0.00    -0.372 N 
ATOM      3  N   UNL     1      -2.523 -22.226 -18.485  0.00  0.00    -0.372 N 
ATOM      4  C   UNL     1      -3.209 -21.079 -18.483  0.00  0.00    +0.166 C 
ATOM      5  H   UNL     1      -4.995 -20.138 -18.289  0.00  0.00    +0.163 HD
ATOM      6  H   UNL     1      -1.530 -19.935 -18.800  0.00  0.00    +0.159 HD
ATOM      7  H   UNL     1      -2.998 -19.040 -18.687  0.00  0.00    +0.159 HD
ATOM      8  H   UNL     1      -2.974 -23.121 -18.349  0.00  0.00    +0.159 HD
ATOM      9  H   UNL     1      -1.518 -22.243 -18.609  0.00  0.00    +0.159 HD
ENDROOT
BRANCH   1  10
ATOM     10  C   UNL     1      -5.376 -22.231 -18.160  0.00  0.00    +0.151 C 
BRANCH  10  11
ATOM     11  C   UNL     1      -6.772 -21.907 -18.616  0.00  0.00    -0.028 A 
ATOM     12  C   UNL     1      -6.998 -20.881 -19.545  0.00  0.00    +0.005 A 
ATOM     13  C   UNL     1      -7.872 -22.627 -18.126  0.00  0.00    +0.005 A 
ATOM     14  C   UNL     1      -8.292 -20.600 -19.990  0.00  0.00    +0.000 A 
ATOM     15  C   UNL     1      -9.163 -22.343 -18.573  0.00  0.00    +0.000 A 
ATOM     16  C   UNL     1      -9.372 -21.332 -19.507  0.00  0.00    +0.000 A 
ENDBRANCH  10  11
ENDBRANCH   1  10
TORSDOF 2
ENDMDL
MODEL 2
REMARK VINA RESULT:    -5.615     32.565     33.626
REMARK INTER + INTRA:          -6.398
REMARK INTER:                  -6.383
REMARK INTRA:                  -0.015
REMARK UNBOUND:                -0.127
REMARK  Name = 1550473
REMARK  2 active torsions:
REMARK  status: ('A' for Active; 'I' for Inactive)
REMARK    1  A    between atoms: N_1  and  C_4
REMARK    2  A    between atoms: C_4  and  C_5
REMARK                            x       y       z     vdW  Elec       q    Type
REMARK                         _______ _______ _______ _____ _____    ______ ____
ROOT
ATOM      1  N   UNL     1       7.441   5.800  -8.719  0.00  0.00    -0.354 N 
ATOM      2  N   UNL     1       6.076   5.840  -6.849  0.00  0.00    -0.372 N 
ATOM      3  N   UNL     1       6.879   7.823  -7.679  0.00  0.00    -0.372 N 
ATOM      4  C   UNL     1       6.808   6.490  -7.761  0.00  0.00    +0.166 C 
ATOM      5  H   UNL     1       7.372   4.788  -8.709  0.00  0.00    +0.163 HD
ATOM      6  H   UNL     1       5.585   6.335  -6.116  0.00  0.00    +0.159 HD
ATOM      7  H   UNL     1       5.972   4.833  -6.868  0.00  0.00    +0.159 HD
ATOM      8  H   UNL     1       7.420   8.372  -8.334  0.00  0.00    +0.159 HD
ATOM      9  H   UNL     1       6.404   8.335  -6.946  0.00  0.00    +0.159 HD
ENDROOT
BRANCH   1  10
ATOM     10  C   UNL     1       8.220   6.415  -9.792  0.00  0.00    +0.151 C 
BRANCH  10  11
ATOM     11  C   UNL     1       9.684   6.283  -9.474  0.00  0.00    -0.028 A 
ATOM     12  C   UNL     1      10.648   6.445 -10.480  0.00  0.00    +0.005 A 
ATOM     13  C   UNL     1      10.113   6.002  -8.168  0.00  0.00    +0.005 A 
ATOM     14  C   UNL     1      12.009   6.353 -10.179  0.00  0.00    +0.000 A 
ATOM     15  C   UNL     1      11.473   5.910  -7.873  0.00  0.00    +0.000 A 
ATOM     16  C   UNL     1      12.421   6.087  -8.878  0.00  0.00    +0.000 A 
ENDBRANCH  10  11
ENDBRANCH   1  10
TORSDOF 2
ENDMDL
MODEL 3
REMARK VINA RESULT:    -5.568      1.927      2.875
REMARK INTER + INTRA:          -6.346
REMARK INTER:                  -6.194
REMARK INTRA:                  -0.152
REMARK UNBOUND:                -0.127
REMARK  Name = 1550473
REMARK  2 active torsions:
REMARK  status: ('A' for Active; 'I' for Inactive)
REMARK    1  A    between atoms: N_1  and  C_4
REMARK    2  A    between atoms: C_4  and  C_5
REMARK                            x       y       z     vdW  Elec       q    Type
REMARK                         _______ _______ _______ _____ _____    ______ ____
ROOT
ATOM      1  N   UNL     1      -5.175 -23.525 -17.739  0.00  0.00    -0.354 N 
ATOM      2  N   UNL     1      -4.543 -25.753 -17.707  0.00  0.00    -0.372 N 
ATOM      3  N   UNL     1      -3.875 -24.436 -19.463  0.00  0.00    -0.372 N 
ATOM      4  C   UNL     1      -4.534 -24.556 -18.306  0.00  0.00    +0.166 C 
ATOM      5  H   UNL     1      -5.682 -23.689 -16.876  0.00  0.00    +0.163 HD
ATOM      6  H   UNL     1      -4.066 -26.548 -18.109  0.00  0.00    +0.159 HD
ATOM      7  H   UNL     1      -5.012 -25.903 -16.822  0.00  0.00    +0.159 HD
ATOM      8  H   UNL     1      -3.835 -23.561 -19.968  0.00  0.00    +0.159 HD
ATOM      9  H   UNL     1      -3.401 -25.223 -19.887  0.00  0.00    +0.159 HD
ENDROOT
BRANCH   1  10
ATOM     10  C   UNL     1      -5.182 -22.168 -18.282  0.00  0.00    +0.151 C 
BRANCH  10  11
ATOM     11  C   UNL     1      -6.569 -21.836 -18.758  0.00  0.00    -0.028 A 
ATOM     12  C   UNL     1      -7.676 -22.554 -18.282  0.00  0.00    +0.005 A 
ATOM     13  C   UNL     1      -6.784 -20.800 -19.680  0.00  0.00    +0.005 A 
ATOM     14  C   UNL     1      -8.968 -22.226 -18.701  0.00  0.00    +0.000 A 
ATOM     15  C   UNL     1      -8.075 -20.476 -20.096  0.00  0.00    +0.000 A 
ATOM     16  C   UNL     1      -9.167 -21.188 -19.605  0.00  0.00    +0.000 A 
ENDBRANCH  10  11
ENDBRANCH   1  10
TORSDOF 2
ENDMDL
MODEL 4
REMARK VINA RESULT:    -5.538     39.771     40.975
REMARK INTER + INTRA:          -6.313
REMARK INTER:                  -6.135
REMARK INTRA:                  -0.178
REMARK UNBOUND:                -0.127
REMARK  Name = 1550473
REMARK  2 active torsions:
REMARK  status: ('A' for Active; 'I' for Inactive)
REMARK    1  A    between atoms: N_1  and  C_4
REMARK    2  A    between atoms: C_4  and  C_5
REMARK                            x       y       z     vdW  Elec       q    Type
REMARK                         _______ _______ _______ _____ _____    ______ ____
ROOT
ATOM      1  N   UNL     1      17.160  11.737 -12.083  0.00  0.00    -0.354 N 
ATOM      2  N   UNL     1      16.455  11.516  -9.887  0.00  0.00    -0.372 N 
ATOM      3  N   UNL     1      18.646  12.058 -10.299  0.00  0.00    -0.372 N 
ATOM      4  C   UNL     1      17.428  11.772 -10.770  0.00  0.00    +0.166 C 
ATOM      5  H   UNL     1      16.224  11.484 -12.376  0.00  0.00    +0.163 HD
ATOM      6  H   UNL     1      16.627  11.538  -8.891  0.00  0.00    +0.159 HD
ATOM      7  H   UNL     1      15.509  11.308 -10.183  0.00  0.00    +0.159 HD
ATOM      8  H   UNL     1      19.425  12.255 -10.913  0.00  0.00    +0.159 HD
ATOM      9  H   UNL     1      18.840  12.074  -9.306  0.00  0.00    +0.159 HD
ENDROOT
BRANCH   1  10
ATOM     10  C   UNL     1      18.135  12.053 -13.125  0.00  0.00    +0.151 C 
BRANCH  10  11
ATOM     11  C   UNL     1      18.666  10.772 -13.706  0.00  0.00    -0.028 A 
ATOM     12  C   UNL     1      19.871  10.224 -13.242  0.00  0.00    +0.005 A 
ATOM     13  C   UNL     1      17.965  10.097 -14.718  0.00  0.00    +0.005 A 
ATOM     14  C   UNL     1      20.349   9.018 -13.761  0.00  0.00    +0.000 A 
ATOM     15  C   UNL     1      18.446   8.894 -15.234  0.00  0.00    +0.000 A 
ATOM     16  C   UNL     1      19.637   8.353 -14.753  0.00  0.00    +0.000 A 
ENDBRANCH  10  11
ENDBRANCH   1  10
TORSDOF 2
ENDMDL
MODEL 5
REMARK VINA RESULT:    -5.470      3.074      4.014
REMARK INTER + INTRA:          -6.237
REMARK INTER:                  -6.145
REMARK INTRA:                  -0.092
REMARK UNBOUND:                -0.127
REMARK  Name = 1550473
REMARK  2 active torsions:
REMARK  status: ('A' for Active; 'I' for Inactive)
REMARK    1  A    between atoms: N_1  and  C_4
REMARK    2  A    between atoms: C_4  and  C_5
REMARK                            x       y       z     vdW  Elec       q    Type
REMARK                         _______ _______ _______ _____ _____    ______ ____
ROOT
ATOM      1  N   UNL     1      -3.315 -25.220 -19.549  0.00  0.00    -0.354 N 
ATOM      2  N   UNL     1      -2.670 -27.193 -20.576  0.00  0.00    -0.372 N 
ATOM      3  N   UNL     1      -1.312 -26.287 -18.963  0.00  0.00    -0.372 N 
ATOM      4  C   UNL     1      -2.434 -26.220 -19.688  0.00  0.00    +0.166 C 
ATOM      5  H   UNL     1      -4.131 -25.211 -20.150  0.00  0.00    +0.163 HD
ATOM      6  H   UNL     1      -2.025 -27.963 -20.700  0.00  0.00    +0.159 HD
ATOM      7  H   UNL     1      -3.509 -27.206 -21.143  0.00  0.00    +0.159 HD
ATOM      8  H   UNL     1      -1.073 -25.581 -18.280  0.00  0.00    +0.159 HD
ATOM      9  H   UNL     1      -0.649 -27.043 -19.082  0.00  0.00    +0.159 HD
ENDROOT
BRANCH   1  10
ATOM     10  C   UNL     1      -3.179 -24.140 -18.573  0.00  0.00    +0.151 C 
BRANCH  10  11
ATOM     11  C   UNL     1      -4.385 -23.247 -18.658  0.00  0.00    -0.028 A 
ATOM     12  C   UNL     1      -4.341 -22.060 -19.404  0.00  0.00    +0.005 A 
ATOM     13  C   UNL     1      -5.578 -23.584 -18.000  0.00  0.00    +0.005 A 
ATOM     14  C   UNL     1      -5.470 -21.244 -19.507  0.00  0.00    +0.000 A 
ATOM     15  C   UNL     1      -6.703 -22.767 -18.105  0.00  0.00    +0.000 A 
ATOM     16  C   UNL     1      -6.650 -21.599 -18.861  0.00  0.00    +0.000 A 
ENDBRANCH  10  11
ENDBRANCH   1  10
TORSDOF 2
ENDMDL
MODEL 6
REMARK VINA RESULT:    -5.441     40.044     41.000
REMARK INTER + INTRA:          -6.204
REMARK INTER:                  -6.242
REMARK INTRA:                   0.038
REMARK UNBOUND:                -0.127
REMARK  Name = 1550473
REMARK  2 active torsions:
REMARK  status: ('A' for Active; 'I' for Inactive)
REMARK    1  A    between atoms: N_1  and  C_4
REMARK    2  A    between atoms: C_4  and  C_5
REMARK                            x       y       z     vdW  Elec       q    Type
REMARK                         _______ _______ _______ _____ _____    ______ ____
ROOT
ATOM      1  N   UNL     1      16.768  11.779 -12.523  0.00  0.00    -0.354 N 
ATOM      2  N   UNL     1      18.103  12.728 -10.885  0.00  0.00    -0.372 N 
ATOM      3  N   UNL     1      18.706  10.698 -11.769  0.00  0.00    -0.372 N 
ATOM      4  C   UNL     1      17.851  11.726 -11.736  0.00  0.00    +0.166 C 
ATOM      5  H   UNL     1      16.143  12.572 -12.429  0.00  0.00    +0.163 HD
ATOM      6  H   UNL     1      18.915  12.718 -10.282  0.00  0.00    +0.159 HD
ATOM      7  H   UNL     1      17.502  13.541 -10.826  0.00  0.00    +0.159 HD
ATOM      8  H   UNL     1      18.569   9.908 -12.385  0.00  0.00    +0.159 HD
ATOM      9  H   UNL     1      19.517  10.664 -11.164  0.00  0.00    +0.159 HD
ENDROOT
BRANCH   1  10
ATOM     10  C   UNL     1      16.432  10.766 -13.522  0.00  0.00    +0.151 C 
BRANCH  10  11
ATOM     11  C   UNL     1      17.373  10.895 -14.688  0.00  0.00    -0.028 A 
ATOM     12  C   UNL     1      17.552  12.132 -15.324  0.00  0.00    +0.005 A 
ATOM     13  C   UNL     1      18.094   9.786 -15.157  0.00  0.00    +0.005 A 
ATOM     14  C   UNL     1      18.448  12.259 -16.388  0.00  0.00    +0.000 A 
ATOM     15  C   UNL     1      18.987   9.917 -16.220  0.00  0.00    +0.000 A 
ATOM     16  C   UNL     1      19.166  11.154 -16.834  0.00  0.00    +0.000 A 
ENDBRANCH  10  11
ENDBRANCH   1  10
TORSDOF 2
ENDMDL
MODEL 7
REMARK VINA RESULT:    -5.382     39.389     40.955
REMARK INTER + INTRA:          -6.138
REMARK INTER:                  -5.975
REMARK INTRA:                  -0.164
REMARK UNBOUND:                -0.127
REMARK  Name = 1550473
REMARK  2 active torsions:
REMARK  status: ('A' for Active; 'I' for Inactive)
REMARK    1  A    between atoms: N_1  and  C_4
REMARK    2  A    between atoms: C_4  and  C_5
REMARK                            x       y       z     vdW  Elec       q    Type
REMARK                         _______ _______ _______ _____ _____    ______ ____
ROOT
ATOM      1  N   UNL     1      18.276  12.572 -11.316  0.00  0.00    -0.354 N 
ATOM      2  N   UNL     1      19.016  11.948  -9.212  0.00  0.00    -0.372 N 
ATOM      3  N   UNL     1      16.803  11.653  -9.742  0.00  0.00    -0.372 N 
ATOM      4  C   UNL     1      18.024  12.061 -10.104  0.00  0.00    +0.166 C 
ATOM      5  H   UNL     1      19.217  12.891 -11.518  0.00  0.00    +0.163 HD
ATOM      6  H   UNL     1      18.857  11.563  -8.291  0.00  0.00    +0.159 HD
ATOM      7  H   UNL     1      19.965  12.225  -9.433  0.00  0.00    +0.159 HD
ATOM      8  H   UNL     1      16.010  11.717 -10.367  0.00  0.00    +0.159 HD
ATOM      9  H   UNL     1      16.621  11.276  -8.820  0.00  0.00    +0.159 HD
ENDROOT
BRANCH   1  10
ATOM     10  C   UNL     1      17.278  12.688 -12.378  0.00  0.00    +0.151 C 
BRANCH  10  11
ATOM     11  C   UNL     1      17.347  11.468 -13.253  0.00  0.00    -0.028 A 
ATOM     12  C   UNL     1      16.173  10.842 -13.697  0.00  0.00    +0.005 A 
ATOM     13  C   UNL     1      18.584  10.934 -13.647  0.00  0.00    +0.005 A 
ATOM     14  C   UNL     1      16.236   9.726 -14.535  0.00  0.00    +0.000 A 
ATOM     15  C   UNL     1      18.643   9.819 -14.483  0.00  0.00    +0.000 A 
ATOM     16  C   UNL     1      17.469   9.217 -14.929  0.00  0.00    +0.000 A 
ENDBRANCH  10  11
ENDBRANCH   1  10
TORSDOF 2
ENDMDL
MODEL 8
REMARK VINA RESULT:    -5.340     41.040     41.644
REMARK INTER + INTRA:          -6.091
REMARK INTER:                  -5.960
REMARK INTRA:                  -0.131
REMARK UNBOUND:                -0.127
REMARK  Name = 1550473
REMARK  2 active torsions:
REMARK  status: ('A' for Active; 'I' for Inactive)
REMARK    1  A    between atoms: N_1  and  C_4
REMARK    2  A    between atoms: C_4  and  C_5
REMARK                            x       y       z     vdW  Elec       q    Type
REMARK                         _______ _______ _______ _____ _____    ______ ____
ROOT
ATOM      1  N   UNL     1      18.502  11.703 -12.001  0.00  0.00    -0.354 N 
ATOM      2  N   UNL     1      19.707  11.547 -13.973  0.00  0.00    -0.372 N 
ATOM      3  N   UNL     1      17.517  10.866 -13.956  0.00  0.00    -0.372 N 
ATOM      4  C   UNL     1      18.565  11.372 -13.298  0.00  0.00    +0.166 C 
ATOM      5  H   UNL     1      19.341  12.053 -11.553  0.00  0.00    +0.163 HD
ATOM      6  H   UNL     1      19.784  11.310 -14.953  0.00  0.00    +0.159 HD
ATOM      7  H   UNL     1      20.531  11.941 -13.534  0.00  0.00    +0.159 HD
ATOM      8  H   UNL     1      16.627  10.703 -13.502  0.00  0.00    +0.159 HD
ATOM      9  H   UNL     1      17.577  10.611 -14.934  0.00  0.00    +0.159 HD
ENDROOT
BRANCH   1  10
ATOM     10  C   UNL     1      17.291  11.601 -11.189  0.00  0.00    +0.151 C 
BRANCH  10  11
ATOM     11  C   UNL     1      17.674  11.260  -9.776  0.00  0.00    -0.028 A 
ATOM     12  C   UNL     1      16.852  11.639  -8.704  0.00  0.00    +0.005 A 
ATOM     13  C   UNL     1      18.855  10.553  -9.502  0.00  0.00    +0.005 A 
ATOM     14  C   UNL     1      17.193  11.297  -7.393  0.00  0.00    +0.000 A 
ATOM     15  C   UNL     1      19.192  10.214  -8.192  0.00  0.00    +0.000 A 
ATOM     16  C   UNL     1      18.359  10.584  -7.138  0.00  0.00    +0.000 A 
ENDBRANCH  10  11
ENDBRANCH   1  10
TORSDOF 2
ENDMDL
MODEL 9
REMARK VINA RESULT:    -5.273     40.173     40.971
REMARK INTER + INTRA:          -6.017
REMARK INTER:                  -5.853
REMARK INTRA:                  -0.164
REMARK UNBOUND:                -0.127
REMARK  Name = 1550473
REMARK  2 active torsions:
REMARK  status: ('A' for Active; 'I' for Inactive)
REMARK    1  A    between atoms: N_1  and  C_4
REMARK    2  A    between atoms: C_4  and  C_5
REMARK                            x       y       z     vdW  Elec       q    Type
REMARK                         _______ _______ _______ _____ _____    ______ ____
ROOT
ATOM      1  N   UNL     1      18.369  10.181 -14.296  0.00  0.00    -0.354 N 
ATOM      2  N   UNL     1      19.990   9.917 -12.664  0.00  0.00    -0.372 N 
ATOM      3  N   UNL     1      20.348  11.434 -14.348  0.00  0.00    -0.372 N 
ATOM      4  C   UNL     1      19.560  10.515 -13.782  0.00  0.00    +0.166 C 
ATOM      5  H   UNL     1      17.832   9.455 -13.837  0.00  0.00    +0.163 HD
ATOM      6  H   UNL     1      20.883  10.151 -12.250  0.00  0.00    +0.159 HD
ATOM      7  H   UNL     1      19.431   9.225 -12.181  0.00  0.00    +0.159 HD
ATOM      8  H   UNL     1      20.084  11.917 -15.196  0.00  0.00    +0.159 HD
ATOM      9  H   UNL     1      21.250  11.673 -13.955  0.00  0.00    +0.159 HD
ENDROOT
BRANCH   1  10
ATOM     10  C   UNL     1      17.784  10.810 -15.480  0.00  0.00    +0.151 C 
BRANCH  10  11
ATOM     11  C   UNL     1      16.789  11.850 -15.042  0.00  0.00    -0.028 A 
ATOM     12  C   UNL     1      16.635  13.039 -15.770  0.00  0.00    +0.005 A 
ATOM     13  C   UNL     1      15.992  11.648 -13.905  0.00  0.00    +0.005 A 
ATOM     14  C   UNL     1      15.690  13.991 -15.382  0.00  0.00    +0.000 A 
ATOM     15  C   UNL     1      15.050  12.602 -13.520  0.00  0.00    +0.000 A 
ATOM     16  C   UNL     1      14.897  13.772 -14.260  0.00  0.00    +0.000 A 
ENDBRANCH  10  11
ENDBRANCH   1  10
TORSDOF 2
ENDMDL
