MODEL 1
REMARK VINA RESULT:    -5.433      0.000      0.000
REMARK INTER + INTRA:          -6.182
REMARK INTER:                  -6.068
REMARK INTRA:                  -0.114
REMARK UNBOUND:                -0.114
REMARK  Name = 1550473
REMARK  2 active torsions:
REMARK  status: ('A' for Active; 'I' for Inactive)
REMARK    1  A    between atoms: N_1  and  C_4
REMARK    2  A    between atoms: C_4  and  C_5
REMARK                            x       y       z     vdW  Elec       q    Type
REMARK                         _______ _______ _______ _____ _____    ______ ____
ROOT
ATOM      1  N   UNL     1      -8.136  -3.372 -34.102  0.00  0.00    -0.354 N 
ATOM      2  N   UNL     1      -6.675  -4.107 -35.742  0.00  0.00    -0.372 N 
ATOM      3  N   UNL     1      -7.231  -5.533 -34.032  0.00  0.00    -0.372 N 
ATOM      4  C   UNL     1      -7.357  -4.335 -34.613  0.00  0.00    +0.166 C 
ATOM      5  H   UNL     1      -8.165  -2.475 -34.574  0.00  0.00    +0.163 HD
ATOM      6  H   UNL     1      -6.082  -4.816 -36.153  0.00  0.00    +0.159 HD
ATOM      7  H   UNL     1      -6.742  -3.226 -36.236  0.00  0.00    +0.159 HD
ATOM      8  H   UNL     1      -7.715  -5.765 -33.175  0.00  0.00    +0.159 HD
ATOM      9  H   UNL     1      -6.633  -6.250 -34.422  0.00  0.00    +0.159 HD
ENDROOT
BRANCH   1  10
ATOM     10  C   UNL     1      -8.962  -3.536 -32.907  0.00  0.00    +0.151 C 
BRANCH  10  11
ATOM     11  C   UNL     1      -9.426  -2.184 -32.441  0.00  0.00    -0.028 A 
ATOM     12  C   UNL     1      -9.577  -1.916 -31.073  0.00  0.00    +0.005 A 
ATOM     13  C   UNL     1      -9.711  -1.165 -33.363  0.00  0.00    +0.005 A 
ATOM     14  C   UNL     1      -9.979  -0.650 -30.638  0.00  0.00    +0.000 A 
ATOM     15  C   UNL     1     -10.113   0.097 -32.924  0.00  0.00    +0.000 A 
ATOM     16  C   UNL     1     -10.245   0.354 -31.562  0.00  0.00    +0.000 A 
ENDBRANCH  10  11
ENDBRANCH   1  10
TORSDOF 2
ENDMDL
MODEL 2
REMARK VINA RESULT:    -4.951      2.513      3.701
REMARK INTER + INTRA:          -5.643
REMARK INTER:                  -5.499
REMARK INTRA:                  -0.145
REMARK UNBOUND:                -0.114
REMARK  Name = 1550473
REMARK  2 active torsions:
REMARK  status: ('A' for Active; 'I' for Inactive)
REMARK    1  A    between atoms: N_1  and  C_4
REMARK    2  A    between atoms: C_4  and  C_5
REMARK                            x       y       z     vdW  Elec       q    Type
REMARK                         _______ _______ _______ _____ _____    ______ ____
ROOT
ATOM      1  N   UNL     1      -9.450  -1.164 -32.101  0.00  0.00    -0.354 N 
ATOM      2  N   UNL     1      -9.025  -2.973 -30.718  0.00  0.00    -0.372 N 
ATOM      3  N   UNL     1      -9.501  -3.355 -32.930  0.00  0.00    -0.372 N 
ATOM      4  C   UNL     1      -9.329  -2.487 -31.928  0.00  0.00    +0.166 C 
ATOM      5  H   UNL     1      -9.337  -0.561 -31.294  0.00  0.00    +0.163 HD
ATOM      6  H   UNL     1      -8.923  -3.966 -30.558  0.00  0.00    +0.159 HD
ATOM      7  H   UNL     1      -8.867  -2.365 -29.924  0.00  0.00    +0.159 HD
ATOM      8  H   UNL     1      -9.738  -3.053 -33.865  0.00  0.00    +0.159 HD
ATOM      9  H   UNL     1      -9.415  -4.354 -32.787  0.00  0.00    +0.159 HD
ENDROOT
BRANCH   1  10
ATOM     10  C   UNL     1      -9.726  -0.530 -33.389  0.00  0.00    +0.151 C 
BRANCH  10  11
ATOM     11  C   UNL     1     -11.052   0.175 -33.315  0.00  0.00    -0.028 A 
ATOM     12  C   UNL     1     -11.272   1.180 -32.362  0.00  0.00    +0.005 A 
ATOM     13  C   UNL     1     -12.091  -0.153 -34.199  0.00  0.00    +0.005 A 
ATOM     14  C   UNL     1     -12.494   1.856 -32.313  0.00  0.00    +0.000 A 
ATOM     15  C   UNL     1     -13.310   0.523 -34.147  0.00  0.00    +0.000 A 
ATOM     16  C   UNL     1     -13.510   1.530 -33.205  0.00  0.00    +0.000 A 
ENDBRANCH  10  11
ENDBRANCH   1  10
TORSDOF 2
ENDMDL
MODEL 3
REMARK VINA RESULT:    -4.949      4.826      6.158
REMARK INTER + INTRA:          -5.641
REMARK INTER:                  -5.461
REMARK INTRA:                  -0.180
REMARK UNBOUND:                -0.114
REMARK  Name = 1550473
REMARK  2 active torsions:
REMARK  status: ('A' for Active; 'I' for Inactive)
REMARK    1  A    between atoms: N_1  and  C_4
REMARK    2  A    between atoms: C_4  and  C_5
REMARK                            x       y       z     vdW  Elec       q    Type
REMARK                         _______ _______ _______ _____ _____    ______ ____
ROOT
ATOM      1  N   UNL     1     -12.756   1.889 -31.794  0.00  0.00    -0.354 N 
ATOM      2  N   UNL     1     -15.044   1.641 -32.052  0.00  0.00    -0.372 N 
ATOM      3  N   UNL     1     -13.751   2.002 -33.913  0.00  0.00    -0.372 N 
ATOM      4  C   UNL     1     -13.835   1.846 -32.587  0.00  0.00    +0.166 C 
ATOM      5  H   UNL     1     -12.890   1.794 -30.794  0.00  0.00    +0.163 HD
ATOM      6  H   UNL     1     -15.876   1.600 -32.626  0.00  0.00    +0.159 HD
ATOM      7  H   UNL     1     -15.170   1.500 -31.057  0.00  0.00    +0.159 HD
ATOM      8  H   UNL     1     -12.868   2.166 -34.378  0.00  0.00    +0.159 HD
ATOM      9  H   UNL     1     -14.574   1.976 -34.502  0.00  0.00    +0.159 HD
ENDROOT
BRANCH   1  10
ATOM     10  C   UNL     1     -11.388   2.053 -32.282  0.00  0.00    +0.151 C 
BRANCH  10  11
ATOM     11  C   UNL     1     -10.690   0.722 -32.243  0.00  0.00    -0.028 A 
ATOM     12  C   UNL     1     -10.264   0.176 -31.023  0.00  0.00    +0.005 A 
ATOM     13  C   UNL     1     -10.455  -0.002 -33.423  0.00  0.00    +0.005 A 
ATOM     14  C   UNL     1      -9.642  -1.074 -30.984  0.00  0.00    +0.000 A 
ATOM     15  C   UNL     1      -9.833  -1.249 -33.379  0.00  0.00    +0.000 A 
ATOM     16  C   UNL     1      -9.429  -1.786 -32.159  0.00  0.00    +0.000 A 
ENDBRANCH  10  11
ENDBRANCH   1  10
TORSDOF 2
ENDMDL
MODEL 4
REMARK VINA RESULT:    -4.671     29.362     30.439
REMARK INTER + INTRA:          -5.331
REMARK INTER:                  -5.204
REMARK INTRA:                  -0.127
REMARK UNBOUND:                -0.114
REMARK  Name = 1550473
REMARK  2 active torsions:
REMARK  status: ('A' for Active; 'I' for Inactive)
REMARK    1  A    between atoms: N_1  and  C_4
REMARK    2  A    between atoms: C_4  and  C_5
REMARK                            x       y       z     vdW  Elec       q    Type
REMARK                         _______ _______ _______ _____ _____    ______ ____
ROOT
ATOM      1  N   UNL     1     -12.870   7.883  -4.094  0.00  0.00    -0.354 N 
ATOM      2  N   UNL     1     -12.690   5.781  -3.140  0.00  0.00    -0.372 N 
ATOM      3  N   UNL     1     -14.673   6.920  -2.948  0.00  0.00    -0.372 N 
ATOM      4  C   UNL     1     -13.415   6.876  -3.399  0.00  0.00    +0.166 C 
ATOM      5  H   UNL     1     -11.901   7.801  -4.382  0.00  0.00    +0.163 HD
ATOM      6  H   UNL     1     -13.076   5.003  -2.621  0.00  0.00    +0.159 HD
ATOM      7  H   UNL     1     -11.738   5.682  -3.469  0.00  0.00    +0.159 HD
ATOM      8  H   UNL     1     -15.270   7.721  -3.105  0.00  0.00    +0.159 HD
ATOM      9  H   UNL     1     -15.073   6.157  -2.417  0.00  0.00    +0.159 HD
ENDROOT
BRANCH   1  10
ATOM     10  C   UNL     1     -13.590   9.097  -4.476  0.00  0.00    +0.151 C 
BRANCH  10  11
ATOM     11  C   UNL     1     -12.903   9.725  -5.657  0.00  0.00    -0.028 A 
ATOM     12  C   UNL     1     -13.363  10.940  -6.185  0.00  0.00    +0.005 A 
ATOM     13  C   UNL     1     -11.788   9.112  -6.250  0.00  0.00    +0.005 A 
ATOM     14  C   UNL     1     -12.707  11.538  -7.264  0.00  0.00    +0.000 A 
ATOM     15  C   UNL     1     -11.137   9.712  -7.327  0.00  0.00    +0.000 A 
ATOM     16  C   UNL     1     -11.595  10.926  -7.832  0.00  0.00    +0.000 A 
ENDBRANCH  10  11
ENDBRANCH   1  10
TORSDOF 2
ENDMDL
MODEL 5
REMARK VINA RESULT:    -4.617     46.626     47.925
REMARK INTER + INTRA:          -5.271
REMARK INTER:                  -5.147
REMARK INTRA:                  -0.124
REMARK UNBOUND:                -0.114
REMARK  Name = 1550473
REMARK  2 active torsions:
REMARK  status: ('A' for Active; 'I' for Inactive)
REMARK    1  A    between atoms: N_1  and  C_4
REMARK    2  A    between atoms: C_4  and  C_5
REMARK                            x       y       z     vdW  Elec       q    Type
REMARK                         _______ _______ _______ _____ _____    ______ ____
ROOT
ATOM      1  N   UNL     1       9.414   7.559  11.008  0.00  0.00    -0.354 N 
ATOM      2  N   UNL     1       8.531   9.504  11.903  0.00  0.00    -0.372 N 
ATOM      3  N   UNL     1      10.810   9.288  11.753  0.00  0.00    -0.372 N 
ATOM      4  C   UNL     1       9.593   8.771  11.549  0.00  0.00    +0.166 C 
ATOM      5  H   UNL     1       8.467   7.212  10.907  0.00  0.00    +0.163 HD
ATOM      6  H   UNL     1       8.634  10.423  12.310  0.00  0.00    +0.159 HD
ATOM      7  H   UNL     1       7.584   9.173  11.759  0.00  0.00    +0.159 HD
ATOM      8  H   UNL     1      11.653   8.783  11.513  0.00  0.00    +0.159 HD
ATOM      9  H   UNL     1      10.935  10.202  12.170  0.00  0.00    +0.159 HD
ENDROOT
BRANCH   1  10
ATOM     10  C   UNL     1      10.503   6.704  10.539  0.00  0.00    +0.151 C 
BRANCH  10  11
ATOM     11  C   UNL     1       9.927   5.569   9.738  0.00  0.00    -0.028 A 
ATOM     12  C   UNL     1      10.769   4.625   9.133  0.00  0.00    +0.005 A 
ATOM     13  C   UNL     1       8.539   5.430   9.584  0.00  0.00    +0.005 A 
ATOM     14  C   UNL     1      10.232   3.553   8.414  0.00  0.00    +0.000 A 
ATOM     15  C   UNL     1       8.007   4.360   8.865  0.00  0.00    +0.000 A 
ATOM     16  C   UNL     1       8.854   3.420   8.282  0.00  0.00    +0.000 A 
ENDBRANCH  10  11
ENDBRANCH   1  10
TORSDOF 2
ENDMDL
MODEL 6
REMARK VINA RESULT:    -4.599     46.630     47.830
REMARK INTER + INTRA:          -5.250
REMARK INTER:                  -5.103
REMARK INTRA:                  -0.148
REMARK UNBOUND:                -0.114
REMARK  Name = 1550473
REMARK  2 active torsions:
REMARK  status: ('A' for Active; 'I' for Inactive)
REMARK    1  A    between atoms: N_1  and  C_4
REMARK    2  A    between atoms: C_4  and  C_5
REMARK                            x       y       z     vdW  Elec       q    Type
REMARK                         _______ _______ _______ _____ _____    ______ ____
ROOT
ATOM      1  N   UNL     1      12.239   4.977  10.973  0.00  0.00    -0.354 N 
ATOM      2  N   UNL     1      13.679   3.809  12.362  0.00  0.00    -0.372 N 
ATOM      3  N   UNL     1      14.229   4.054  10.148  0.00  0.00    -0.372 N 
ATOM      4  C   UNL     1      13.374   4.287  11.150  0.00  0.00    +0.166 C 
ATOM      5  H   UNL     1      11.619   5.093  11.766  0.00  0.00    +0.163 HD
ATOM      6  H   UNL     1      14.529   3.288  12.526  0.00  0.00    +0.159 HD
ATOM      7  H   UNL     1      13.079   3.966  13.163  0.00  0.00    +0.159 HD
ATOM      8  H   UNL     1      14.055   4.383   9.208  0.00  0.00    +0.159 HD
ATOM      9  H   UNL     1      15.080   3.525  10.290  0.00  0.00    +0.159 HD
ENDROOT
BRANCH   1  10
ATOM     10  C   UNL     1      11.841   5.586   9.706  0.00  0.00    +0.151 C 
BRANCH  10  11
ATOM     11  C   UNL     1      10.528   4.998   9.269  0.00  0.00    -0.028 A 
ATOM     12  C   UNL     1      10.492   3.943   8.346  0.00  0.00    +0.005 A 
ATOM     13  C   UNL     1       9.316   5.488   9.780  0.00  0.00    +0.005 A 
ATOM     14  C   UNL     1       9.273   3.377   7.963  0.00  0.00    +0.000 A 
ATOM     15  C   UNL     1       8.101   4.920   9.394  0.00  0.00    +0.000 A 
ATOM     16  C   UNL     1       8.081   3.863   8.488  0.00  0.00    +0.000 A 
ENDBRANCH  10  11
ENDBRANCH   1  10
TORSDOF 2
ENDMDL
MODEL 7
REMARK VINA RESULT:    -4.563     37.045     38.184
REMARK INTER + INTRA:          -5.210
REMARK INTER:                  -5.049
REMARK INTRA:                  -0.161
REMARK UNBOUND:                -0.114
REMARK  Name = 1550473
REMARK  2 active torsions:
REMARK  status: ('A' for Active; 'I' for Inactive)
REMARK    1  A    between atoms: N_1  and  C_4
REMARK    2  A    between atoms: C_4  and  C_5
REMARK                            x       y       z     vdW  Elec       q    Type
REMARK                         _______ _______ _______ _____ _____    ______ ____
ROOT
ATOM      1  N   UNL     1       9.842   5.667  -2.221  0.00  0.00    -0.354 N 
ATOM      2  N   UNL     1       8.461   4.524  -3.687  0.00  0.00    -0.372 N 
ATOM      3  N   UNL     1       9.029   6.696  -4.163  0.00  0.00    -0.372 N 
ATOM      4  C   UNL     1       9.120   5.639  -3.349  0.00  0.00    +0.166 C 
ATOM      5  H   UNL     1       9.846   4.843  -1.631  0.00  0.00    +0.163 HD
ATOM      6  H   UNL     1       7.910   4.472  -4.534  0.00  0.00    +0.159 HD
ATOM      7  H   UNL     1       8.504   3.687  -3.119  0.00  0.00    +0.159 HD
ATOM      8  H   UNL     1       9.498   7.569  -3.961  0.00  0.00    +0.159 HD
ATOM      9  H   UNL     1       8.474   6.667  -5.009  0.00  0.00    +0.159 HD
ENDROOT
BRANCH   1  10
ATOM     10  C   UNL     1      10.640   6.814  -1.789  0.00  0.00    +0.151 C 
BRANCH  10  11
ATOM     11  C   UNL     1      10.105   7.318  -0.478  0.00  0.00    -0.028 A 
ATOM     12  C   UNL     1      10.745   6.991   0.726  0.00  0.00    +0.005 A 
ATOM     13  C   UNL     1       8.961   8.130  -0.433  0.00  0.00    +0.005 A 
ATOM     14  C   UNL     1      10.266   7.484   1.942  0.00  0.00    +0.000 A 
ATOM     15  C   UNL     1       8.485   8.620   0.783  0.00  0.00    +0.000 A 
ATOM     16  C   UNL     1       9.139   8.299   1.970  0.00  0.00    +0.000 A 
ENDBRANCH  10  11
ENDBRANCH   1  10
TORSDOF 2
ENDMDL
MODEL 8
REMARK VINA RESULT:    -4.457     29.320     30.428
REMARK INTER + INTRA:          -5.092
REMARK INTER:                  -4.971
REMARK INTRA:                  -0.120
REMARK UNBOUND:                -0.114
REMARK  Name = 1550473
REMARK  2 active torsions:
REMARK  status: ('A' for Active; 'I' for Inactive)
REMARK    1  A    between atoms: N_1  and  C_4
REMARK    2  A    between atoms: C_4  and  C_5
REMARK                            x       y       z     vdW  Elec       q    Type
REMARK                         _______ _______ _______ _____ _____    ______ ____
ROOT
ATOM      1  N   UNL     1     -13.074   6.347  -4.659  0.00  0.00    -0.354 N 
ATOM      2  N   UNL     1     -12.770   4.105  -5.157  0.00  0.00    -0.372 N 
ATOM      3  N   UNL     1     -12.227   4.859  -3.059  0.00  0.00    -0.372 N 
ATOM      4  C   UNL     1     -12.691   5.119  -4.286  0.00  0.00    +0.166 C 
ATOM      5  H   UNL     1     -13.388   6.484  -5.613  0.00  0.00    +0.163 HD
ATOM      6  H   UNL     1     -12.492   3.167  -4.902  0.00  0.00    +0.159 HD
ATOM      7  H   UNL     1     -13.128   4.236  -6.095  0.00  0.00    +0.159 HD
ATOM      8  H   UNL     1     -12.137   5.581  -2.356  0.00  0.00    +0.159 HD
ATOM      9  H   UNL     1     -11.932   3.929  -2.789  0.00  0.00    +0.159 HD
ENDROOT
BRANCH   1  10
ATOM     10  C   UNL     1     -13.078   7.508  -3.770  0.00  0.00    +0.151 C 
BRANCH  10  11
ATOM     11  C   UNL     1     -13.109   8.761  -4.600  0.00  0.00    -0.028 A 
ATOM     12  C   UNL     1     -12.395   8.836  -5.804  0.00  0.00    +0.005 A 
ATOM     13  C   UNL     1     -13.857   9.876  -4.190  0.00  0.00    +0.005 A 
ATOM     14  C   UNL     1     -12.448   9.990  -6.590  0.00  0.00    +0.000 A 
ATOM     15  C   UNL     1     -13.907  11.026  -4.977  0.00  0.00    +0.000 A 
ATOM     16  C   UNL     1     -13.204  11.082  -6.178  0.00  0.00    +0.000 A 
ENDBRANCH  10  11
ENDBRANCH   1  10
TORSDOF 2
ENDMDL
MODEL 9
REMARK VINA RESULT:    -4.442     38.209     39.150
REMARK INTER + INTRA:          -5.075
REMARK INTER:                  -4.948
REMARK INTRA:                  -0.127
REMARK UNBOUND:                -0.114
REMARK  Name = 1550473
REMARK  2 active torsions:
REMARK  status: ('A' for Active; 'I' for Inactive)
REMARK    1  A    between atoms: N_1  and  C_4
REMARK    2  A    between atoms: C_4  and  C_5
REMARK                            x       y       z     vdW  Elec       q    Type
REMARK                         _______ _______ _______ _____ _____    ______ ____
ROOT
ATOM      1  N   UNL     1       5.977  10.668  -0.264  0.00  0.00    -0.354 N 
ATOM      2  N   UNL     1       4.150  11.867   0.502  0.00  0.00    -0.372 N 
ATOM      3  N   UNL     1       5.678  12.918  -0.848  0.00  0.00    -0.372 N 
ATOM      4  C   UNL     1       5.282  11.812  -0.210  0.00  0.00    +0.166 C 
ATOM      5  H   UNL     1       5.639   9.874   0.267  0.00  0.00    +0.163 HD
ATOM      6  H   UNL     1       3.602  12.715   0.559  0.00  0.00    +0.159 HD
ATOM      7  H   UNL     1       3.790  11.058   0.995  0.00  0.00    +0.159 HD
ATOM      8  H   UNL     1       6.526  12.944  -1.398  0.00  0.00    +0.159 HD
ATOM      9  H   UNL     1       5.149  13.780  -0.794  0.00  0.00    +0.159 HD
ENDROOT
BRANCH   1  10
ATOM     10  C   UNL     1       7.194  10.488  -1.055  0.00  0.00    +0.151 C 
BRANCH  10  11
ATOM     11  C   UNL     1       8.086   9.495  -0.363  0.00  0.00    -0.028 A 
ATOM     12  C   UNL     1       8.871   8.603  -1.109  0.00  0.00    +0.005 A 
ATOM     13  C   UNL     1       8.156   9.444   1.038  0.00  0.00    +0.005 A 
ATOM     14  C   UNL     1       9.723   7.700  -0.467  0.00  0.00    +0.000 A 
ATOM     15  C   UNL     1       9.007   8.541   1.674  0.00  0.00    +0.000 A 
ATOM     16  C   UNL     1       9.792   7.671   0.922  0.00  0.00    +0.000 A 
ENDBRANCH  10  11
ENDBRANCH   1  10
TORSDOF 2
ENDMDL
