MODEL 1
REMARK VINA RESULT:    -5.959      0.000      0.000
REMARK INTER + INTRA:          -6.795
REMARK INTER:                  -6.656
REMARK INTRA:                  -0.139
REMARK UNBOUND:                -0.139
REMARK  Name = 1550473
REMARK  2 active torsions:
REMARK  status: ('A' for Active; 'I' for Inactive)
REMARK    1  A    between atoms: N_1  and  C_4
REMARK    2  A    between atoms: C_4  and  C_5
REMARK                            x       y       z     vdW  Elec       q    Type
REMARK                         _______ _______ _______ _____ _____    ______ ____
ROOT
ATOM      1  N   UNL     1       5.155   0.593   0.933  0.00  0.00    -0.354 N 
ATOM      2  N   UNL     1       6.374   0.546   2.901  0.00  0.00    -0.372 N 
ATOM      3  N   UNL     1       7.406  -0.060   0.943  0.00  0.00    -0.372 N 
ATOM      4  C   UNL     1       6.306   0.359   1.578  0.00  0.00    +0.166 C 
ATOM      5  H   UNL     1       4.349   0.880   1.475  0.00  0.00    +0.163 HD
ATOM      6  H   UNL     1       7.230   0.381   3.414  0.00  0.00    +0.159 HD
ATOM      7  H   UNL     1       5.580   0.877   3.434  0.00  0.00    +0.159 HD
ATOM      8  H   UNL     1       7.418  -0.226  -0.054  0.00  0.00    +0.159 HD
ATOM      9  H   UNL     1       8.268  -0.242   1.441  0.00  0.00    +0.159 HD
ENDROOT
BRANCH   1  10
ATOM     10  C   UNL     1       4.990   0.472  -0.515  0.00  0.00    +0.151 C 
BRANCH  10  11
ATOM     11  C   UNL     1       4.493   1.781  -1.064  0.00  0.00    -0.028 A 
ATOM     12  C   UNL     1       4.891   2.216  -2.337  0.00  0.00    +0.005 A 
ATOM     13  C   UNL     1       3.621   2.589  -0.319  0.00  0.00    +0.005 A 
ATOM     14  C   UNL     1       4.406   3.417  -2.860  0.00  0.00    +0.000 A 
ATOM     15  C   UNL     1       3.140   3.788  -0.844  0.00  0.00    +0.000 A 
ATOM     16  C   UNL     1       3.531   4.201  -2.115  0.00  0.00    +0.000 A 
ENDBRANCH  10  11
ENDBRANCH   1  10
TORSDOF 2
ENDMDL
MODEL 2
REMARK VINA RESULT:    -5.436      2.023      2.780
REMARK INTER + INTRA:          -6.211
REMARK INTER:                  -6.055
REMARK INTRA:                  -0.156
REMARK UNBOUND:                -0.139
REMARK  Name = 1550473
REMARK  2 active torsions:
REMARK  status: ('A' for Active; 'I' for Inactive)
REMARK    1  A    between atoms: N_1  and  C_4
REMARK    2  A    between atoms: C_4  and  C_5
REMARK                            x       y       z     vdW  Elec       q    Type
REMARK                         _______ _______ _______ _____ _____    ______ ____
ROOT
ATOM      1  N   UNL     1       7.440   1.853  -0.261  0.00  0.00    -0.354 N 
ATOM      2  N   UNL     1       9.640   2.239  -0.875  0.00  0.00    -0.372 N 
ATOM      3  N   UNL     1       8.504   0.502  -1.853  0.00  0.00    -0.372 N 
ATOM      4  C   UNL     1       8.513   1.527  -0.993  0.00  0.00    +0.166 C 
ATOM      5  H   UNL     1       7.521   2.622   0.395  0.00  0.00    +0.163 HD
ATOM      6  H   UNL     1      10.464   2.019  -1.417  0.00  0.00    +0.159 HD
ATOM      7  H   UNL     1       9.703   3.036  -0.252  0.00  0.00    +0.159 HD
ATOM      8  H   UNL     1       7.687  -0.079  -1.985  0.00  0.00    +0.159 HD
ATOM      9  H   UNL     1       9.323   0.258  -2.396  0.00  0.00    +0.159 HD
ENDROOT
BRANCH   1  10
ATOM     10  C   UNL     1       6.149   1.175  -0.354  0.00  0.00    +0.151 C 
BRANCH  10  11
ATOM     11  C   UNL     1       5.106   2.163  -0.799  0.00  0.00    -0.028 A 
ATOM     12  C   UNL     1       4.106   2.590   0.087  0.00  0.00    +0.005 A 
ATOM     13  C   UNL     1       5.117   2.682  -2.103  0.00  0.00    +0.005 A 
ATOM     14  C   UNL     1       3.155   3.530  -0.316  0.00  0.00    +0.000 A 
ATOM     15  C   UNL     1       4.165   3.620  -2.502  0.00  0.00    +0.000 A 
ATOM     16  C   UNL     1       3.186   4.046  -1.607  0.00  0.00    +0.000 A 
ENDBRANCH  10  11
ENDBRANCH   1  10
TORSDOF 2
ENDMDL
MODEL 3
REMARK VINA RESULT:    -5.110     22.519     23.890
REMARK INTER + INTRA:          -5.846
REMARK INTER:                  -5.683
REMARK INTRA:                  -0.163
REMARK UNBOUND:                -0.139
REMARK  Name = 1550473
REMARK  2 active torsions:
REMARK  status: ('A' for Active; 'I' for Inactive)
REMARK    1  A    between atoms: N_1  and  C_4
REMARK    2  A    between atoms: C_4  and  C_5
REMARK                            x       y       z     vdW  Elec       q    Type
REMARK                         _______ _______ _______ _____ _____    ______ ____
ROOT
ATOM      1  N   UNL     1     -12.950   0.939 -17.615  0.00  0.00    -0.354 N 
ATOM      2  N   UNL     1     -14.006  -0.590 -16.231  0.00  0.00    -0.372 N 
ATOM      3  N   UNL     1     -11.770  -0.175 -15.924  0.00  0.00    -0.372 N 
ATOM      4  C   UNL     1     -12.899   0.068 -16.598  0.00  0.00    +0.166 C 
ATOM      5  H   UNL     1     -13.830   1.055 -18.105  0.00  0.00    +0.163 HD
ATOM      6  H   UNL     1     -13.999  -1.250 -15.465  0.00  0.00    +0.159 HD
ATOM      7  H   UNL     1     -14.894  -0.437 -16.693  0.00  0.00    +0.159 HD
ATOM      8  H   UNL     1     -10.899   0.284 -16.155  0.00  0.00    +0.159 HD
ATOM      9  H   UNL     1     -11.740  -0.841 -15.162  0.00  0.00    +0.159 HD
ENDROOT
BRANCH   1  10
ATOM     10  C   UNL     1     -11.815   1.745 -18.059  0.00  0.00    +0.151 C 
BRANCH  10  11
ATOM     11  C   UNL     1     -11.809   3.044 -17.301  0.00  0.00    -0.028 A 
ATOM     12  C   UNL     1     -12.931   3.886 -17.323  0.00  0.00    +0.005 A 
ATOM     13  C   UNL     1     -10.687   3.437 -16.555  0.00  0.00    +0.005 A 
ATOM     14  C   UNL     1     -12.938   5.078 -16.595  0.00  0.00    +0.000 A 
ATOM     15  C   UNL     1     -10.697   4.629 -15.831  0.00  0.00    +0.000 A 
ATOM     16  C   UNL     1     -11.824   5.448 -15.849  0.00  0.00    +0.000 A 
ENDBRANCH  10  11
ENDBRANCH   1  10
TORSDOF 2
ENDMDL
MODEL 4
REMARK VINA RESULT:    -5.090     14.932     16.135
REMARK INTER + INTRA:          -5.824
REMARK INTER:                  -5.729
REMARK INTRA:                  -0.096
REMARK UNBOUND:                -0.139
REMARK  Name = 1550473
REMARK  2 active torsions:
REMARK  status: ('A' for Active; 'I' for Inactive)
REMARK    1  A    between atoms: N_1  and  C_4
REMARK    2  A    between atoms: C_4  and  C_5
REMARK                            x       y       z     vdW  Elec       q    Type
REMARK                         _______ _______ _______ _____ _____    ______ ____
ROOT
ATOM      1  N   UNL     1      -8.507   5.211   5.325  0.00  0.00    -0.354 N 
ATOM      2  N   UNL     1      -7.793   7.165   4.308  0.00  0.00    -0.372 N 
ATOM      3  N   UNL     1      -9.534   6.000   3.372  0.00  0.00    -0.372 N 
ATOM      4  C   UNL     1      -8.618   6.112   4.340  0.00  0.00    +0.166 C 
ATOM      5  H   UNL     1      -7.772   5.337   6.012  0.00  0.00    +0.163 HD
ATOM      6  H   UNL     1      -7.855   7.863   3.579  0.00  0.00    +0.159 HD
ATOM      7  H   UNL     1      -7.089   7.313   5.021  0.00  0.00    +0.159 HD
ATOM      8  H   UNL     1     -10.183   5.225   3.336  0.00  0.00    +0.159 HD
ATOM      9  H   UNL     1      -9.604   6.682   2.627  0.00  0.00    +0.159 HD
ENDROOT
BRANCH   1  10
ATOM     10  C   UNL     1      -9.391   4.057   5.482  0.00  0.00    +0.151 C 
BRANCH  10  11
ATOM     11  C   UNL     1      -9.042   3.340   6.757  0.00  0.00    -0.028 A 
ATOM     12  C   UNL     1      -7.819   2.666   6.883  0.00  0.00    +0.005 A 
ATOM     13  C   UNL     1      -9.929   3.336   7.845  0.00  0.00    +0.005 A 
ATOM     14  C   UNL     1      -7.482   2.025   8.077  0.00  0.00    +0.000 A 
ATOM     15  C   UNL     1      -9.588   2.695   9.036  0.00  0.00    +0.000 A 
ATOM     16  C   UNL     1      -8.364   2.042   9.152  0.00  0.00    +0.000 A 
ENDBRANCH  10  11
ENDBRANCH   1  10
TORSDOF 2
ENDMDL
MODEL 5
REMARK VINA RESULT:    -5.080     14.705     15.640
REMARK INTER + INTRA:          -5.813
REMARK INTER:                  -5.705
REMARK INTRA:                  -0.107
REMARK UNBOUND:                -0.139
REMARK  Name = 1550473
REMARK  2 active torsions:
REMARK  status: ('A' for Active; 'I' for Inactive)
REMARK    1  A    between atoms: N_1  and  C_4
REMARK    2  A    between atoms: C_4  and  C_5
REMARK                            x       y       z     vdW  Elec       q    Type
REMARK                         _______ _______ _______ _____ _____    ______ ____
ROOT
ATOM      1  N   UNL     1      -9.076   5.149   4.303  0.00  0.00    -0.354 N 
ATOM      2  N   UNL     1      -8.514   6.239   2.338  0.00  0.00    -0.372 N 
ATOM      3  N   UNL     1      -7.829   7.133   4.337  0.00  0.00    -0.372 N 
ATOM      4  C   UNL     1      -8.475   6.168   3.674  0.00  0.00    +0.166 C 
ATOM      5  H   UNL     1      -9.575   4.466   3.745  0.00  0.00    +0.163 HD
ATOM      6  H   UNL     1      -8.067   6.994   1.836  0.00  0.00    +0.159 HD
ATOM      7  H   UNL     1      -8.975   5.530   1.780  0.00  0.00    +0.159 HD
ATOM      8  H   UNL     1      -7.768   7.141   5.347  0.00  0.00    +0.159 HD
ATOM      9  H   UNL     1      -7.385   7.903   3.853  0.00  0.00    +0.159 HD
ENDROOT
BRANCH   1  10
ATOM     10  C   UNL     1      -9.047   4.951   5.751  0.00  0.00    +0.151 C 
BRANCH  10  11
ATOM     11  C   UNL     1      -8.906   3.483   6.043  0.00  0.00    -0.028 A 
ATOM     12  C   UNL     1      -9.900   2.578   5.644  0.00  0.00    +0.005 A 
ATOM     13  C   UNL     1      -7.776   2.988   6.714  0.00  0.00    +0.005 A 
ATOM     14  C   UNL     1      -9.756   1.210   5.888  0.00  0.00    +0.000 A 
ATOM     15  C   UNL     1      -7.636   1.622   6.957  0.00  0.00    +0.000 A 
ATOM     16  C   UNL     1      -8.625   0.733   6.542  0.00  0.00    +0.000 A 
ENDBRANCH  10  11
ENDBRANCH   1  10
TORSDOF 2
ENDMDL
MODEL 6
REMARK VINA RESULT:    -5.008     15.530     16.523
REMARK INTER + INTRA:          -5.733
REMARK INTER:                  -5.550
REMARK INTRA:                  -0.183
REMARK UNBOUND:                -0.139
REMARK  Name = 1550473
REMARK  2 active torsions:
REMARK  status: ('A' for Active; 'I' for Inactive)
REMARK    1  A    between atoms: N_1  and  C_4
REMARK    2  A    between atoms: C_4  and  C_5
REMARK                            x       y       z     vdW  Elec       q    Type
REMARK                         _______ _______ _______ _____ _____    ______ ____
ROOT
ATOM      1  N   UNL     1      -8.184   0.927   8.316  0.00  0.00    -0.354 N 
ATOM      2  N   UNL     1      -7.459   2.615   9.726  0.00  0.00    -0.372 N 
ATOM      3  N   UNL     1      -7.095   2.822   7.469  0.00  0.00    -0.372 N 
ATOM      4  C   UNL     1      -7.583   2.111   8.492  0.00  0.00    +0.166 C 
ATOM      5  H   UNL     1      -8.506   0.424   9.135  0.00  0.00    +0.163 HD
ATOM      6  H   UNL     1      -7.013   3.508   9.889  0.00  0.00    +0.159 HD
ATOM      7  H   UNL     1      -7.822   2.131  10.538  0.00  0.00    +0.159 HD
ATOM      8  H   UNL     1      -7.152   2.494   6.514  0.00  0.00    +0.159 HD
ATOM      9  H   UNL     1      -6.635   3.712   7.614  0.00  0.00    +0.159 HD
ENDROOT
BRANCH   1  10
ATOM     10  C   UNL     1      -8.418   0.315   7.009  0.00  0.00    +0.151 C 
BRANCH  10  11
ATOM     11  C   UNL     1      -9.820   0.629   6.563  0.00  0.00    -0.028 A 
ATOM     12  C   UNL     1     -10.919   0.019   7.186  0.00  0.00    +0.005 A 
ATOM     13  C   UNL     1     -10.057   1.541   5.523  0.00  0.00    +0.005 A 
ATOM     14  C   UNL     1     -12.222   0.333   6.793  0.00  0.00    +0.000 A 
ATOM     15  C   UNL     1     -11.359   1.851   5.133  0.00  0.00    +0.000 A 
ATOM     16  C   UNL     1     -12.442   1.249   5.770  0.00  0.00    +0.000 A 
ENDBRANCH  10  11
ENDBRANCH   1  10
TORSDOF 2
ENDMDL
MODEL 7
REMARK VINA RESULT:    -4.884      6.589      7.626
REMARK INTER + INTRA:          -5.594
REMARK INTER:                  -5.445
REMARK INTRA:                  -0.148
REMARK UNBOUND:                -0.139
REMARK  Name = 1550473
REMARK  2 active torsions:
REMARK  status: ('A' for Active; 'I' for Inactive)
REMARK    1  A    between atoms: N_1  and  C_4
REMARK    2  A    between atoms: C_4  and  C_5
REMARK                            x       y       z     vdW  Elec       q    Type
REMARK                         _______ _______ _______ _____ _____    ______ ____
ROOT
ATOM      1  N   UNL     1       5.801  -4.892   1.051  0.00  0.00    -0.354 N 
ATOM      2  N   UNL     1       3.615  -4.388   0.474  0.00  0.00    -0.372 N 
ATOM      3  N   UNL     1       4.856  -5.713  -0.930  0.00  0.00    -0.372 N 
ATOM      4  C   UNL     1       4.772  -5.003   0.200  0.00  0.00    +0.166 C 
ATOM      5  H   UNL     1       5.683  -4.314   1.875  0.00  0.00    +0.163 HD
ATOM      6  H   UNL     1       2.821  -4.457  -0.148  0.00  0.00    +0.159 HD
ATOM      7  H   UNL     1       3.486  -3.849   1.321  0.00  0.00    +0.159 HD
ATOM      8  H   UNL     1       5.703  -6.196  -1.197  0.00  0.00    +0.159 HD
ATOM      9  H   UNL     1       4.075  -5.784  -1.571  0.00  0.00    +0.159 HD
ENDROOT
BRANCH   1  10
ATOM     10  C   UNL     1       7.086  -5.565   0.873  0.00  0.00    +0.151 C 
BRANCH  10  11
ATOM     11  C   UNL     1       8.021  -4.650   0.131  0.00  0.00    -0.028 A 
ATOM     12  C   UNL     1       8.089  -3.287   0.455  0.00  0.00    +0.005 A 
ATOM     13  C   UNL     1       8.846  -5.141  -0.893  0.00  0.00    +0.005 A 
ATOM     14  C   UNL     1       8.979  -2.443  -0.213  0.00  0.00    +0.000 A 
ATOM     15  C   UNL     1       9.732  -4.294  -1.558  0.00  0.00    +0.000 A 
ATOM     16  C   UNL     1       9.800  -2.946  -1.217  0.00  0.00    +0.000 A 
ENDBRANCH  10  11
ENDBRANCH   1  10
TORSDOF 2
ENDMDL
MODEL 8
REMARK VINA RESULT:    -4.810     15.340     15.833
REMARK INTER + INTRA:          -5.512
REMARK INTER:                  -5.399
REMARK INTRA:                  -0.113
REMARK UNBOUND:                -0.139
REMARK  Name = 1550473
REMARK  2 active torsions:
REMARK  status: ('A' for Active; 'I' for Inactive)
REMARK    1  A    between atoms: N_1  and  C_4
REMARK    2  A    between atoms: C_4  and  C_5
REMARK                            x       y       z     vdW  Elec       q    Type
REMARK                         _______ _______ _______ _____ _____    ______ ____
ROOT
ATOM      1  N   UNL     1      -8.610   2.979   7.599  0.00  0.00    -0.354 N 
ATOM      2  N   UNL     1      -7.688   2.657   9.699  0.00  0.00    -0.372 N 
ATOM      3  N   UNL     1      -8.809   0.921   8.701  0.00  0.00    -0.372 N 
ATOM      4  C   UNL     1      -8.377   2.185   8.652  0.00  0.00    +0.166 C 
ATOM      5  H   UNL     1      -8.282   3.937   7.636  0.00  0.00    +0.163 HD
ATOM      6  H   UNL     1      -7.494   2.080  10.506  0.00  0.00    +0.159 HD
ATOM      7  H   UNL     1      -7.321   3.601   9.714  0.00  0.00    +0.159 HD
ATOM      8  H   UNL     1      -9.339   0.507   7.947  0.00  0.00    +0.159 HD
ATOM      9  H   UNL     1      -8.634   0.332   9.506  0.00  0.00    +0.159 HD
ENDROOT
BRANCH   1  10
ATOM     10  C   UNL     1      -9.303   2.547   6.387  0.00  0.00    +0.151 C 
BRANCH  10  11
ATOM     11  C   UNL     1      -9.585   3.748   5.527  0.00  0.00    -0.028 A 
ATOM     12  C   UNL     1      -8.672   4.810   5.465  0.00  0.00    +0.005 A 
ATOM     13  C   UNL     1     -10.763   3.827   4.767  0.00  0.00    +0.005 A 
ATOM     14  C   UNL     1      -8.920   5.912   4.644  0.00  0.00    +0.000 A 
ATOM     15  C   UNL     1     -11.007   4.930   3.949  0.00  0.00    +0.000 A 
ATOM     16  C   UNL     1     -10.084   5.971   3.885  0.00  0.00    +0.000 A 
ENDBRANCH  10  11
ENDBRANCH   1  10
TORSDOF 2
ENDMDL
MODEL 9
REMARK VINA RESULT:    -4.697     15.368     17.044
REMARK INTER + INTRA:          -5.386
REMARK INTER:                  -5.216
REMARK INTRA:                  -0.170
REMARK UNBOUND:                -0.139
REMARK  Name = 1550473
REMARK  2 active torsions:
REMARK  status: ('A' for Active; 'I' for Inactive)
REMARK    1  A    between atoms: N_1  and  C_4
REMARK    2  A    between atoms: C_4  and  C_5
REMARK                            x       y       z     vdW  Elec       q    Type
REMARK                         _______ _______ _______ _____ _____    ______ ____
ROOT
ATOM      1  N   UNL     1       0.559  11.040 -11.698  0.00  0.00    -0.354 N 
ATOM      2  N   UNL     1       2.153   9.528 -12.432  0.00  0.00    -0.372 N 
ATOM      3  N   UNL     1       2.254  11.696 -13.177  0.00  0.00    -0.372 N 
ATOM      4  C   UNL     1       1.645  10.767 -12.432  0.00  0.00    +0.166 C 
ATOM      5  H   UNL     1       0.127  10.284 -11.179  0.00  0.00    +0.163 HD
ATOM      6  H   UNL     1       2.973   9.293 -12.974  0.00  0.00    +0.159 HD
ATOM      7  H   UNL     1       1.746   8.786 -11.876  0.00  0.00    +0.159 HD
ATOM      8  H   UNL     1       1.917  12.648 -13.225  0.00  0.00    +0.159 HD
ATOM      9  H   UNL     1       3.069  11.477 -13.735  0.00  0.00    +0.159 HD
ENDROOT
BRANCH   1  10
ATOM     10  C   UNL     1      -0.041  12.368 -11.587  0.00  0.00    +0.151 C 
BRANCH  10  11
ATOM     11  C   UNL     1      -1.377  12.364 -12.277  0.00  0.00    -0.028 A 
ATOM     12  C   UNL     1      -2.562  12.271 -11.533  0.00  0.00    +0.005 A 
ATOM     13  C   UNL     1      -1.464  12.458 -13.674  0.00  0.00    +0.005 A 
ATOM     14  C   UNL     1      -3.804  12.297 -12.171  0.00  0.00    +0.000 A 
ATOM     15  C   UNL     1      -2.707  12.483 -14.308  0.00  0.00    +0.000 A 
ATOM     16  C   UNL     1      -3.876  12.405 -13.556  0.00  0.00    +0.000 A 
ENDBRANCH  10  11
ENDBRANCH   1  10
TORSDOF 2
ENDMDL
