MODEL 1
REMARK VINA RESULT:    -6.116      0.000      0.000
REMARK INTER + INTRA:          -6.904
REMARK INTER:                  -6.831
REMARK INTRA:                  -0.073
REMARK UNBOUND:                -0.073
REMARK  Name = 1550473
REMARK  2 active torsions:
REMARK  status: ('A' for Active; 'I' for Inactive)
REMARK    1  A    between atoms: N_1  and  C_4
REMARK    2  A    between atoms: C_4  and  C_5
REMARK                            x       y       z     vdW  Elec       q    Type
REMARK                         _______ _______ _______ _____ _____    ______ ____
ROOT
ATOM      1  N   UNL     1       1.524  -1.384  -2.585  0.00  0.00    -0.354 N 
ATOM      2  N   UNL     1       0.193  -2.862  -1.399  0.00  0.00    -0.372 N 
ATOM      3  N   UNL     1       2.397  -2.628  -0.802  0.00  0.00    -0.372 N 
ATOM      4  C   UNL     1       1.382  -2.282  -1.602  0.00  0.00    +0.166 C 
ATOM      5  H   UNL     1       0.724  -1.187  -3.176  0.00  0.00    +0.163 HD
ATOM      6  H   UNL     1       0.055  -3.541  -0.662  0.00  0.00    +0.159 HD
ATOM      7  H   UNL     1      -0.616  -2.630  -1.961  0.00  0.00    +0.159 HD
ATOM      8  H   UNL     1       3.321  -2.232  -0.907  0.00  0.00    +0.159 HD
ATOM      9  H   UNL     1       2.281  -3.315  -0.067  0.00  0.00    +0.159 HD
ENDROOT
BRANCH   1  10
ATOM     10  C   UNL     1       2.762  -0.656  -2.856  0.00  0.00    +0.151 C 
BRANCH  10  11
ATOM     11  C   UNL     1       2.576   0.788  -2.478  0.00  0.00    -0.028 A 
ATOM     12  C   UNL     1       1.497   1.179  -1.671  0.00  0.00    +0.005 A 
ATOM     13  C   UNL     1       3.477   1.769  -2.919  0.00  0.00    +0.005 A 
ATOM     14  C   UNL     1       1.340   2.515  -1.295  0.00  0.00    +0.000 A 
ATOM     15  C   UNL     1       3.316   3.102  -2.542  0.00  0.00    +0.000 A 
ATOM     16  C   UNL     1       2.249   3.475  -1.728  0.00  0.00    +0.000 A 
ENDBRANCH  10  11
ENDBRANCH   1  10
TORSDOF 2
ENDMDL
MODEL 2
REMARK VINA RESULT:    -5.770      1.567      1.918
REMARK INTER + INTRA:          -6.518
REMARK INTER:                  -6.379
REMARK INTRA:                  -0.139
REMARK UNBOUND:                -0.073
REMARK  Name = 1550473
REMARK  2 active torsions:
REMARK  status: ('A' for Active; 'I' for Inactive)
REMARK    1  A    between atoms: N_1  and  C_4
REMARK    2  A    between atoms: C_4  and  C_5
REMARK                            x       y       z     vdW  Elec       q    Type
REMARK                         _______ _______ _______ _____ _____    ______ ____
ROOT
ATOM      1  N   UNL     1       2.880  -0.858  -3.050  0.00  0.00    -0.354 N 
ATOM      2  N   UNL     1       4.374  -2.451  -3.823  0.00  0.00    -0.372 N 
ATOM      3  N   UNL     1       3.846  -2.417  -1.590  0.00  0.00    -0.372 N 
ATOM      4  C   UNL     1       3.690  -1.899  -2.813  0.00  0.00    +0.166 C 
ATOM      5  H   UNL     1       2.829  -0.493  -3.994  0.00  0.00    +0.163 HD
ATOM      6  H   UNL     1       4.990  -3.239  -3.675  0.00  0.00    +0.159 HD
ATOM      7  H   UNL     1       4.286  -2.113  -4.773  0.00  0.00    +0.159 HD
ATOM      8  H   UNL     1       3.363  -2.042  -0.784  0.00  0.00    +0.159 HD
ATOM      9  H   UNL     1       4.467  -3.198  -1.420  0.00  0.00    +0.159 HD
ENDROOT
BRANCH   1  10
ATOM     10  C   UNL     1       2.051  -0.219  -2.030  0.00  0.00    +0.151 C 
BRANCH  10  11
ATOM     11  C   UNL     1       2.304   1.263  -2.049  0.00  0.00    -0.028 A 
ATOM     12  C   UNL     1       1.429   2.144  -1.396  0.00  0.00    +0.005 A 
ATOM     13  C   UNL     1       3.420   1.793  -2.714  0.00  0.00    +0.005 A 
ATOM     14  C   UNL     1       1.680   3.518  -1.388  0.00  0.00    +0.000 A 
ATOM     15  C   UNL     1       3.667   3.166  -2.704  0.00  0.00    +0.000 A 
ATOM     16  C   UNL     1       2.798   4.028  -2.039  0.00  0.00    +0.000 A 
ENDBRANCH  10  11
ENDBRANCH   1  10
TORSDOF 2
ENDMDL
MODEL 3
REMARK VINA RESULT:    -5.333     24.119     25.076
REMARK INTER + INTRA:          -6.030
REMARK INTER:                  -5.907
REMARK INTRA:                  -0.123
REMARK UNBOUND:                -0.073
REMARK  Name = 1550473
REMARK  2 active torsions:
REMARK  status: ('A' for Active; 'I' for Inactive)
REMARK    1  A    between atoms: N_1  and  C_4
REMARK    2  A    between atoms: C_4  and  C_5
REMARK                            x       y       z     vdW  Elec       q    Type
REMARK                         _______ _______ _______ _____ _____    ______ ____
ROOT
ATOM      1  N   UNL     1       6.223  -7.014  22.040  0.00  0.00    -0.354 N 
ATOM      2  N   UNL     1       7.306  -8.957  22.684  0.00  0.00    -0.372 N 
ATOM      3  N   UNL     1       6.226  -8.909  20.660  0.00  0.00    -0.372 N 
ATOM      4  C   UNL     1       6.577  -8.282  21.788  0.00  0.00    +0.166 C 
ATOM      5  H   UNL     1       6.494  -6.606  22.927  0.00  0.00    +0.163 HD
ATOM      6  H   UNL     1       7.591  -9.914  22.520  0.00  0.00    +0.159 HD
ATOM      7  H   UNL     1       7.615  -8.532  23.549  0.00  0.00    +0.159 HD
ATOM      8  H   UNL     1       5.671  -8.456  19.946  0.00  0.00    +0.159 HD
ATOM      9  H   UNL     1       6.492  -9.869  20.483  0.00  0.00    +0.159 HD
ENDROOT
BRANCH   1  10
ATOM     10  C   UNL     1       5.475  -6.173  21.107  0.00  0.00    +0.151 C 
BRANCH  10  11
ATOM     11  C   UNL     1       5.132  -4.875  21.782  0.00  0.00    -0.028 A 
ATOM     12  C   UNL     1       5.285  -4.731  23.169  0.00  0.00    +0.005 A 
ATOM     13  C   UNL     1       4.660  -3.781  21.040  0.00  0.00    +0.005 A 
ATOM     14  C   UNL     1       4.995  -3.516  23.793  0.00  0.00    +0.000 A 
ATOM     15  C   UNL     1       4.371  -2.569  21.667  0.00  0.00    +0.000 A 
ATOM     16  C   UNL     1       4.541  -2.436  23.043  0.00  0.00    +0.000 A 
ENDBRANCH  10  11
ENDBRANCH   1  10
TORSDOF 2
ENDMDL
MODEL 4
REMARK VINA RESULT:    -5.279      5.713      7.207
REMARK INTER + INTRA:          -5.970
REMARK INTER:                  -5.835
REMARK INTRA:                  -0.135
REMARK UNBOUND:                -0.073
REMARK  Name = 1550473
REMARK  2 active torsions:
REMARK  status: ('A' for Active; 'I' for Inactive)
REMARK    1  A    between atoms: N_1  and  C_4
REMARK    2  A    between atoms: C_4  and  C_5
REMARK                            x       y       z     vdW  Elec       q    Type
REMARK                         _______ _______ _______ _____ _____    ______ ____
ROOT
ATOM      1  N   UNL     1       1.883   5.195  -6.999  0.00  0.00    -0.354 N 
ATOM      2  N   UNL     1      -0.180   5.746  -7.896  0.00  0.00    -0.372 N 
ATOM      3  N   UNL     1       1.316   7.425  -7.442  0.00  0.00    -0.372 N 
ATOM      4  C   UNL     1       1.021   6.121  -7.439  0.00  0.00    +0.166 C 
ATOM      5  H   UNL     1       1.587   4.226  -6.995  0.00  0.00    +0.163 HD
ATOM      6  H   UNL     1      -0.850   6.422  -8.237  0.00  0.00    +0.159 HD
ATOM      7  H   UNL     1      -0.456   4.773  -7.933  0.00  0.00    +0.159 HD
ATOM      8  H   UNL     1       2.204   7.774  -7.105  0.00  0.00    +0.159 HD
ATOM      9  H   UNL     1       0.655   8.118  -7.769  0.00  0.00    +0.159 HD
ENDROOT
BRANCH   1  10
ATOM     10  C   UNL     1       3.236   5.493  -6.532  0.00  0.00    +0.151 C 
BRANCH  10  11
ATOM     11  C   UNL     1       3.475   4.777  -5.232  0.00  0.00    -0.028 A 
ATOM     12  C   UNL     1       4.431   3.754  -5.148  0.00  0.00    +0.005 A 
ATOM     13  C   UNL     1       2.754   5.121  -4.078  0.00  0.00    +0.005 A 
ATOM     14  C   UNL     1       4.675   3.109  -3.934  0.00  0.00    +0.000 A 
ATOM     15  C   UNL     1       3.000   4.474  -2.868  0.00  0.00    +0.000 A 
ATOM     16  C   UNL     1       3.963   3.469  -2.795  0.00  0.00    +0.000 A 
ENDBRANCH  10  11
ENDBRANCH   1  10
TORSDOF 2
ENDMDL
MODEL 5
REMARK VINA RESULT:    -4.873     24.813     25.759
REMARK INTER + INTRA:          -5.516
REMARK INTER:                  -5.391
REMARK INTRA:                  -0.125
REMARK UNBOUND:                -0.073
REMARK  Name = 1550473
REMARK  2 active torsions:
REMARK  status: ('A' for Active; 'I' for Inactive)
REMARK    1  A    between atoms: N_1  and  C_4
REMARK    2  A    between atoms: C_4  and  C_5
REMARK                            x       y       z     vdW  Elec       q    Type
REMARK                         _______ _______ _______ _____ _____    ______ ____
ROOT
ATOM      1  N   UNL     1       6.554  -6.512  23.412  0.00  0.00    -0.354 N 
ATOM      2  N   UNL     1       7.692  -7.842  24.929  0.00  0.00    -0.372 N 
ATOM      3  N   UNL     1       6.508  -8.849  23.241  0.00  0.00    -0.372 N 
ATOM      4  C   UNL     1       6.909  -7.727  23.849  0.00  0.00    +0.166 C 
ATOM      5  H   UNL     1       6.866  -5.702  23.935  0.00  0.00    +0.163 HD
ATOM      6  H   UNL     1       7.980  -8.745  25.280  0.00  0.00    +0.159 HD
ATOM      7  H   UNL     1       8.041  -7.029  25.423  0.00  0.00    +0.159 HD
ATOM      8  H   UNL     1       5.911  -8.831  22.425  0.00  0.00    +0.159 HD
ATOM      9  H   UNL     1       6.775  -9.763  23.585  0.00  0.00    +0.159 HD
ENDROOT
BRANCH   1  10
ATOM     10  C   UNL     1       5.749  -6.277  22.215  0.00  0.00    +0.151 C 
BRANCH  10  11
ATOM     11  C   UNL     1       5.287  -4.845  22.207  0.00  0.00    -0.028 A 
ATOM     12  C   UNL     1       4.625  -4.317  21.089  0.00  0.00    +0.005 A 
ATOM     13  C   UNL     1       5.505  -4.014  23.316  0.00  0.00    +0.005 A 
ATOM     14  C   UNL     1       4.169  -2.997  21.093  0.00  0.00    +0.000 A 
ATOM     15  C   UNL     1       5.049  -2.695  23.316  0.00  0.00    +0.000 A 
ATOM     16  C   UNL     1       4.380  -2.188  22.205  0.00  0.00    +0.000 A 
ENDBRANCH  10  11
ENDBRANCH   1  10
TORSDOF 2
ENDMDL
MODEL 6
REMARK VINA RESULT:    -4.835     22.824     23.620
REMARK INTER + INTRA:          -5.474
REMARK INTER:                  -5.341
REMARK INTRA:                  -0.132
REMARK UNBOUND:                -0.073
REMARK  Name = 1550473
REMARK  2 active torsions:
REMARK  status: ('A' for Active; 'I' for Inactive)
REMARK    1  A    between atoms: N_1  and  C_4
REMARK    2  A    between atoms: C_4  and  C_5
REMARK                            x       y       z     vdW  Elec       q    Type
REMARK                         _______ _______ _______ _____ _____    ______ ____
ROOT
ATOM      1  N   UNL     1     -13.939   5.261  13.763  0.00  0.00    -0.354 N 
ATOM      2  N   UNL     1     -14.248   3.463  15.190  0.00  0.00    -0.372 N 
ATOM      3  N   UNL     1     -15.663   3.716  13.402  0.00  0.00    -0.372 N 
ATOM      4  C   UNL     1     -14.617   4.158  14.107  0.00  0.00    +0.166 C 
ATOM      5  H   UNL     1     -13.174   5.560  14.357  0.00  0.00    +0.163 HD
ATOM      6  H   UNL     1     -14.738   2.625  15.472  0.00  0.00    +0.159 HD
ATOM      7  H   UNL     1     -13.454   3.738  15.755  0.00  0.00    +0.159 HD
ATOM      8  H   UNL     1     -15.996   4.199  12.578  0.00  0.00    +0.159 HD
ATOM      9  H   UNL     1     -16.174   2.886  13.675  0.00  0.00    +0.159 HD
ENDROOT
BRANCH   1  10
ATOM     10  C   UNL     1     -14.226   6.059  12.573  0.00  0.00    +0.151 C 
BRANCH  10  11
ATOM     11  C   UNL     1     -14.256   7.514  12.953  0.00  0.00    -0.028 A 
ATOM     12  C   UNL     1     -13.462   7.992  14.006  0.00  0.00    +0.005 A 
ATOM     13  C   UNL     1     -15.072   8.421  12.259  0.00  0.00    +0.005 A 
ATOM     14  C   UNL     1     -13.468   9.348  14.339  0.00  0.00    +0.000 A 
ATOM     15  C   UNL     1     -15.075   9.775  12.596  0.00  0.00    +0.000 A 
ATOM     16  C   UNL     1     -14.271  10.238  13.635  0.00  0.00    +0.000 A 
ENDBRANCH  10  11
ENDBRANCH   1  10
TORSDOF 2
ENDMDL
MODEL 7
REMARK VINA RESULT:    -4.618      8.070      9.343
REMARK INTER + INTRA:          -5.232
REMARK INTER:                  -5.083
REMARK INTRA:                  -0.149
REMARK UNBOUND:                -0.073
REMARK  Name = 1550473
REMARK  2 active torsions:
REMARK  status: ('A' for Active; 'I' for Inactive)
REMARK    1  A    between atoms: N_1  and  C_4
REMARK    2  A    between atoms: C_4  and  C_5
REMARK                            x       y       z     vdW  Elec       q    Type
REMARK                         _______ _______ _______ _____ _____    ______ ____
ROOT
ATOM      1  N   UNL     1       1.683   6.275  -9.108  0.00  0.00    -0.354 N 
ATOM      2  N   UNL     1       1.058   8.487  -8.825  0.00  0.00    -0.372 N 
ATOM      3  N   UNL     1       1.298   7.156  -6.971  0.00  0.00    -0.372 N 
ATOM      4  C   UNL     1       1.350   7.291  -8.301  0.00  0.00    +0.166 C 
ATOM      5  H   UNL     1       1.675   6.433 -10.109  0.00  0.00    +0.163 HD
ATOM      6  H   UNL     1       0.807   9.273  -8.241  0.00  0.00    +0.159 HD
ATOM      7  H   UNL     1       1.095   8.654  -9.823  0.00  0.00    +0.159 HD
ATOM      8  H   UNL     1       1.501   6.278  -6.513  0.00  0.00    +0.159 HD
ATOM      9  H   UNL     1       1.037   7.928  -6.370  0.00  0.00    +0.159 HD
ENDROOT
BRANCH   1  10
ATOM     10  C   UNL     1       2.071   4.947  -8.635  0.00  0.00    +0.151 C 
BRANCH  10  11
ATOM     11  C   UNL     1       3.555   4.926  -8.392  0.00  0.00    -0.028 A 
ATOM     12  C   UNL     1       4.453   5.048  -9.463  0.00  0.00    +0.005 A 
ATOM     13  C   UNL     1       4.069   4.790  -7.094  0.00  0.00    +0.005 A 
ATOM     14  C   UNL     1       5.831   5.059  -9.235  0.00  0.00    +0.000 A 
ATOM     15  C   UNL     1       5.446   4.801  -6.870  0.00  0.00    +0.000 A 
ATOM     16  C   UNL     1       6.326   4.938  -7.941  0.00  0.00    +0.000 A 
ENDBRANCH  10  11
ENDBRANCH   1  10
TORSDOF 2
ENDMDL
MODEL 8
REMARK VINA RESULT:    -4.599      6.361      7.721
REMARK INTER + INTRA:          -5.210
REMARK INTER:                  -5.093
REMARK INTRA:                  -0.118
REMARK UNBOUND:                -0.073
REMARK  Name = 1550473
REMARK  2 active torsions:
REMARK  status: ('A' for Active; 'I' for Inactive)
REMARK    1  A    between atoms: N_1  and  C_4
REMARK    2  A    between atoms: C_4  and  C_5
REMARK                            x       y       z     vdW  Elec       q    Type
REMARK                         _______ _______ _______ _____ _____    ______ ____
ROOT
ATOM      1  N   UNL     1       1.626   3.133  -9.148  0.00  0.00    -0.354 N 
ATOM      2  N   UNL     1       2.081   4.138 -11.185  0.00  0.00    -0.372 N 
ATOM      3  N   UNL     1       0.748   5.241  -9.677  0.00  0.00    -0.372 N 
ATOM      4  C   UNL     1       1.480   4.166  -9.989  0.00  0.00    +0.166 C 
ATOM      5  H   UNL     1       2.169   2.335  -9.456  0.00  0.00    +0.163 HD
ATOM      6  H   UNL     1       1.992   4.904 -11.839  0.00  0.00    +0.159 HD
ATOM      7  H   UNL     1       2.660   3.359 -11.472  0.00  0.00    +0.159 HD
ATOM      8  H   UNL     1       0.265   5.321  -8.793  0.00  0.00    +0.159 HD
ATOM      9  H   UNL     1       0.638   6.013 -10.323  0.00  0.00    +0.159 HD
ENDROOT
BRANCH   1  10
ATOM     10  C   UNL     1       1.058   3.089  -7.802  0.00  0.00    +0.151 C 
BRANCH  10  11
ATOM     11  C   UNL     1       1.615   1.897  -7.073  0.00  0.00    -0.028 A 
ATOM     12  C   UNL     1       1.655   1.875  -5.671  0.00  0.00    +0.005 A 
ATOM     13  C   UNL     1       2.100   0.785  -7.778  0.00  0.00    +0.005 A 
ATOM     14  C   UNL     1       2.145   0.756  -4.993  0.00  0.00    +0.000 A 
ATOM     15  C   UNL     1       2.589  -0.330  -7.097  0.00  0.00    +0.000 A 
ATOM     16  C   UNL     1       2.609  -0.345  -5.705  0.00  0.00    +0.000 A 
ENDBRANCH  10  11
ENDBRANCH   1  10
TORSDOF 2
ENDMDL
MODEL 9
REMARK VINA RESULT:    -4.549      7.397      8.844
REMARK INTER + INTRA:          -5.154
REMARK INTER:                  -4.976
REMARK INTRA:                  -0.179
REMARK UNBOUND:                -0.073
REMARK  Name = 1550473
REMARK  2 active torsions:
REMARK  status: ('A' for Active; 'I' for Inactive)
REMARK    1  A    between atoms: N_1  and  C_4
REMARK    2  A    between atoms: C_4  and  C_5
REMARK                            x       y       z     vdW  Elec       q    Type
REMARK                         _______ _______ _______ _____ _____    ______ ____
ROOT
ATOM      1  N   UNL     1       1.157   6.144  -9.284  0.00  0.00    -0.354 N 
ATOM      2  N   UNL     1       2.352   8.093  -9.658  0.00  0.00    -0.372 N 
ATOM      3  N   UNL     1       0.805   8.048  -7.964  0.00  0.00    -0.372 N 
ATOM      4  C   UNL     1       1.428   7.417  -8.964  0.00  0.00    +0.166 C 
ATOM      5  H   UNL     1       1.643   5.732 -10.073  0.00  0.00    +0.163 HD
ATOM      6  H   UNL     1       2.580   9.053  -9.437  0.00  0.00    +0.159 HD
ATOM      7  H   UNL     1       2.869   7.664 -10.416  0.00  0.00    +0.159 HD
ATOM      8  H   UNL     1       0.094   7.595  -7.405  0.00  0.00    +0.159 HD
ATOM      9  H   UNL     1       1.011   9.012  -7.735  0.00  0.00    +0.159 HD
ENDROOT
BRANCH   1  10
ATOM     10  C   UNL     1       0.208   5.303  -8.558  0.00  0.00    +0.151 C 
BRANCH  10  11
ATOM     11  C   UNL     1       0.963   4.435  -7.588  0.00  0.00    -0.028 A 
ATOM     12  C   UNL     1       1.555   3.238  -8.016  0.00  0.00    +0.005 A 
ATOM     13  C   UNL     1       1.094   4.808  -6.242  0.00  0.00    +0.005 A 
ATOM     14  C   UNL     1       2.282   2.447  -7.123  0.00  0.00    +0.000 A 
ATOM     15  C   UNL     1       1.819   4.015  -5.353  0.00  0.00    +0.000 A 
ATOM     16  C   UNL     1       2.415   2.836  -5.794  0.00  0.00    +0.000 A 
ENDBRANCH  10  11
ENDBRANCH   1  10
TORSDOF 2
ENDMDL
