MODEL 1
REMARK VINA RESULT:    -5.367      0.000      0.000
REMARK INTER + INTRA:          -6.118
REMARK INTER:                  -5.994
REMARK INTRA:                  -0.124
REMARK UNBOUND:                -0.124
REMARK  Name = 1550473
REMARK  2 active torsions:
REMARK  status: ('A' for Active; 'I' for Inactive)
REMARK    1  A    between atoms: N_1  and  C_4
REMARK    2  A    between atoms: C_4  and  C_5
REMARK                            x       y       z     vdW  Elec       q    Type
REMARK                         _______ _______ _______ _____ _____    ______ ____
ROOT
ATOM      1  N   UNL     1      10.058  16.839   0.192  0.00  0.00    -0.354 N 
ATOM      2  N   UNL     1      10.946  16.587  -1.932  0.00  0.00    -0.372 N 
ATOM      3  N   UNL     1       9.017  17.802  -1.673  0.00  0.00    -0.372 N 
ATOM      4  C   UNL     1       9.999  17.079  -1.124  0.00  0.00    +0.166 C 
ATOM      5  H   UNL     1      10.812  16.259   0.542  0.00  0.00    +0.163 HD
ATOM      6  H   UNL     1      10.929  16.755  -2.929  0.00  0.00    +0.159 HD
ATOM      7  H   UNL     1      11.723  16.046  -1.574  0.00  0.00    +0.159 HD
ATOM      8  H   UNL     1       8.268  18.197  -1.119  0.00  0.00    +0.159 HD
ATOM      9  H   UNL     1       8.976  17.971  -2.671  0.00  0.00    +0.159 HD
ENDROOT
BRANCH   1  10
ATOM     10  C   UNL     1       9.107  17.374   1.165  0.00  0.00    +0.151 C 
BRANCH  10  11
ATOM     11  C   UNL     1       9.150  16.531   2.409  0.00  0.00    -0.028 A 
ATOM     12  C   UNL     1       8.816  17.082   3.655  0.00  0.00    +0.005 A 
ATOM     13  C   UNL     1       9.518  15.178   2.348  0.00  0.00    +0.005 A 
ATOM     14  C   UNL     1       8.826  16.291   4.806  0.00  0.00    +0.000 A 
ATOM     15  C   UNL     1       9.529  14.392   3.500  0.00  0.00    +0.000 A 
ATOM     16  C   UNL     1       9.180  14.948   4.729  0.00  0.00    +0.000 A 
ENDBRANCH  10  11
ENDBRANCH   1  10
TORSDOF 2
ENDMDL
MODEL 2
REMARK VINA RESULT:    -5.277      1.980      3.259
REMARK INTER + INTRA:          -6.018
REMARK INTER:                  -5.845
REMARK INTRA:                  -0.173
REMARK UNBOUND:                -0.124
REMARK  Name = 1550473
REMARK  2 active torsions:
REMARK  status: ('A' for Active; 'I' for Inactive)
REMARK    1  A    between atoms: N_1  and  C_4
REMARK    2  A    between atoms: C_4  and  C_5
REMARK                            x       y       z     vdW  Elec       q    Type
REMARK                         _______ _______ _______ _____ _____    ______ ____
ROOT
ATOM      1  N   UNL     1       8.985  16.218   1.786  0.00  0.00    -0.354 N 
ATOM      2  N   UNL     1       9.450  16.450  -0.471  0.00  0.00    -0.372 N 
ATOM      3  N   UNL     1      10.913  17.335   1.060  0.00  0.00    -0.372 N 
ATOM      4  C   UNL     1       9.782  16.668   0.807  0.00  0.00    +0.166 C 
ATOM      5  H   UNL     1       8.126  15.745   1.528  0.00  0.00    +0.163 HD
ATOM      6  H   UNL     1      10.034  16.774  -1.231  0.00  0.00    +0.159 HD
ATOM      7  H   UNL     1       8.615  15.937  -0.725  0.00  0.00    +0.159 HD
ATOM      8  H   UNL     1      11.216  17.537   2.003  0.00  0.00    +0.159 HD
ATOM      9  H   UNL     1      11.504  17.678   0.313  0.00  0.00    +0.159 HD
ENDROOT
BRANCH   1  10
ATOM     10  C   UNL     1       9.282  16.356   3.211  0.00  0.00    +0.151 C 
BRANCH  10  11
ATOM     11  C   UNL     1       8.556  17.557   3.750  0.00  0.00    -0.028 A 
ATOM     12  C   UNL     1       9.243  18.534   4.485  0.00  0.00    +0.005 A 
ATOM     13  C   UNL     1       7.181  17.727   3.524  0.00  0.00    +0.005 A 
ATOM     14  C   UNL     1       8.575  19.664   4.961  0.00  0.00    +0.000 A 
ATOM     15  C   UNL     1       6.517  18.857   4.002  0.00  0.00    +0.000 A 
ATOM     16  C   UNL     1       7.215  19.826   4.718  0.00  0.00    +0.000 A 
ENDBRANCH  10  11
ENDBRANCH   1  10
TORSDOF 2
ENDMDL
MODEL 3
REMARK VINA RESULT:    -5.216      2.702      5.114
REMARK INTER + INTRA:          -5.950
REMARK INTER:                  -5.820
REMARK INTRA:                  -0.130
REMARK UNBOUND:                -0.124
REMARK  Name = 1550473
REMARK  2 active torsions:
REMARK  status: ('A' for Active; 'I' for Inactive)
REMARK    1  A    between atoms: N_1  and  C_4
REMARK    2  A    between atoms: C_4  and  C_5
REMARK                            x       y       z     vdW  Elec       q    Type
REMARK                         _______ _______ _______ _____ _____    ______ ____
ROOT
ATOM      1  N   UNL     1       9.481  16.104   3.409  0.00  0.00    -0.354 N 
ATOM      2  N   UNL     1      10.141  14.168   4.495  0.00  0.00    -0.372 N 
ATOM      3  N   UNL     1       8.000  14.936   4.800  0.00  0.00    -0.372 N 
ATOM      4  C   UNL     1       9.201  15.082   4.229  0.00  0.00    +0.166 C 
ATOM      5  H   UNL     1      10.419  16.175   3.032  0.00  0.00    +0.163 HD
ATOM      6  H   UNL     1       9.957  13.384   5.106  0.00  0.00    +0.159 HD
ATOM      7  H   UNL     1      11.063  14.216   4.080  0.00  0.00    +0.159 HD
ATOM      8  H   UNL     1       7.249  15.595   4.644  0.00  0.00    +0.159 HD
ATOM      9  H   UNL     1       7.801  14.164   5.424  0.00  0.00    +0.159 HD
ENDROOT
BRANCH   1  10
ATOM     10  C   UNL     1       8.512  17.124   3.012  0.00  0.00    +0.151 C 
BRANCH  10  11
ATOM     11  C   UNL     1       8.817  17.573   1.610  0.00  0.00    -0.028 A 
ATOM     12  C   UNL     1       9.437  16.701   0.702  0.00  0.00    +0.005 A 
ATOM     13  C   UNL     1       8.485  18.867   1.181  0.00  0.00    +0.005 A 
ATOM     14  C   UNL     1       9.694  17.107  -0.609  0.00  0.00    +0.000 A 
ATOM     15  C   UNL     1       8.743  19.269  -0.130  0.00  0.00    +0.000 A 
ATOM     16  C   UNL     1       9.346  18.388  -1.025  0.00  0.00    +0.000 A 
ENDBRANCH  10  11
ENDBRANCH   1  10
TORSDOF 2
ENDMDL
MODEL 4
REMARK VINA RESULT:    -5.176      9.928     11.305
REMARK INTER + INTRA:          -5.905
REMARK INTER:                  -5.762
REMARK INTRA:                  -0.143
REMARK UNBOUND:                -0.124
REMARK  Name = 1550473
REMARK  2 active torsions:
REMARK  status: ('A' for Active; 'I' for Inactive)
REMARK    1  A    between atoms: N_1  and  C_4
REMARK    2  A    between atoms: C_4  and  C_5
REMARK                            x       y       z     vdW  Elec       q    Type
REMARK                         _______ _______ _______ _____ _____    ______ ____
ROOT
ATOM      1  N   UNL     1      12.838   7.861  -6.322  0.00  0.00    -0.354 N 
ATOM      2  N   UNL     1      11.412   6.114  -5.796  0.00  0.00    -0.372 N 
ATOM      3  N   UNL     1      10.721   7.691  -7.312  0.00  0.00    -0.372 N 
ATOM      4  C   UNL     1      11.665   7.235  -6.482  0.00  0.00    +0.166 C 
ATOM      5  H   UNL     1      13.500   7.480  -5.655  0.00  0.00    +0.163 HD
ATOM      6  H   UNL     1      10.537   5.618  -5.898  0.00  0.00    +0.159 HD
ATOM      7  H   UNL     1      12.093   5.710  -5.164  0.00  0.00    +0.159 HD
ATOM      8  H   UNL     1      10.847   8.536  -7.854  0.00  0.00    +0.159 HD
ATOM      9  H   UNL     1       9.834   7.216  -7.419  0.00  0.00    +0.159 HD
ENDROOT
BRANCH   1  10
ATOM     10  C   UNL     1      13.234   9.058  -7.061  0.00  0.00    +0.151 C 
BRANCH  10  11
ATOM     11  C   UNL     1      13.467  10.181  -6.089  0.00  0.00    -0.028 A 
ATOM     12  C   UNL     1      14.162   9.954  -4.892  0.00  0.00    +0.005 A 
ATOM     13  C   UNL     1      13.001  11.477  -6.361  0.00  0.00    +0.005 A 
ATOM     14  C   UNL     1      14.405  11.003  -4.002  0.00  0.00    +0.000 A 
ATOM     15  C   UNL     1      13.245  12.521  -5.470  0.00  0.00    +0.000 A 
ATOM     16  C   UNL     1      13.949  12.285  -4.292  0.00  0.00    +0.000 A 
ENDBRANCH  10  11
ENDBRANCH   1  10
TORSDOF 2
ENDMDL
MODEL 5
REMARK VINA RESULT:    -5.169      3.808      4.754
REMARK INTER + INTRA:          -5.897
REMARK INTER:                  -5.773
REMARK INTRA:                  -0.125
REMARK UNBOUND:                -0.124
REMARK  Name = 1550473
REMARK  2 active torsions:
REMARK  status: ('A' for Active; 'I' for Inactive)
REMARK    1  A    between atoms: N_1  and  C_4
REMARK    2  A    between atoms: C_4  and  C_5
REMARK                            x       y       z     vdW  Elec       q    Type
REMARK                         _______ _______ _______ _____ _____    ______ ____
ROOT
ATOM      1  N   UNL     1       7.689  18.738   5.151  0.00  0.00    -0.354 N 
ATOM      2  N   UNL     1       5.659  19.852   5.117  0.00  0.00    -0.372 N 
ATOM      3  N   UNL     1       7.428  20.735   3.954  0.00  0.00    -0.372 N 
ATOM      4  C   UNL     1       6.940  19.770   4.739  0.00  0.00    +0.166 C 
ATOM      5  H   UNL     1       7.268  18.054   5.770  0.00  0.00    +0.163 HD
ATOM      6  H   UNL     1       5.069  20.617   4.820  0.00  0.00    +0.159 HD
ATOM      7  H   UNL     1       5.228  19.144   5.699  0.00  0.00    +0.159 HD
ATOM      8  H   UNL     1       8.389  20.734   3.638  0.00  0.00    +0.159 HD
ATOM      9  H   UNL     1       6.856  21.515   3.655  0.00  0.00    +0.159 HD
ENDROOT
BRANCH   1  10
ATOM     10  C   UNL     1       9.079  18.526   4.752  0.00  0.00    +0.151 C 
BRANCH  10  11
ATOM     11  C   UNL     1       9.225  17.137   4.195  0.00  0.00    -0.028 A 
ATOM     12  C   UNL     1       9.216  16.023   5.048  0.00  0.00    +0.005 A 
ATOM     13  C   UNL     1       9.365  16.926   2.815  0.00  0.00    +0.005 A 
ATOM     14  C   UNL     1       9.321  14.731   4.529  0.00  0.00    +0.000 A 
ATOM     15  C   UNL     1       9.471  15.634   2.300  0.00  0.00    +0.000 A 
ATOM     16  C   UNL     1       9.446  14.537   3.157  0.00  0.00    +0.000 A 
ENDBRANCH  10  11
ENDBRANCH   1  10
TORSDOF 2
ENDMDL
MODEL 6
REMARK VINA RESULT:    -5.067      3.363      4.914
REMARK INTER + INTRA:          -5.783
REMARK INTER:                  -5.665
REMARK INTRA:                  -0.118
REMARK UNBOUND:                -0.124
REMARK  Name = 1550473
REMARK  2 active torsions:
REMARK  status: ('A' for Active; 'I' for Inactive)
REMARK    1  A    between atoms: N_1  and  C_4
REMARK    2  A    between atoms: C_4  and  C_5
REMARK                            x       y       z     vdW  Elec       q    Type
REMARK                         _______ _______ _______ _____ _____    ______ ____
ROOT
ATOM      1  N   UNL     1       8.563  16.542   3.217  0.00  0.00    -0.354 N 
ATOM      2  N   UNL     1       9.798  14.584   3.289  0.00  0.00    -0.372 N 
ATOM      3  N   UNL     1       8.118  14.892   4.821  0.00  0.00    -0.372 N 
ATOM      4  C   UNL     1       8.817  15.352   3.777  0.00  0.00    +0.166 C 
ATOM      5  H   UNL     1       9.148  16.846   2.447  0.00  0.00    +0.163 HD
ATOM      6  H   UNL     1      10.011  13.680   3.689  0.00  0.00    +0.159 HD
ATOM      7  H   UNL     1      10.351  14.870   2.491  0.00  0.00    +0.159 HD
ATOM      8  H   UNL     1       7.368  15.426   5.240  0.00  0.00    +0.159 HD
ATOM      9  H   UNL     1       8.323  13.995   5.243  0.00  0.00    +0.159 HD
ENDROOT
BRANCH   1  10
ATOM     10  C   UNL     1       7.481  17.430   3.639  0.00  0.00    +0.151 C 
BRANCH  10  11
ATOM     11  C   UNL     1       8.072  18.722   4.132  0.00  0.00    -0.028 A 
ATOM     12  C   UNL     1       7.270  19.865   4.268  0.00  0.00    +0.005 A 
ATOM     13  C   UNL     1       9.431  18.808   4.472  0.00  0.00    +0.005 A 
ATOM     14  C   UNL     1       7.811  21.058   4.755  0.00  0.00    +0.000 A 
ATOM     15  C   UNL     1       9.967  20.001   4.957  0.00  0.00    +0.000 A 
ATOM     16  C   UNL     1       9.157  21.125   5.100  0.00  0.00    +0.000 A 
ENDBRANCH  10  11
ENDBRANCH   1  10
TORSDOF 2
ENDMDL
MODEL 7
REMARK VINA RESULT:    -5.031     33.629     34.164
REMARK INTER + INTRA:          -5.743
REMARK INTER:                  -5.627
REMARK INTRA:                  -0.115
REMARK UNBOUND:                -0.124
REMARK  Name = 1550473
REMARK  2 active torsions:
REMARK  status: ('A' for Active; 'I' for Inactive)
REMARK    1  A    between atoms: N_1  and  C_4
REMARK    2  A    between atoms: C_4  and  C_5
REMARK                            x       y       z     vdW  Elec       q    Type
REMARK                         _______ _______ _______ _____ _____    ______ ____
ROOT
ATOM      1  N   UNL     1     -16.675  -1.804 -12.085  0.00  0.00    -0.354 N 
ATOM      2  N   UNL     1     -17.333  -3.869 -11.268  0.00  0.00    -0.372 N 
ATOM      3  N   UNL     1     -15.379  -2.943 -10.499  0.00  0.00    -0.372 N 
ATOM      4  C   UNL     1     -16.456  -2.858 -11.288  0.00  0.00    +0.166 C 
ATOM      5  H   UNL     1     -17.495  -1.814 -12.681  0.00  0.00    +0.163 HD
ATOM      6  H   UNL     1     -17.196  -4.676 -10.674  0.00  0.00    +0.159 HD
ATOM      7  H   UNL     1     -18.175  -3.855 -11.831  0.00  0.00    +0.159 HD
ATOM      8  H   UNL     1     -14.676  -2.217 -10.472  0.00  0.00    +0.159 HD
ATOM      9  H   UNL     1     -15.218  -3.748  -9.907  0.00  0.00    +0.159 HD
ENDROOT
BRANCH   1  10
ATOM     10  C   UNL     1     -15.809  -0.627 -12.141  0.00  0.00    +0.151 C 
BRANCH  10  11
ATOM     11  C   UNL     1     -16.659   0.612 -12.070  0.00  0.00    -0.028 A 
ATOM     12  C   UNL     1     -16.722   1.365 -10.889  0.00  0.00    +0.005 A 
ATOM     13  C   UNL     1     -17.398   1.041 -13.183  0.00  0.00    +0.005 A 
ATOM     14  C   UNL     1     -17.487   2.532 -10.832  0.00  0.00    +0.000 A 
ATOM     15  C   UNL     1     -18.162   2.206 -13.122  0.00  0.00    +0.000 A 
ATOM     16  C   UNL     1     -18.204   2.953 -11.947  0.00  0.00    +0.000 A 
ENDBRANCH  10  11
ENDBRANCH   1  10
TORSDOF 2
ENDMDL
MODEL 8
REMARK VINA RESULT:    -5.025     38.663     39.594
REMARK INTER + INTRA:          -5.736
REMARK INTER:                  -5.562
REMARK INTRA:                  -0.173
REMARK UNBOUND:                -0.124
REMARK  Name = 1550473
REMARK  2 active torsions:
REMARK  status: ('A' for Active; 'I' for Inactive)
REMARK    1  A    between atoms: N_1  and  C_4
REMARK    2  A    between atoms: C_4  and  C_5
REMARK                            x       y       z     vdW  Elec       q    Type
REMARK                         _______ _______ _______ _____ _____    ______ ____
ROOT
ATOM      1  N   UNL     1      -4.664 -18.454  -8.392  0.00  0.00    -0.354 N 
ATOM      2  N   UNL     1      -3.173 -19.028  -6.715  0.00  0.00    -0.372 N 
ATOM      3  N   UNL     1      -4.005 -20.680  -8.073  0.00  0.00    -0.372 N 
ATOM      4  C   UNL     1      -3.958 -19.386  -7.739  0.00  0.00    +0.166 C 
ATOM      5  H   UNL     1      -4.608 -17.494  -8.070  0.00  0.00    +0.163 HD
ATOM      6  H   UNL     1      -2.626 -19.709  -6.206  0.00  0.00    +0.159 HD
ATOM      7  H   UNL     1      -3.084 -18.062  -6.425  0.00  0.00    +0.159 HD
ATOM      8  H   UNL     1      -4.583 -21.016  -8.833  0.00  0.00    +0.159 HD
ATOM      9  H   UNL     1      -3.474 -21.378  -7.568  0.00  0.00    +0.159 HD
ENDROOT
BRANCH   1  10
ATOM     10  C   UNL     1      -5.507 -18.731  -9.554  0.00  0.00    +0.151 C 
BRANCH  10  11
ATOM     11  C   UNL     1      -4.796 -18.271 -10.797  0.00  0.00    -0.028 A 
ATOM     12  C   UNL     1      -3.906 -19.125 -11.465  0.00  0.00    +0.005 A 
ATOM     13  C   UNL     1      -5.013 -16.985 -11.315  0.00  0.00    +0.005 A 
ATOM     14  C   UNL     1      -3.269 -18.710 -12.637  0.00  0.00    +0.000 A 
ATOM     15  C   UNL     1      -4.374 -16.574 -12.485  0.00  0.00    +0.000 A 
ATOM     16  C   UNL     1      -3.504 -17.437 -13.147  0.00  0.00    +0.000 A 
ENDBRANCH  10  11
ENDBRANCH   1  10
TORSDOF 2
ENDMDL
MODEL 9
REMARK VINA RESULT:    -4.856     29.011     30.160
REMARK INTER + INTRA:          -5.548
REMARK INTER:                  -5.384
REMARK INTRA:                  -0.164
REMARK UNBOUND:                -0.124
REMARK  Name = 1550473
REMARK  2 active torsions:
REMARK  status: ('A' for Active; 'I' for Inactive)
REMARK    1  A    between atoms: N_1  and  C_4
REMARK    2  A    between atoms: C_4  and  C_5
REMARK                            x       y       z     vdW  Elec       q    Type
REMARK                         _______ _______ _______ _____ _____    ______ ____
ROOT
ATOM      1  N   UNL     1       8.908 -14.202  -0.869  0.00  0.00    -0.354 N 
ATOM      2  N   UNL     1       7.316 -13.617   0.709  0.00  0.00    -0.372 N 
ATOM      3  N   UNL     1       6.645 -14.021  -1.448  0.00  0.00    -0.372 N 
ATOM      4  C   UNL     1       7.632 -13.951  -0.549  0.00  0.00    +0.166 C 
ATOM      5  H   UNL     1       9.614 -14.101  -0.148  0.00  0.00    +0.163 HD
ATOM      6  H   UNL     1       6.361 -13.425   0.981  0.00  0.00    +0.159 HD
ATOM      7  H   UNL     1       8.017 -13.562   1.437  0.00  0.00    +0.159 HD
ATOM      8  H   UNL     1       6.818 -14.262  -2.415  0.00  0.00    +0.159 HD
ATOM      9  H   UNL     1       5.684 -13.822  -1.198  0.00  0.00    +0.159 HD
ENDROOT
BRANCH   1  10
ATOM     10  C   UNL     1       9.351 -14.625  -2.196  0.00  0.00    +0.151 C 
BRANCH  10  11
ATOM     11  C   UNL     1       9.992 -13.458  -2.895  0.00  0.00    -0.028 A 
ATOM     12  C   UNL     1      10.756 -12.528  -2.174  0.00  0.00    +0.005 A 
ATOM     13  C   UNL     1       9.845 -13.281  -4.280  0.00  0.00    +0.005 A 
ATOM     14  C   UNL     1      11.377 -11.461  -2.828  0.00  0.00    +0.000 A 
ATOM     15  C   UNL     1      10.466 -12.213  -4.928  0.00  0.00    +0.000 A 
ATOM     16  C   UNL     1      11.234 -11.306  -4.203  0.00  0.00    +0.000 A 
ENDBRANCH  10  11
ENDBRANCH   1  10
TORSDOF 2
ENDMDL
