MODEL 1
REMARK VINA RESULT:    -5.146      0.000      0.000
REMARK INTER + INTRA:          -5.880
REMARK INTER:                  -5.748
REMARK INTRA:                  -0.132
REMARK UNBOUND:                -0.132
REMARK  Name = 1550473
REMARK  2 active torsions:
REMARK  status: ('A' for Active; 'I' for Inactive)
REMARK    1  A    between atoms: N_1  and  C_4
REMARK    2  A    between atoms: C_4  and  C_5
REMARK                            x       y       z     vdW  Elec       q    Type
REMARK                         _______ _______ _______ _____ _____    ______ ____
ROOT
ATOM      1  N   UNL     1     -12.439 -10.435 -17.628  0.00  0.00    -0.354 N 
ATOM      2  N   UNL     1     -10.142 -10.159 -17.520  0.00  0.00    -0.372 N 
ATOM      3  N   UNL     1     -11.499  -8.470 -16.763  0.00  0.00    -0.372 N 
ATOM      4  C   UNL     1     -11.376  -9.687 -17.303  0.00  0.00    +0.166 C 
ATOM      5  H   UNL     1     -12.279 -11.337 -18.062  0.00  0.00    +0.163 HD
ATOM      6  H   UNL     1      -9.321  -9.619 -17.282  0.00  0.00    +0.159 HD
ATOM      7  H   UNL     1      -9.985 -11.079 -17.911  0.00  0.00    +0.159 HD
ATOM      8  H   UNL     1     -12.403  -8.055 -16.580  0.00  0.00    +0.159 HD
ATOM      9  H   UNL     1     -10.690  -7.910 -16.529  0.00  0.00    +0.159 HD
ENDROOT
BRANCH   1  10
ATOM     10  C   UNL     1     -13.824 -10.037 -17.384  0.00  0.00    +0.151 C 
BRANCH  10  11
ATOM     11  C   UNL     1     -14.697 -10.607 -18.468  0.00  0.00    -0.028 A 
ATOM     12  C   UNL     1     -16.094 -10.594 -18.337  0.00  0.00    +0.005 A 
ATOM     13  C   UNL     1     -14.135 -11.155 -19.630  0.00  0.00    +0.005 A 
ATOM     14  C   UNL     1     -16.906 -11.096 -19.357  0.00  0.00    +0.000 A 
ATOM     15  C   UNL     1     -14.949 -11.656 -20.646  0.00  0.00    +0.000 A 
ATOM     16  C   UNL     1     -16.335 -11.624 -20.510  0.00  0.00    +0.000 A 
ENDBRANCH  10  11
ENDBRANCH   1  10
TORSDOF 2
ENDMDL
MODEL 2
REMARK VINA RESULT:    -5.086     39.078     40.863
REMARK INTER + INTRA:          -5.813
REMARK INTER:                  -5.671
REMARK INTRA:                  -0.142
REMARK UNBOUND:                -0.132
REMARK  Name = 1550473
REMARK  2 active torsions:
REMARK  status: ('A' for Active; 'I' for Inactive)
REMARK    1  A    between atoms: N_1  and  C_4
REMARK    2  A    between atoms: C_4  and  C_5
REMARK                            x       y       z     vdW  Elec       q    Type
REMARK                         _______ _______ _______ _____ _____    ______ ____
ROOT
ATOM      1  N   UNL     1       2.849   8.171  11.842  0.00  0.00    -0.354 N 
ATOM      2  N   UNL     1       4.055   7.683   9.926  0.00  0.00    -0.372 N 
ATOM      3  N   UNL     1       4.580   9.574  11.115  0.00  0.00    -0.372 N 
ATOM      4  C   UNL     1       3.821   8.482  10.974  0.00  0.00    +0.166 C 
ATOM      5  H   UNL     1       2.290   7.345  11.663  0.00  0.00    +0.163 HD
ATOM      6  H   UNL     1       4.784   7.890   9.256  0.00  0.00    +0.159 HD
ATOM      7  H   UNL     1       3.525   6.834   9.774  0.00  0.00    +0.159 HD
ATOM      8  H   UNL     1       4.450  10.221  11.881  0.00  0.00    +0.159 HD
ATOM      9  H   UNL     1       5.306   9.804  10.448  0.00  0.00    +0.159 HD
ENDROOT
BRANCH   1  10
ATOM     10  C   UNL     1       2.549   8.945  13.045  0.00  0.00    +0.151 C 
BRANCH  10  11
ATOM     11  C   UNL     1       2.726   8.066  14.252  0.00  0.00    -0.028 A 
ATOM     12  C   UNL     1       1.736   7.138  14.608  0.00  0.00    +0.005 A 
ATOM     13  C   UNL     1       3.884   8.151  15.041  0.00  0.00    +0.005 A 
ATOM     14  C   UNL     1       1.913   6.299  15.711  0.00  0.00    +0.000 A 
ATOM     15  C   UNL     1       4.056   7.313  16.142  0.00  0.00    +0.000 A 
ATOM     16  C   UNL     1       3.072   6.386  16.476  0.00  0.00    +0.000 A 
ENDBRANCH  10  11
ENDBRANCH   1  10
TORSDOF 2
ENDMDL
MODEL 3
REMARK VINA RESULT:    -4.797     27.212     30.336
REMARK INTER + INTRA:          -5.490
REMARK INTER:                  -5.340
REMARK INTRA:                  -0.150
REMARK UNBOUND:                -0.132
REMARK  Name = 1550473
REMARK  2 active torsions:
REMARK  status: ('A' for Active; 'I' for Inactive)
REMARK    1  A    between atoms: N_1  and  C_4
REMARK    2  A    between atoms: C_4  and  C_5
REMARK                            x       y       z     vdW  Elec       q    Type
REMARK                         _______ _______ _______ _____ _____    ______ ____
ROOT
ATOM      1  N   UNL     1       8.434   4.603  -9.971  0.00  0.00    -0.354 N 
ATOM      2  N   UNL     1       7.767   2.522 -10.738  0.00  0.00    -0.372 N 
ATOM      3  N   UNL     1       7.648   2.966  -8.490  0.00  0.00    -0.372 N 
ATOM      4  C   UNL     1       7.954   3.377  -9.725  0.00  0.00    +0.166 C 
ATOM      5  H   UNL     1       8.675   4.843 -10.925  0.00  0.00    +0.163 HD
ATOM      6  H   UNL     1       7.403   1.592 -10.584  0.00  0.00    +0.159 HD
ATOM      7  H   UNL     1       7.965   2.781 -11.697  0.00  0.00    +0.159 HD
ATOM      8  H   UNL     1       7.772   3.561  -7.681  0.00  0.00    +0.159 HD
ATOM      9  H   UNL     1       7.293   2.034  -8.314  0.00  0.00    +0.159 HD
ENDROOT
BRANCH   1  10
ATOM     10  C   UNL     1       8.623   5.628  -8.945  0.00  0.00    +0.151 C 
BRANCH  10  11
ATOM     11  C   UNL     1      10.089   5.742  -8.630  0.00  0.00    -0.028 A 
ATOM     12  C   UNL     1      11.053   5.346  -9.569  0.00  0.00    +0.005 A 
ATOM     13  C   UNL     1      10.522   6.250  -7.395  0.00  0.00    +0.005 A 
ATOM     14  C   UNL     1      12.415   5.479  -9.288  0.00  0.00    +0.000 A 
ATOM     15  C   UNL     1      11.883   6.381  -7.119  0.00  0.00    +0.000 A 
ATOM     16  C   UNL     1      12.829   5.998  -8.066  0.00  0.00    +0.000 A 
ENDBRANCH  10  11
ENDBRANCH   1  10
TORSDOF 2
ENDMDL
MODEL 4
REMARK VINA RESULT:    -4.775     24.724     27.540
REMARK INTER + INTRA:          -5.466
REMARK INTER:                  -5.364
REMARK INTRA:                  -0.101
REMARK UNBOUND:                -0.132
REMARK  Name = 1550473
REMARK  2 active torsions:
REMARK  status: ('A' for Active; 'I' for Inactive)
REMARK    1  A    between atoms: N_1  and  C_4
REMARK    2  A    between atoms: C_4  and  C_5
REMARK                            x       y       z     vdW  Elec       q    Type
REMARK                         _______ _______ _______ _____ _____    ______ ____
ROOT
ATOM      1  N   UNL     1       7.730   2.489 -12.272  0.00  0.00    -0.354 N 
ATOM      2  N   UNL     1       6.090   1.401 -13.494  0.00  0.00    -0.372 N 
ATOM      3  N   UNL     1       7.695   0.151 -12.434  0.00  0.00    -0.372 N 
ATOM      4  C   UNL     1       7.184   1.352 -12.724  0.00  0.00    +0.166 C 
ATOM      5  H   UNL     1       7.312   3.368 -12.554  0.00  0.00    +0.163 HD
ATOM      6  H   UNL     1       5.654   0.560 -13.847  0.00  0.00    +0.159 HD
ATOM      7  H   UNL     1       5.647   2.280 -13.735  0.00  0.00    +0.159 HD
ATOM      8  H   UNL     1       8.523   0.046 -11.863  0.00  0.00    +0.159 HD
ATOM      9  H   UNL     1       7.280  -0.702 -12.787  0.00  0.00    +0.159 HD
ENDROOT
BRANCH   1  10
ATOM     10  C   UNL     1       8.890   2.542 -11.385  0.00  0.00    +0.151 C 
BRANCH  10  11
ATOM     11  C   UNL     1       8.787   3.764 -10.515  0.00  0.00    -0.028 A 
ATOM     12  C   UNL     1       9.358   4.979 -10.922  0.00  0.00    +0.005 A 
ATOM     13  C   UNL     1       8.114   3.716  -9.284  0.00  0.00    +0.005 A 
ATOM     14  C   UNL     1       9.236   6.122 -10.128  0.00  0.00    +0.000 A 
ATOM     15  C   UNL     1       7.995   4.859  -8.494  0.00  0.00    +0.000 A 
ATOM     16  C   UNL     1       8.554   6.063  -8.917  0.00  0.00    +0.000 A 
ENDBRANCH  10  11
ENDBRANCH   1  10
TORSDOF 2
ENDMDL
MODEL 5
REMARK VINA RESULT:    -4.774     39.255     41.147
REMARK INTER + INTRA:          -5.465
REMARK INTER:                  -5.348
REMARK INTRA:                  -0.116
REMARK UNBOUND:                -0.132
REMARK  Name = 1550473
REMARK  2 active torsions:
REMARK  status: ('A' for Active; 'I' for Inactive)
REMARK    1  A    between atoms: N_1  and  C_4
REMARK    2  A    between atoms: C_4  and  C_5
REMARK                            x       y       z     vdW  Elec       q    Type
REMARK                         _______ _______ _______ _____ _____    ______ ____
ROOT
ATOM      1  N   UNL     1       4.450   7.959  12.516  0.00  0.00    -0.354 N 
ATOM      2  N   UNL     1       3.962   9.458  10.819  0.00  0.00    -0.372 N 
ATOM      3  N   UNL     1       4.026   7.216  10.335  0.00  0.00    -0.372 N 
ATOM      4  C   UNL     1       4.149   8.199  11.233  0.00  0.00    +0.166 C 
ATOM      5  H   UNL     1       4.559   8.750  13.141  0.00  0.00    +0.163 HD
ATOM      6  H   UNL     1       3.731   9.669   9.858  0.00  0.00    +0.159 HD
ATOM      7  H   UNL     1       4.027  10.243  11.455  0.00  0.00    +0.159 HD
ATOM      8  H   UNL     1       4.160   6.245  10.582  0.00  0.00    +0.159 HD
ATOM      9  H   UNL     1       3.806   7.408   9.365  0.00  0.00    +0.159 HD
ENDROOT
BRANCH   1  10
ATOM     10  C   UNL     1       4.621   6.621  13.080  0.00  0.00    +0.151 C 
BRANCH  10  11
ATOM     11  C   UNL     1       4.056   6.600  14.473  0.00  0.00    -0.028 A 
ATOM     12  C   UNL     1       4.907   6.526  15.586  0.00  0.00    +0.005 A 
ATOM     13  C   UNL     1       2.670   6.658  14.688  0.00  0.00    +0.005 A 
ATOM     14  C   UNL     1       4.384   6.537  16.881  0.00  0.00    +0.000 A 
ATOM     15  C   UNL     1       2.152   6.668  15.983  0.00  0.00    +0.000 A 
ATOM     16  C   UNL     1       3.009   6.609  17.079  0.00  0.00    +0.000 A 
ENDBRANCH  10  11
ENDBRANCH   1  10
TORSDOF 2
ENDMDL
MODEL 6
REMARK VINA RESULT:    -4.771     12.767     14.236
REMARK INTER + INTRA:          -5.461
REMARK INTER:                  -5.304
REMARK INTRA:                  -0.158
REMARK UNBOUND:                -0.132
REMARK  Name = 1550473
REMARK  2 active torsions:
REMARK  status: ('A' for Active; 'I' for Inactive)
REMARK    1  A    between atoms: N_1  and  C_4
REMARK    2  A    between atoms: C_4  and  C_5
REMARK                            x       y       z     vdW  Elec       q    Type
REMARK                         _______ _______ _______ _____ _____    ______ ____
ROOT
ATOM      1  N   UNL     1     -11.131 -13.524  -3.674  0.00  0.00    -0.354 N 
ATOM      2  N   UNL     1     -10.104 -13.203  -1.622  0.00  0.00    -0.372 N 
ATOM      3  N   UNL     1      -8.958 -14.305  -3.277  0.00  0.00    -0.372 N 
ATOM      4  C   UNL     1     -10.069 -13.681  -2.872  0.00  0.00    +0.166 C 
ATOM      5  H   UNL     1     -11.955 -13.068  -3.297  0.00  0.00    +0.163 HD
ATOM      6  H   UNL     1      -9.317 -13.304  -0.996  0.00  0.00    +0.159 HD
ATOM      7  H   UNL     1     -10.912 -12.708  -1.264  0.00  0.00    +0.159 HD
ATOM      8  H   UNL     1      -8.870 -14.694  -4.206  0.00  0.00    +0.159 HD
ATOM      9  H   UNL     1      -8.164 -14.426  -2.660  0.00  0.00    +0.159 HD
ENDROOT
BRANCH   1  10
ATOM     10  C   UNL     1     -11.175 -13.959  -5.068  0.00  0.00    +0.151 C 
BRANCH  10  11
ATOM     11  C   UNL     1     -10.918 -12.776  -5.961  0.00  0.00    -0.028 A 
ATOM     12  C   UNL     1      -9.607 -12.410  -6.298  0.00  0.00    +0.005 A 
ATOM     13  C   UNL     1     -11.983 -12.021  -6.477  0.00  0.00    +0.005 A 
ATOM     14  C   UNL     1      -9.370 -11.330  -7.151  0.00  0.00    +0.000 A 
ATOM     15  C   UNL     1     -11.741 -10.942  -7.327  0.00  0.00    +0.000 A 
ATOM     16  C   UNL     1     -10.435 -10.599  -7.666  0.00  0.00    +0.000 A 
ENDBRANCH  10  11
ENDBRANCH   1  10
TORSDOF 2
ENDMDL
MODEL 7
REMARK VINA RESULT:    -4.599     40.866     41.951
REMARK INTER + INTRA:          -5.269
REMARK INTER:                  -5.093
REMARK INTRA:                  -0.176
REMARK UNBOUND:                -0.132
REMARK  Name = 1550473
REMARK  2 active torsions:
REMARK  status: ('A' for Active; 'I' for Inactive)
REMARK    1  A    between atoms: N_1  and  C_4
REMARK    2  A    between atoms: C_4  and  C_5
REMARK                            x       y       z     vdW  Elec       q    Type
REMARK                         _______ _______ _______ _____ _____    ______ ____
ROOT
ATOM      1  N   UNL     1       4.569   6.616  16.220  0.00  0.00    -0.354 N 
ATOM      2  N   UNL     1       5.561   7.587  18.073  0.00  0.00    -0.372 N 
ATOM      3  N   UNL     1       3.271   7.514  17.952  0.00  0.00    -0.372 N 
ATOM      4  C   UNL     1       4.458   7.233  17.403  0.00  0.00    +0.166 C 
ATOM      5  H   UNL     1       5.497   6.459  15.844  0.00  0.00    +0.163 HD
ATOM      6  H   UNL     1       5.509   8.052  18.970  0.00  0.00    +0.159 HD
ATOM      7  H   UNL     1       6.488   7.388  17.717  0.00  0.00    +0.159 HD
ATOM      8  H   UNL     1       2.401   7.278  17.494  0.00  0.00    +0.159 HD
ATOM      9  H   UNL     1       3.198   7.988  18.843  0.00  0.00    +0.159 HD
ENDROOT
BRANCH   1  10
ATOM     10  C   UNL     1       3.431   6.140  15.435  0.00  0.00    +0.151 C 
BRANCH  10  11
ATOM     11  C   UNL     1       3.091   7.167  14.391  0.00  0.00    -0.028 A 
ATOM     12  C   UNL     1       3.933   7.366  13.287  0.00  0.00    +0.005 A 
ATOM     13  C   UNL     1       1.925   7.941  14.497  0.00  0.00    +0.005 A 
ATOM     14  C   UNL     1       3.602   8.299  12.301  0.00  0.00    +0.000 A 
ATOM     15  C   UNL     1       1.598   8.872  13.511  0.00  0.00    +0.000 A 
ATOM     16  C   UNL     1       2.436   9.049  12.412  0.00  0.00    +0.000 A 
ENDBRANCH  10  11
ENDBRANCH   1  10
TORSDOF 2
ENDMDL
MODEL 8
REMARK VINA RESULT:    -4.461     40.459     41.196
REMARK INTER + INTRA:          -5.115
REMARK INTER:                  -5.015
REMARK INTRA:                  -0.100
REMARK UNBOUND:                -0.132
REMARK  Name = 1550473
REMARK  2 active torsions:
REMARK  status: ('A' for Active; 'I' for Inactive)
REMARK    1  A    between atoms: N_1  and  C_4
REMARK    2  A    between atoms: C_4  and  C_5
REMARK                            x       y       z     vdW  Elec       q    Type
REMARK                         _______ _______ _______ _____ _____    ______ ____
ROOT
ATOM      1  N   UNL     1       5.746   4.869  14.190  0.00  0.00    -0.354 N 
ATOM      2  N   UNL     1       6.605   2.825  13.520  0.00  0.00    -0.372 N 
ATOM      3  N   UNL     1       6.817   3.450  15.717  0.00  0.00    -0.372 N 
ATOM      4  C   UNL     1       6.385   3.728  14.483  0.00  0.00    +0.166 C 
ATOM      5  H   UNL     1       5.471   5.033  13.228  0.00  0.00    +0.163 HD
ATOM      6  H   UNL     1       7.081   1.953  13.712  0.00  0.00    +0.159 HD
ATOM      7  H   UNL     1       6.288   2.971  12.569  0.00  0.00    +0.159 HD
ATOM      8  H   UNL     1       6.687   4.093  16.487  0.00  0.00    +0.159 HD
ATOM      9  H   UNL     1       7.306   2.589  15.927  0.00  0.00    +0.159 HD
ENDROOT
BRANCH   1  10
ATOM     10  C   UNL     1       5.409   5.894  15.176  0.00  0.00    +0.151 C 
BRANCH  10  11
ATOM     11  C   UNL     1       4.109   6.541  14.787  0.00  0.00    -0.028 A 
ATOM     12  C   UNL     1       2.922   6.217  15.460  0.00  0.00    +0.005 A 
ATOM     13  C   UNL     1       4.058   7.484  13.749  0.00  0.00    +0.005 A 
ATOM     14  C   UNL     1       1.719   6.840  15.119  0.00  0.00    +0.000 A 
ATOM     15  C   UNL     1       2.855   8.104  13.410  0.00  0.00    +0.000 A 
ATOM     16  C   UNL     1       1.687   7.783  14.097  0.00  0.00    +0.000 A 
ENDBRANCH  10  11
ENDBRANCH   1  10
TORSDOF 2
ENDMDL
MODEL 9
REMARK VINA RESULT:    -4.453     13.054     14.011
REMARK INTER + INTRA:          -5.106
REMARK INTER:                  -4.985
REMARK INTRA:                  -0.120
REMARK UNBOUND:                -0.132
REMARK  Name = 1550473
REMARK  2 active torsions:
REMARK  status: ('A' for Active; 'I' for Inactive)
REMARK    1  A    between atoms: N_1  and  C_4
REMARK    2  A    between atoms: C_4  and  C_5
REMARK                            x       y       z     vdW  Elec       q    Type
REMARK                         _______ _______ _______ _____ _____    ______ ____
ROOT
ATOM      1  N   UNL     1     -12.471   2.882 -17.684  0.00  0.00    -0.354 N 
ATOM      2  N   UNL     1     -14.415   2.398 -16.523  0.00  0.00    -0.372 N 
ATOM      3  N   UNL     1     -12.532   2.971 -15.343  0.00  0.00    -0.372 N 
ATOM      4  C   UNL     1     -13.124   2.754 -16.522  0.00  0.00    +0.166 C 
ATOM      5  H   UNL     1     -12.968   2.673 -18.542  0.00  0.00    +0.163 HD
ATOM      6  H   UNL     1     -14.935   2.297 -15.662  0.00  0.00    +0.159 HD
ATOM      7  H   UNL     1     -14.922   2.235 -17.384  0.00  0.00    +0.159 HD
ATOM      8  H   UNL     1     -11.558   3.236 -15.274  0.00  0.00    +0.159 HD
ATOM      9  H   UNL     1     -13.033   2.863 -14.470  0.00  0.00    +0.159 HD
ENDROOT
BRANCH   1  10
ATOM     10  C   UNL     1     -11.079   3.316 -17.796  0.00  0.00    +0.151 C 
BRANCH  10  11
ATOM     11  C   UNL     1     -10.549   2.922 -19.147  0.00  0.00    -0.028 A 
ATOM     12  C   UNL     1      -9.607   3.728 -19.805  0.00  0.00    +0.005 A 
ATOM     13  C   UNL     1     -10.979   1.742 -19.773  0.00  0.00    +0.005 A 
ATOM     14  C   UNL     1      -9.092   3.347 -21.046  0.00  0.00    +0.000 A 
ATOM     15  C   UNL     1     -10.463   1.366 -21.012  0.00  0.00    +0.000 A 
ATOM     16  C   UNL     1      -9.517   2.168 -21.648  0.00  0.00    +0.000 A 
ENDBRANCH  10  11
ENDBRANCH   1  10
TORSDOF 2
ENDMDL
