MODEL 1
REMARK VINA RESULT:    -5.995      0.000      0.000
REMARK INTER + INTRA:          -6.840
REMARK INTER:                  -6.696
REMARK INTRA:                  -0.144
REMARK UNBOUND:                -0.144
REMARK  Name = 1550473
REMARK  2 active torsions:
REMARK  status: ('A' for Active; 'I' for Inactive)
REMARK    1  A    between atoms: N_1  and  C_4
REMARK    2  A    between atoms: C_4  and  C_5
REMARK                            x       y       z     vdW  Elec       q    Type
REMARK                         _______ _______ _______ _____ _____    ______ ____
ROOT
ATOM      1  N   UNL     1       9.745   1.962   9.592  0.00  0.00    -0.354 N 
ATOM      2  N   UNL     1      10.196   3.998   8.585  0.00  0.00    -0.372 N 
ATOM      3  N   UNL     1      11.841   2.399   8.640  0.00  0.00    -0.372 N 
ATOM      4  C   UNL     1      10.593   2.772   8.945  0.00  0.00    +0.166 C 
ATOM      5  H   UNL     1       8.823   2.315   9.821  0.00  0.00    +0.163 HD
ATOM      6  H   UNL     1      10.813   4.630   8.092  0.00  0.00    +0.159 HD
ATOM      7  H   UNL     1       9.259   4.332   8.774  0.00  0.00    +0.159 HD
ATOM      8  H   UNL     1      12.204   1.489   8.889  0.00  0.00    +0.159 HD
ATOM      9  H   UNL     1      12.477   3.022   8.158  0.00  0.00    +0.159 HD
ENDROOT
BRANCH   1  10
ATOM     10  C   UNL     1      10.061   0.589   9.982  0.00  0.00    +0.151 C 
BRANCH  10  11
ATOM     11  C   UNL     1       9.026  -0.336   9.404  0.00  0.00    -0.028 A 
ATOM     12  C   UNL     1       9.142  -1.724   9.565  0.00  0.00    +0.005 A 
ATOM     13  C   UNL     1       7.923   0.170   8.699  0.00  0.00    +0.005 A 
ATOM     14  C   UNL     1       8.165  -2.582   9.054  0.00  0.00    +0.000 A 
ATOM     15  C   UNL     1       6.950  -0.690   8.190  0.00  0.00    +0.000 A 
ATOM     16  C   UNL     1       7.070  -2.066   8.370  0.00  0.00    +0.000 A 
ENDBRANCH  10  11
ENDBRANCH   1  10
TORSDOF 2
ENDMDL
MODEL 2
REMARK VINA RESULT:    -5.561     26.854     28.601
REMARK INTER + INTRA:          -6.355
REMARK INTER:                  -6.230
REMARK INTRA:                  -0.125
REMARK UNBOUND:                -0.144
REMARK  Name = 1550473
REMARK  2 active torsions:
REMARK  status: ('A' for Active; 'I' for Inactive)
REMARK    1  A    between atoms: N_1  and  C_4
REMARK    2  A    between atoms: C_4  and  C_5
REMARK                            x       y       z     vdW  Elec       q    Type
REMARK                         _______ _______ _______ _____ _____    ______ ____
ROOT
ATOM      1  N   UNL     1      -9.455 -20.846   2.022  0.00  0.00    -0.354 N 
ATOM      2  N   UNL     1     -11.580 -20.922   1.104  0.00  0.00    -0.372 N 
ATOM      3  N   UNL     1     -10.288 -22.818   1.068  0.00  0.00    -0.372 N 
ATOM      4  C   UNL     1     -10.426 -21.531   1.403  0.00  0.00    +0.166 C 
ATOM      5  H   UNL     1      -9.610 -19.865   2.222  0.00  0.00    +0.163 HD
ATOM      6  H   UNL     1     -12.332 -21.414   0.641  0.00  0.00    +0.159 HD
ATOM      7  H   UNL     1     -11.750 -19.953   1.347  0.00  0.00    +0.159 HD
ATOM      8  H   UNL     1      -9.439 -23.333   1.260  0.00  0.00    +0.159 HD
ATOM      9  H   UNL     1     -11.025 -23.324   0.593  0.00  0.00    +0.159 HD
ENDROOT
BRANCH   1  10
ATOM     10  C   UNL     1      -8.182 -21.430   2.439  0.00  0.00    +0.151 C 
BRANCH  10  11
ATOM     11  C   UNL     1      -7.067 -20.785   1.663  0.00  0.00    -0.028 A 
ATOM     12  C   UNL     1      -5.916 -20.325   2.319  0.00  0.00    +0.005 A 
ATOM     13  C   UNL     1      -7.154 -20.636   0.270  0.00  0.00    +0.005 A 
ATOM     14  C   UNL     1      -4.867 -19.753   1.594  0.00  0.00    +0.000 A 
ATOM     15  C   UNL     1      -6.105 -20.063  -0.450  0.00  0.00    +0.000 A 
ATOM     16  C   UNL     1      -4.961 -19.624   0.212  0.00  0.00    +0.000 A 
ENDBRANCH  10  11
ENDBRANCH   1  10
TORSDOF 2
ENDMDL
MODEL 3
REMARK VINA RESULT:    -5.531     25.859     27.050
REMARK INTER + INTRA:          -6.322
REMARK INTER:                  -6.158
REMARK INTRA:                  -0.164
REMARK UNBOUND:                -0.144
REMARK  Name = 1550473
REMARK  2 active torsions:
REMARK  status: ('A' for Active; 'I' for Inactive)
REMARK    1  A    between atoms: N_1  and  C_4
REMARK    2  A    between atoms: C_4  and  C_5
REMARK                            x       y       z     vdW  Elec       q    Type
REMARK                         _______ _______ _______ _____ _____    ______ ____
ROOT
ATOM      1  N   UNL     1      -7.379 -20.326   4.699  0.00  0.00    -0.354 N 
ATOM      2  N   UNL     1      -8.011 -18.599   6.107  0.00  0.00    -0.372 N 
ATOM      3  N   UNL     1      -9.386 -19.165   4.359  0.00  0.00    -0.372 N 
ATOM      4  C   UNL     1      -8.256 -19.374   5.044  0.00  0.00    +0.166 C 
ATOM      5  H   UNL     1      -6.527 -20.414   5.241  0.00  0.00    +0.163 HD
ATOM      6  H   UNL     1      -8.657 -17.875   6.393  0.00  0.00    +0.159 HD
ATOM      7  H   UNL     1      -7.181 -18.720   6.675  0.00  0.00    +0.159 HD
ATOM      8  H   UNL     1      -9.626 -19.712   3.543  0.00  0.00    +0.159 HD
ATOM      9  H   UNL     1     -10.038 -18.437   4.623  0.00  0.00    +0.159 HD
ENDROOT
BRANCH   1  10
ATOM     10  C   UNL     1      -7.577 -21.258   3.591  0.00  0.00    +0.151 C 
BRANCH  10  11
ATOM     11  C   UNL     1      -6.825 -20.759   2.388  0.00  0.00    -0.028 A 
ATOM     12  C   UNL     1      -5.557 -20.176   2.533  0.00  0.00    +0.005 A 
ATOM     13  C   UNL     1      -7.372 -20.872   1.101  0.00  0.00    +0.005 A 
ATOM     14  C   UNL     1      -4.845 -19.740   1.413  0.00  0.00    +0.000 A 
ATOM     15  C   UNL     1      -6.658 -20.434  -0.015  0.00  0.00    +0.000 A 
ATOM     16  C   UNL     1      -5.394 -19.871   0.142  0.00  0.00    +0.000 A 
ENDBRANCH  10  11
ENDBRANCH   1  10
TORSDOF 2
ENDMDL
MODEL 4
REMARK VINA RESULT:    -5.316     27.210     28.997
REMARK INTER + INTRA:          -6.081
REMARK INTER:                  -5.971
REMARK INTRA:                  -0.111
REMARK UNBOUND:                -0.144
REMARK  Name = 1550473
REMARK  2 active torsions:
REMARK  status: ('A' for Active; 'I' for Inactive)
REMARK    1  A    between atoms: N_1  and  C_4
REMARK    2  A    between atoms: C_4  and  C_5
REMARK                            x       y       z     vdW  Elec       q    Type
REMARK                         _______ _______ _______ _____ _____    ______ ____
ROOT
ATOM      1  N   UNL     1     -10.107 -20.986   2.237  0.00  0.00    -0.354 N 
ATOM      2  N   UNL     1     -12.077 -20.771   3.435  0.00  0.00    -0.372 N 
ATOM      3  N   UNL     1     -11.749 -22.657   2.169  0.00  0.00    -0.372 N 
ATOM      4  C   UNL     1     -11.299 -21.475   2.604  0.00  0.00    +0.166 C 
ATOM      5  H   UNL     1      -9.837 -20.070   2.577  0.00  0.00    +0.163 HD
ATOM      6  H   UNL     1     -12.980 -21.116   3.732  0.00  0.00    +0.159 HD
ATOM      7  H   UNL     1     -11.785 -19.877   3.810  0.00  0.00    +0.159 HD
ATOM      8  H   UNL     1     -11.212 -23.234   1.536  0.00  0.00    +0.159 HD
ATOM      9  H   UNL     1     -12.655 -23.014   2.447  0.00  0.00    +0.159 HD
ENDROOT
BRANCH   1  10
ATOM     10  C   UNL     1      -9.160 -21.697   1.379  0.00  0.00    +0.151 C 
BRANCH  10  11
ATOM     11  C   UNL     1      -7.783 -21.135   1.596  0.00  0.00    -0.028 A 
ATOM     12  C   UNL     1      -7.050 -20.610   0.522  0.00  0.00    +0.005 A 
ATOM     13  C   UNL     1      -7.206 -21.119   2.876  0.00  0.00    +0.005 A 
ATOM     14  C   UNL     1      -5.783 -20.060   0.728  0.00  0.00    +0.000 A 
ATOM     15  C   UNL     1      -5.940 -20.570   3.077  0.00  0.00    +0.000 A 
ATOM     16  C   UNL     1      -5.230 -20.039   2.004  0.00  0.00    +0.000 A 
ENDBRANCH  10  11
ENDBRANCH   1  10
TORSDOF 2
ENDMDL
MODEL 5
REMARK VINA RESULT:    -5.274     25.005     26.297
REMARK INTER + INTRA:          -6.034
REMARK INTER:                  -5.938
REMARK INTRA:                  -0.096
REMARK UNBOUND:                -0.144
REMARK  Name = 1550473
REMARK  2 active torsions:
REMARK  status: ('A' for Active; 'I' for Inactive)
REMARK    1  A    between atoms: N_1  and  C_4
REMARK    2  A    between atoms: C_4  and  C_5
REMARK                            x       y       z     vdW  Elec       q    Type
REMARK                         _______ _______ _______ _____ _____    ______ ____
ROOT
ATOM      1  N   UNL     1      -5.384 -18.013  -0.276  0.00  0.00    -0.354 N 
ATOM      2  N   UNL     1      -5.653 -15.982  -1.356  0.00  0.00    -0.372 N 
ATOM      3  N   UNL     1      -4.851 -17.773  -2.545  0.00  0.00    -0.372 N 
ATOM      4  C   UNL     1      -5.293 -17.271  -1.387  0.00  0.00    +0.166 C 
ATOM      5  H   UNL     1      -5.698 -17.566   0.578  0.00  0.00    +0.163 HD
ATOM      6  H   UNL     1      -5.599 -15.398  -2.179  0.00  0.00    +0.159 HD
ATOM      7  H   UNL     1      -6.010 -15.549  -0.513  0.00  0.00    +0.159 HD
ATOM      8  H   UNL     1      -4.559 -18.737  -2.634  0.00  0.00    +0.159 HD
ATOM      9  H   UNL     1      -4.779 -17.201  -3.378  0.00  0.00    +0.159 HD
ENDROOT
BRANCH   1  10
ATOM     10  C   UNL     1      -5.068 -19.440  -0.217  0.00  0.00    +0.151 C 
BRANCH  10  11
ATOM     11  C   UNL     1      -5.802 -20.058   0.940  0.00  0.00    -0.028 A 
ATOM     12  C   UNL     1      -5.234 -20.063   2.223  0.00  0.00    +0.005 A 
ATOM     13  C   UNL     1      -7.068 -20.636   0.762  0.00  0.00    +0.005 A 
ATOM     14  C   UNL     1      -5.929 -20.610   3.304  0.00  0.00    +0.000 A 
ATOM     15  C   UNL     1      -7.758 -21.182   1.844  0.00  0.00    +0.000 A 
ATOM     16  C   UNL     1      -7.190 -21.167   3.116  0.00  0.00    +0.000 A 
ENDBRANCH  10  11
ENDBRANCH   1  10
TORSDOF 2
ENDMDL
MODEL 6
REMARK VINA RESULT:    -5.186     26.917     28.265
REMARK INTER + INTRA:          -5.937
REMARK INTER:                  -5.756
REMARK INTRA:                  -0.180
REMARK UNBOUND:                -0.144
REMARK  Name = 1550473
REMARK  2 active torsions:
REMARK  status: ('A' for Active; 'I' for Inactive)
REMARK    1  A    between atoms: N_1  and  C_4
REMARK    2  A    between atoms: C_4  and  C_5
REMARK                            x       y       z     vdW  Elec       q    Type
REMARK                         _______ _______ _______ _____ _____    ______ ____
ROOT
ATOM      1  N   UNL     1      -8.789 -19.777  -0.740  0.00  0.00    -0.354 N 
ATOM      2  N   UNL     1     -10.387 -18.108  -0.895  0.00  0.00    -0.372 N 
ATOM      3  N   UNL     1     -10.922 -20.057   0.190  0.00  0.00    -0.372 N 
ATOM      4  C   UNL     1     -10.024 -19.327  -0.479  0.00  0.00    +0.166 C 
ATOM      5  H   UNL     1      -8.165 -19.187  -1.278  0.00  0.00    +0.163 HD
ATOM      6  H   UNL     1     -11.310 -17.739  -0.710  0.00  0.00    +0.159 HD
ATOM      7  H   UNL     1      -9.746 -17.502  -1.393  0.00  0.00    +0.159 HD
ATOM      8  H   UNL     1     -10.712 -20.988   0.526  0.00  0.00    +0.159 HD
ATOM      9  H   UNL     1     -11.855 -19.711   0.375  0.00  0.00    +0.159 HD
ENDROOT
BRANCH   1  10
ATOM     10  C   UNL     1      -8.277 -21.069  -0.284  0.00  0.00    +0.151 C 
BRANCH  10  11
ATOM     11  C   UNL     1      -7.370 -20.849   0.895  0.00  0.00    -0.028 A 
ATOM     12  C   UNL     1      -6.124 -20.228   0.730  0.00  0.00    +0.005 A 
ATOM     13  C   UNL     1      -7.754 -21.256   2.182  0.00  0.00    +0.005 A 
ATOM     14  C   UNL     1      -5.295 -19.997   1.830  0.00  0.00    +0.000 A 
ATOM     15  C   UNL     1      -6.923 -21.024   3.278  0.00  0.00    +0.000 A 
ATOM     16  C   UNL     1      -5.694 -20.393   3.102  0.00  0.00    +0.000 A 
ENDBRANCH  10  11
ENDBRANCH   1  10
TORSDOF 2
ENDMDL
MODEL 7
REMARK VINA RESULT:    -5.139     15.345     16.361
REMARK INTER + INTRA:          -5.884
REMARK INTER:                  -5.786
REMARK INTRA:                  -0.097
REMARK UNBOUND:                -0.144
REMARK  Name = 1550473
REMARK  2 active torsions:
REMARK  status: ('A' for Active; 'I' for Inactive)
REMARK    1  A    between atoms: N_1  and  C_4
REMARK    2  A    between atoms: C_4  and  C_5
REMARK                            x       y       z     vdW  Elec       q    Type
REMARK                         _______ _______ _______ _____ _____    ______ ____
ROOT
ATOM      1  N   UNL     1       4.698   3.271  -5.178  0.00  0.00    -0.354 N 
ATOM      2  N   UNL     1       2.809   3.583  -3.875  0.00  0.00    -0.372 N 
ATOM      3  N   UNL     1       2.608   2.467  -5.870  0.00  0.00    -0.372 N 
ATOM      4  C   UNL     1       3.383   3.104  -4.985  0.00  0.00    +0.166 C 
ATOM      5  H   UNL     1       5.224   3.789  -4.484  0.00  0.00    +0.163 HD
ATOM      6  H   UNL     1       1.820   3.469  -3.700  0.00  0.00    +0.159 HD
ATOM      7  H   UNL     1       3.346   4.060  -3.161  0.00  0.00    +0.159 HD
ATOM      8  H   UNL     1       2.979   2.087  -6.731  0.00  0.00    +0.159 HD
ATOM      9  H   UNL     1       1.614   2.354  -5.719  0.00  0.00    +0.159 HD
ENDROOT
BRANCH   1  10
ATOM     10  C   UNL     1       5.430   2.741  -6.327  0.00  0.00    +0.151 C 
BRANCH  10  11
ATOM     11  C   UNL     1       6.728   3.486  -6.469  0.00  0.00    -0.028 A 
ATOM     12  C   UNL     1       6.965   4.297  -7.589  0.00  0.00    +0.005 A 
ATOM     13  C   UNL     1       7.724   3.389  -5.485  0.00  0.00    +0.005 A 
ATOM     14  C   UNL     1       8.159   5.013  -7.706  0.00  0.00    +0.000 A 
ATOM     15  C   UNL     1       8.915   4.105  -5.607  0.00  0.00    +0.000 A 
ATOM     16  C   UNL     1       9.131   4.918  -6.716  0.00  0.00    +0.000 A 
ENDBRANCH  10  11
ENDBRANCH   1  10
TORSDOF 2
ENDMDL
MODEL 8
REMARK VINA RESULT:    -5.134     16.202     17.196
REMARK INTER + INTRA:          -5.878
REMARK INTER:                  -5.735
REMARK INTRA:                  -0.143
REMARK UNBOUND:                -0.144
REMARK  Name = 1550473
REMARK  2 active torsions:
REMARK  status: ('A' for Active; 'I' for Inactive)
REMARK    1  A    between atoms: N_1  and  C_4
REMARK    2  A    between atoms: C_4  and  C_5
REMARK                            x       y       z     vdW  Elec       q    Type
REMARK                         _______ _______ _______ _____ _____    ______ ____
ROOT
ATOM      1  N   UNL     1       5.172   3.555  -5.378  0.00  0.00    -0.354 N 
ATOM      2  N   UNL     1       3.099   3.019  -4.496  0.00  0.00    -0.372 N 
ATOM      3  N   UNL     1       3.981   1.688  -6.144  0.00  0.00    -0.372 N 
ATOM      4  C   UNL     1       4.098   2.756  -5.347  0.00  0.00    +0.166 C 
ATOM      5  H   UNL     1       5.186   4.366  -4.770  0.00  0.00    +0.163 HD
ATOM      6  H   UNL     1       2.277   2.431  -4.448  0.00  0.00    +0.159 HD
ATOM      7  H   UNL     1       3.136   3.803  -3.857  0.00  0.00    +0.159 HD
ATOM      8  H   UNL     1       4.697   1.439  -6.813  0.00  0.00    +0.159 HD
ATOM      9  H   UNL     1       3.161   1.095  -6.119  0.00  0.00    +0.159 HD
ENDROOT
BRANCH   1  10
ATOM     10  C   UNL     1       6.338   3.326  -6.230  0.00  0.00    +0.151 C 
BRANCH  10  11
ATOM     11  C   UNL     1       6.673   4.600  -6.956  0.00  0.00    -0.028 A 
ATOM     12  C   UNL     1       5.877   5.743  -6.793  0.00  0.00    +0.005 A 
ATOM     13  C   UNL     1       7.789   4.671  -7.804  0.00  0.00    +0.005 A 
ATOM     14  C   UNL     1       6.206   6.935  -7.444  0.00  0.00    +0.000 A 
ATOM     15  C   UNL     1       8.113   5.863  -8.453  0.00  0.00    +0.000 A 
ATOM     16  C   UNL     1       7.323   6.995  -8.270  0.00  0.00    +0.000 A 
ENDBRANCH  10  11
ENDBRANCH   1  10
TORSDOF 2
ENDMDL
MODEL 9
REMARK VINA RESULT:    -5.040     14.718     16.291
REMARK INTER + INTRA:          -5.774
REMARK INTER:                  -5.649
REMARK INTRA:                  -0.125
REMARK UNBOUND:                -0.144
REMARK  Name = 1550473
REMARK  2 active torsions:
REMARK  status: ('A' for Active; 'I' for Inactive)
REMARK    1  A    between atoms: N_1  and  C_4
REMARK    2  A    between atoms: C_4  and  C_5
REMARK                            x       y       z     vdW  Elec       q    Type
REMARK                         _______ _______ _______ _____ _____    ______ ____
ROOT
ATOM      1  N   UNL     1      -5.159   0.551   2.568  0.00  0.00    -0.354 N 
ATOM      2  N   UNL     1      -5.302  -1.314   3.933  0.00  0.00    -0.372 N 
ATOM      3  N   UNL     1      -3.240  -0.397   3.521  0.00  0.00    -0.372 N 
ATOM      4  C   UNL     1      -4.563  -0.374   3.332  0.00  0.00    +0.166 C 
ATOM      5  H   UNL     1      -6.163   0.496   2.440  0.00  0.00    +0.163 HD
ATOM      6  H   UNL     1      -4.881  -2.024   4.518  0.00  0.00    +0.159 HD
ATOM      7  H   UNL     1      -6.311  -1.340   3.840  0.00  0.00    +0.159 HD
ATOM      8  H   UNL     1      -2.625   0.281   3.090  0.00  0.00    +0.159 HD
ATOM      9  H   UNL     1      -2.798  -1.106   4.093  0.00  0.00    +0.159 HD
ENDROOT
BRANCH   1  10
ATOM     10  C   UNL     1      -4.452   1.650   1.913  0.00  0.00    +0.151 C 
BRANCH  10  11
ATOM     11  C   UNL     1      -5.035   2.956   2.376  0.00  0.00    -0.028 A 
ATOM     12  C   UNL     1      -4.937   4.104   1.576  0.00  0.00    +0.005 A 
ATOM     13  C   UNL     1      -5.693   3.051   3.612  0.00  0.00    +0.005 A 
ATOM     14  C   UNL     1      -5.506   5.310   1.992  0.00  0.00    +0.000 A 
ATOM     15  C   UNL     1      -6.259   4.258   4.025  0.00  0.00    +0.000 A 
ATOM     16  C   UNL     1      -6.167   5.386   3.213  0.00  0.00    +0.000 A 
ENDBRANCH  10  11
ENDBRANCH   1  10
TORSDOF 2
ENDMDL
