MODEL 1
REMARK VINA RESULT:    -6.341      0.000      0.000
REMARK INTER + INTRA:          -7.230
REMARK INTER:                  -7.082
REMARK INTRA:                  -0.148
REMARK UNBOUND:                -0.148
REMARK  Name = 1550473
REMARK  2 active torsions:
REMARK  status: ('A' for Active; 'I' for Inactive)
REMARK    1  A    between atoms: N_1  and  C_4
REMARK    2  A    between atoms: C_4  and  C_5
REMARK                            x       y       z     vdW  Elec       q    Type
REMARK                         _______ _______ _______ _____ _____    ______ ____
ROOT
ATOM      1  N   UNL     1     -13.773  11.272   9.578  0.00  0.00    -0.354 N 
ATOM      2  N   UNL     1     -15.688  12.563   9.406  0.00  0.00    -0.372 N 
ATOM      3  N   UNL     1     -15.887  10.358  10.011  0.00  0.00    -0.372 N 
ATOM      4  C   UNL     1     -15.105  11.387   9.667  0.00  0.00    +0.166 C 
ATOM      5  H   UNL     1     -13.239  12.081   9.282  0.00  0.00    +0.163 HD
ATOM      6  H   UNL     1     -16.690  12.681   9.468  0.00  0.00    +0.159 HD
ATOM      7  H   UNL     1     -15.148  13.382   9.156  0.00  0.00    +0.159 HD
ATOM      8  H   UNL     1     -15.509   9.443  10.215  0.00  0.00    +0.159 HD
ATOM      9  H   UNL     1     -16.893  10.453  10.067  0.00  0.00    +0.159 HD
ENDROOT
BRANCH   1  10
ATOM     10  C   UNL     1     -13.035  10.050   9.893  0.00  0.00    +0.151 C 
BRANCH  10  11
ATOM     11  C   UNL     1     -12.343   9.560   8.651  0.00  0.00    -0.028 A 
ATOM     12  C   UNL     1     -11.863  10.470   7.697  0.00  0.00    +0.005 A 
ATOM     13  C   UNL     1     -12.159   8.187   8.424  0.00  0.00    +0.005 A 
ATOM     14  C   UNL     1     -11.194  10.016   6.558  0.00  0.00    +0.000 A 
ATOM     15  C   UNL     1     -11.491   7.739   7.285  0.00  0.00    +0.000 A 
ATOM     16  C   UNL     1     -11.006   8.653   6.354  0.00  0.00    +0.000 A 
ENDBRANCH  10  11
ENDBRANCH   1  10
TORSDOF 2
ENDMDL
MODEL 2
REMARK VINA RESULT:    -5.516     22.854     24.391
REMARK INTER + INTRA:          -6.309
REMARK INTER:                  -6.199
REMARK INTRA:                  -0.111
REMARK UNBOUND:                -0.148
REMARK  Name = 1550473
REMARK  2 active torsions:
REMARK  status: ('A' for Active; 'I' for Inactive)
REMARK    1  A    between atoms: N_1  and  C_4
REMARK    2  A    between atoms: C_4  and  C_5
REMARK                            x       y       z     vdW  Elec       q    Type
REMARK                         _______ _______ _______ _____ _____    ______ ____
ROOT
ATOM      1  N   UNL     1       0.381  -0.620  -7.224  0.00  0.00    -0.354 N 
ATOM      2  N   UNL     1       0.417   1.588  -7.922  0.00  0.00    -0.372 N 
ATOM      3  N   UNL     1       1.521   1.016  -5.993  0.00  0.00    -0.372 N 
ATOM      4  C   UNL     1       0.774   0.647  -7.039  0.00  0.00    +0.166 C 
ATOM      5  H   UNL     1      -0.209  -0.830  -8.021  0.00  0.00    +0.163 HD
ATOM      6  H   UNL     1       0.701   2.552  -7.811  0.00  0.00    +0.159 HD
ATOM      7  H   UNL     1      -0.135   1.367  -8.742  0.00  0.00    +0.159 HD
ATOM      8  H   UNL     1       1.819   0.355  -5.288  0.00  0.00    +0.159 HD
ATOM      9  H   UNL     1       1.806   1.978  -5.859  0.00  0.00    +0.159 HD
ENDROOT
BRANCH   1  10
ATOM     10  C   UNL     1       0.761  -1.730  -6.351  0.00  0.00    +0.151 C 
BRANCH  10  11
ATOM     11  C   UNL     1       0.561  -3.025  -7.088  0.00  0.00    -0.028 A 
ATOM     12  C   UNL     1      -0.564  -3.214  -7.904  0.00  0.00    +0.005 A 
ATOM     13  C   UNL     1       1.495  -4.066  -6.978  0.00  0.00    +0.005 A 
ATOM     14  C   UNL     1      -0.735  -4.406  -8.613  0.00  0.00    +0.000 A 
ATOM     15  C   UNL     1       1.320  -5.255  -7.686  0.00  0.00    +0.000 A 
ATOM     16  C   UNL     1       0.207  -5.424  -8.505  0.00  0.00    +0.000 A 
ENDBRANCH  10  11
ENDBRANCH   1  10
TORSDOF 2
ENDMDL
MODEL 3
REMARK VINA RESULT:    -5.451     24.414     25.252
REMARK INTER + INTRA:          -6.237
REMARK INTER:                  -6.090
REMARK INTRA:                  -0.147
REMARK UNBOUND:                -0.148
REMARK  Name = 1550473
REMARK  2 active torsions:
REMARK  status: ('A' for Active; 'I' for Inactive)
REMARK    1  A    between atoms: N_1  and  C_4
REMARK    2  A    between atoms: C_4  and  C_5
REMARK                            x       y       z     vdW  Elec       q    Type
REMARK                         _______ _______ _______ _____ _____    ______ ____
ROOT
ATOM      1  N   UNL     1       0.287  -7.670  -1.459  0.00  0.00    -0.354 N 
ATOM      2  N   UNL     1      -0.163  -9.549  -0.182  0.00  0.00    -0.372 N 
ATOM      3  N   UNL     1       2.012  -8.856  -0.407  0.00  0.00    -0.372 N 
ATOM      4  C   UNL     1       0.718  -8.679  -0.691  0.00  0.00    +0.166 C 
ATOM      5  H   UNL     1      -0.704  -7.608  -1.661  0.00  0.00    +0.163 HD
ATOM      6  H   UNL     1       0.132 -10.318   0.404  0.00  0.00    +0.159 HD
ATOM      7  H   UNL     1      -1.158  -9.458  -0.348  0.00  0.00    +0.159 HD
ATOM      8  H   UNL     1       2.728  -8.238  -0.765  0.00  0.00    +0.159 HD
ATOM      9  H   UNL     1       2.329  -9.627   0.168  0.00  0.00    +0.159 HD
ENDROOT
BRANCH   1  10
ATOM     10  C   UNL     1       1.158  -6.638  -2.018  0.00  0.00    +0.151 C 
BRANCH  10  11
ATOM     11  C   UNL     1       0.957  -6.578  -3.507  0.00  0.00    -0.028 A 
ATOM     12  C   UNL     1      -0.104  -7.269  -4.110  0.00  0.00    +0.005 A 
ATOM     13  C   UNL     1       1.820  -5.828  -4.319  0.00  0.00    +0.005 A 
ATOM     14  C   UNL     1      -0.309  -7.190  -5.489  0.00  0.00    +0.000 A 
ATOM     15  C   UNL     1       1.613  -5.752  -5.697  0.00  0.00    +0.000 A 
ATOM     16  C   UNL     1       0.546  -6.431  -6.281  0.00  0.00    +0.000 A 
ENDBRANCH  10  11
ENDBRANCH   1  10
TORSDOF 2
ENDMDL
MODEL 4
REMARK VINA RESULT:    -5.429     23.804     25.398
REMARK INTER + INTRA:          -6.212
REMARK INTER:                  -6.089
REMARK INTRA:                  -0.123
REMARK UNBOUND:                -0.148
REMARK  Name = 1550473
REMARK  2 active torsions:
REMARK  status: ('A' for Active; 'I' for Inactive)
REMARK    1  A    between atoms: N_1  and  C_4
REMARK    2  A    between atoms: C_4  and  C_5
REMARK                            x       y       z     vdW  Elec       q    Type
REMARK                         _______ _______ _______ _____ _____    ______ ____
ROOT
ATOM      1  N   UNL     1       2.449  -3.888  -4.408  0.00  0.00    -0.354 N 
ATOM      2  N   UNL     1       3.134  -2.168  -3.018  0.00  0.00    -0.372 N 
ATOM      3  N   UNL     1       2.679  -4.221  -2.100  0.00  0.00    -0.372 N 
ATOM      4  C   UNL     1       2.749  -3.439  -3.182  0.00  0.00    +0.166 C 
ATOM      5  H   UNL     1       2.493  -3.237  -5.184  0.00  0.00    +0.163 HD
ATOM      6  H   UNL     1       3.370  -1.801  -2.106  0.00  0.00    +0.159 HD
ATOM      7  H   UNL     1       3.222  -1.532  -3.801  0.00  0.00    +0.159 HD
ATOM      8  H   UNL     1       2.389  -5.188  -2.156  0.00  0.00    +0.159 HD
ATOM      9  H   UNL     1       2.900  -3.869  -1.177  0.00  0.00    +0.159 HD
ENDROOT
BRANCH   1  10
ATOM     10  C   UNL     1       2.071  -5.269  -4.703  0.00  0.00    +0.151 C 
BRANCH  10  11
ATOM     11  C   UNL     1       1.549  -5.346  -6.111  0.00  0.00    -0.028 A 
ATOM     12  C   UNL     1       0.953  -6.524  -6.586  0.00  0.00    +0.005 A 
ATOM     13  C   UNL     1       1.641  -4.243  -6.973  0.00  0.00    +0.005 A 
ATOM     14  C   UNL     1       0.441  -6.586  -7.884  0.00  0.00    +0.000 A 
ATOM     15  C   UNL     1       1.129  -4.309  -8.269  0.00  0.00    +0.000 A 
ATOM     16  C   UNL     1       0.527  -5.480  -8.723  0.00  0.00    +0.000 A 
ENDBRANCH  10  11
ENDBRANCH   1  10
TORSDOF 2
ENDMDL
MODEL 5
REMARK VINA RESULT:    -5.384     22.350     24.185
REMARK INTER + INTRA:          -6.162
REMARK INTER:                  -6.030
REMARK INTRA:                  -0.132
REMARK UNBOUND:                -0.148
REMARK  Name = 1550473
REMARK  2 active torsions:
REMARK  status: ('A' for Active; 'I' for Inactive)
REMARK    1  A    between atoms: N_1  and  C_4
REMARK    2  A    between atoms: C_4  and  C_5
REMARK                            x       y       z     vdW  Elec       q    Type
REMARK                         _______ _______ _______ _____ _____    ______ ____
ROOT
ATOM      1  N   UNL     1       1.619  -0.715  -5.268  0.00  0.00    -0.354 N 
ATOM      2  N   UNL     1       0.107   0.977  -5.731  0.00  0.00    -0.372 N 
ATOM      3  N   UNL     1       1.969   0.761  -7.054  0.00  0.00    -0.372 N 
ATOM      4  C   UNL     1       1.243   0.331  -6.017  0.00  0.00    +0.166 C 
ATOM      5  H   UNL     1       1.040  -0.972  -4.476  0.00  0.00    +0.163 HD
ATOM      6  H   UNL     1      -0.204   1.767  -6.281  0.00  0.00    +0.159 HD
ATOM      7  H   UNL     1      -0.493   0.689  -4.968  0.00  0.00    +0.159 HD
ATOM      8  H   UNL     1       2.840   0.320  -7.318  0.00  0.00    +0.159 HD
ATOM      9  H   UNL     1       1.681   1.557  -7.609  0.00  0.00    +0.159 HD
ENDROOT
BRANCH   1  10
ATOM     10  C   UNL     1       2.811  -1.520  -5.527  0.00  0.00    +0.151 C 
BRANCH  10  11
ATOM     11  C   UNL     1       2.427  -2.974  -5.544  0.00  0.00    -0.028 A 
ATOM     12  C   UNL     1       2.645  -3.782  -4.419  0.00  0.00    +0.005 A 
ATOM     13  C   UNL     1       1.840  -3.549  -6.682  0.00  0.00    +0.005 A 
ATOM     14  C   UNL     1       2.261  -5.125  -4.424  0.00  0.00    +0.000 A 
ATOM     15  C   UNL     1       1.459  -4.891  -6.684  0.00  0.00    +0.000 A 
ATOM     16  C   UNL     1       1.667  -5.678  -5.554  0.00  0.00    +0.000 A 
ENDBRANCH  10  11
ENDBRANCH   1  10
TORSDOF 2
ENDMDL
MODEL 6
REMARK VINA RESULT:    -5.300     16.007     17.887
REMARK INTER + INTRA:          -6.068
REMARK INTER:                  -5.934
REMARK INTRA:                  -0.134
REMARK UNBOUND:                -0.148
REMARK  Name = 1550473
REMARK  2 active torsions:
REMARK  status: ('A' for Active; 'I' for Inactive)
REMARK    1  A    between atoms: N_1  and  C_4
REMARK    2  A    between atoms: C_4  and  C_5
REMARK                            x       y       z     vdW  Elec       q    Type
REMARK                         _______ _______ _______ _____ _____    ______ ____
ROOT
ATOM      1  N   UNL     1      -2.022   0.332  -2.779  0.00  0.00    -0.354 N 
ATOM      2  N   UNL     1      -1.361   0.979  -4.902  0.00  0.00    -0.372 N 
ATOM      3  N   UNL     1      -0.071  -0.529  -3.751  0.00  0.00    -0.372 N 
ATOM      4  C   UNL     1      -1.154   0.255  -3.796  0.00  0.00    +0.166 C 
ATOM      5  H   UNL     1      -2.807   0.968  -2.863  0.00  0.00    +0.163 HD
ATOM      6  H   UNL     1      -0.725   0.939  -5.687  0.00  0.00    +0.159 HD
ATOM      7  H   UNL     1      -2.171   1.579  -5.002  0.00  0.00    +0.159 HD
ATOM      8  H   UNL     1       0.145  -1.096  -2.942  0.00  0.00    +0.159 HD
ATOM      9  H   UNL     1       0.583  -0.574  -4.522  0.00  0.00    +0.159 HD
ENDROOT
BRANCH   1  10
ATOM     10  C   UNL     1      -1.917  -0.456  -1.552  0.00  0.00    +0.151 C 
BRANCH  10  11
ATOM     11  C   UNL     1      -2.445   0.355  -0.401  0.00  0.00    -0.028 A 
ATOM     12  C   UNL     1      -2.629   1.739  -0.530  0.00  0.00    +0.005 A 
ATOM     13  C   UNL     1      -2.768  -0.257   0.820  0.00  0.00    +0.005 A 
ATOM     14  C   UNL     1      -3.147   2.488   0.529  0.00  0.00    +0.000 A 
ATOM     15  C   UNL     1      -3.284   0.495   1.876  0.00  0.00    +0.000 A 
ATOM     16  C   UNL     1      -3.476   1.866   1.729  0.00  0.00    +0.000 A 
ENDBRANCH  10  11
ENDBRANCH   1  10
TORSDOF 2
ENDMDL
MODEL 7
REMARK VINA RESULT:    -5.275     15.258     16.867
REMARK INTER + INTRA:          -6.040
REMARK INTER:                  -5.946
REMARK INTRA:                  -0.094
REMARK UNBOUND:                -0.148
REMARK  Name = 1550473
REMARK  2 active torsions:
REMARK  status: ('A' for Active; 'I' for Inactive)
REMARK    1  A    between atoms: N_1  and  C_4
REMARK    2  A    between atoms: C_4  and  C_5
REMARK                            x       y       z     vdW  Elec       q    Type
REMARK                         _______ _______ _______ _____ _____    ______ ____
ROOT
ATOM      1  N   UNL     1      -1.524  -1.101   2.808  0.00  0.00    -0.354 N 
ATOM      2  N   UNL     1       0.203  -2.031   4.041  0.00  0.00    -0.372 N 
ATOM      3  N   UNL     1      -1.226  -3.424   2.908  0.00  0.00    -0.372 N 
ATOM      4  C   UNL     1      -0.862  -2.182   3.244  0.00  0.00    +0.166 C 
ATOM      5  H   UNL     1      -1.215  -0.189   3.123  0.00  0.00    +0.163 HD
ATOM      6  H   UNL     1       0.724  -2.827   4.382  0.00  0.00    +0.159 HD
ATOM      7  H   UNL     1       0.537  -1.116   4.316  0.00  0.00    +0.159 HD
ATOM      8  H   UNL     1      -2.025  -3.606   2.314  0.00  0.00    +0.159 HD
ATOM      9  H   UNL     1      -0.724  -4.234   3.249  0.00  0.00    +0.159 HD
ENDROOT
BRANCH   1  10
ATOM     10  C   UNL     1      -2.663  -1.154   1.894  0.00  0.00    +0.151 C 
BRANCH  10  11
ATOM     11  C   UNL     1      -2.841   0.195   1.253  0.00  0.00    -0.028 A 
ATOM     12  C   UNL     1      -2.475   0.401  -0.085  0.00  0.00    +0.005 A 
ATOM     13  C   UNL     1      -3.380   1.269   1.977  0.00  0.00    +0.005 A 
ATOM     14  C   UNL     1      -2.667   1.646  -0.690  0.00  0.00    +0.000 A 
ATOM     15  C   UNL     1      -3.570   2.511   1.370  0.00  0.00    +0.000 A 
ATOM     16  C   UNL     1      -3.216   2.698   0.036  0.00  0.00    +0.000 A 
ENDBRANCH  10  11
ENDBRANCH   1  10
TORSDOF 2
ENDMDL
MODEL 8
REMARK VINA RESULT:    -5.212     24.616     25.634
REMARK INTER + INTRA:          -5.970
REMARK INTER:                  -5.854
REMARK INTRA:                  -0.116
REMARK UNBOUND:                -0.148
REMARK  Name = 1550473
REMARK  2 active torsions:
REMARK  status: ('A' for Active; 'I' for Inactive)
REMARK    1  A    between atoms: N_1  and  C_4
REMARK    2  A    between atoms: C_4  and  C_5
REMARK                            x       y       z     vdW  Elec       q    Type
REMARK                         _______ _______ _______ _____ _____    ______ ____
ROOT
ATOM      1  N   UNL     1       1.410  -6.201  -3.750  0.00  0.00    -0.354 N 
ATOM      2  N   UNL     1       0.889  -7.114  -1.686  0.00  0.00    -0.372 N 
ATOM      3  N   UNL     1       2.670  -5.676  -1.845  0.00  0.00    -0.372 N 
ATOM      4  C   UNL     1       1.662  -6.323  -2.440  0.00  0.00    +0.166 C 
ATOM      5  H   UNL     1       0.650  -6.741  -4.146  0.00  0.00    +0.163 HD
ATOM      6  H   UNL     1       1.053  -7.223  -0.694  0.00  0.00    +0.159 HD
ATOM      7  H   UNL     1       0.101  -7.617  -2.076  0.00  0.00    +0.159 HD
ATOM      8  H   UNL     1       3.294  -5.069  -2.359  0.00  0.00    +0.159 HD
ATOM      9  H   UNL     1       2.858  -5.782  -0.855  0.00  0.00    +0.159 HD
ENDROOT
BRANCH   1  10
ATOM     10  C   UNL     1       2.158  -5.323  -4.648  0.00  0.00    +0.151 C 
BRANCH  10  11
ATOM     11  C   UNL     1       1.561  -5.406  -6.026  0.00  0.00    -0.028 A 
ATOM     12  C   UNL     1       1.643  -4.316  -6.904  0.00  0.00    +0.005 A 
ATOM     13  C   UNL     1       0.917  -6.574  -6.461  0.00  0.00    +0.005 A 
ATOM     14  C   UNL     1       1.115  -4.403  -8.194  0.00  0.00    +0.000 A 
ATOM     15  C   UNL     1       0.390  -6.657  -7.749  0.00  0.00    +0.000 A 
ATOM     16  C   UNL     1       0.491  -5.572  -8.617  0.00  0.00    +0.000 A 
ENDBRANCH  10  11
ENDBRANCH   1  10
TORSDOF 2
ENDMDL
MODEL 9
REMARK VINA RESULT:    -5.116     22.542     24.049
REMARK INTER + INTRA:          -5.862
REMARK INTER:                  -5.724
REMARK INTRA:                  -0.138
REMARK UNBOUND:                -0.148
REMARK  Name = 1550473
REMARK  2 active torsions:
REMARK  status: ('A' for Active; 'I' for Inactive)
REMARK    1  A    between atoms: N_1  and  C_4
REMARK    2  A    between atoms: C_4  and  C_5
REMARK                            x       y       z     vdW  Elec       q    Type
REMARK                         _______ _______ _______ _____ _____    ______ ____
ROOT
ATOM      1  N   UNL     1       0.248  -7.888  -1.246  0.00  0.00    -0.354 N 
ATOM      2  N   UNL     1      -0.330  -9.235   0.548  0.00  0.00    -0.372 N 
ATOM      3  N   UNL     1       1.769  -9.433  -0.357  0.00  0.00    -0.372 N 
ATOM      4  C   UNL     1       0.568  -8.844  -0.364  0.00  0.00    +0.166 C 
ATOM      5  H   UNL     1      -0.689  -7.503  -1.218  0.00  0.00    +0.163 HD
ATOM      6  H   UNL     1      -0.116  -9.952   1.228  0.00  0.00    +0.159 HD
ATOM      7  H   UNL     1      -1.250  -8.815   0.603  0.00  0.00    +0.159 HD
ATOM      8  H   UNL     1       2.490  -9.188  -1.023  0.00  0.00    +0.159 HD
ATOM      9  H   UNL     1       1.999 -10.161   0.309  0.00  0.00    +0.159 HD
ENDROOT
BRANCH   1  10
ATOM     10  C   UNL     1       1.172  -7.353  -2.244  0.00  0.00    +0.151 C 
BRANCH  10  11
ATOM     11  C   UNL     1       1.190  -5.853  -2.143  0.00  0.00    -0.028 A 
ATOM     12  C   UNL     1       0.068  -5.158  -1.666  0.00  0.00    +0.005 A 
ATOM     13  C   UNL     1       2.327  -5.121  -2.518  0.00  0.00    +0.005 A 
ATOM     14  C   UNL     1       0.095  -3.767  -1.544  0.00  0.00    +0.000 A 
ATOM     15  C   UNL     1       2.349  -3.732  -2.395  0.00  0.00    +0.000 A 
ATOM     16  C   UNL     1       1.234  -3.055  -1.906  0.00  0.00    +0.000 A 
ENDBRANCH  10  11
ENDBRANCH   1  10
TORSDOF 2
ENDMDL
