MODEL 1
REMARK VINA RESULT:    -5.175      0.000      0.000
REMARK INTER + INTRA:          -5.927
REMARK INTER:                  -5.780
REMARK INTRA:                  -0.147
REMARK UNBOUND:                -0.147
REMARK  Name = 1550473
REMARK  2 active torsions:
REMARK  status: ('A' for Active; 'I' for Inactive)
REMARK    1  A    between atoms: N_1  and  C_4
REMARK    2  A    between atoms: C_4  and  C_5
REMARK                            x       y       z     vdW  Elec       q    Type
REMARK                         _______ _______ _______ _____ _____    ______ ____
ROOT
ATOM      1  N   UNL     1      16.894  18.756  30.690  0.00  0.00    -0.354 N 
ATOM      2  N   UNL     1      18.544  20.283  30.134  0.00  0.00    -0.372 N 
ATOM      3  N   UNL     1      17.944  18.688  28.596  0.00  0.00    -0.372 N 
ATOM      4  C   UNL     1      17.783  19.231  29.808  0.00  0.00    +0.166 C 
ATOM      5  H   UNL     1      16.841  19.192  31.604  0.00  0.00    +0.163 HD
ATOM      6  H   UNL     1      19.221  20.665  29.487  0.00  0.00    +0.159 HD
ATOM      7  H   UNL     1      18.457  20.746  31.030  0.00  0.00    +0.159 HD
ATOM      8  H   UNL     1      17.405  17.889  28.292  0.00  0.00    +0.159 HD
ATOM      9  H   UNL     1      18.625  19.050  27.940  0.00  0.00    +0.159 HD
ENDROOT
BRANCH   1  10
ATOM     10  C   UNL     1      15.980  17.648  30.415  0.00  0.00    +0.151 C 
BRANCH  10  11
ATOM     11  C   UNL     1      16.300  16.506  31.340  0.00  0.00    -0.028 A 
ATOM     12  C   UNL     1      16.360  15.192  30.854  0.00  0.00    +0.005 A 
ATOM     13  C   UNL     1      16.549  16.732  32.702  0.00  0.00    +0.005 A 
ATOM     14  C   UNL     1      16.686  14.134  31.706  0.00  0.00    +0.000 A 
ATOM     15  C   UNL     1      16.873  15.674  33.550  0.00  0.00    +0.000 A 
ATOM     16  C   UNL     1      16.944  14.375  33.052  0.00  0.00    +0.000 A 
ENDBRANCH  10  11
ENDBRANCH   1  10
TORSDOF 2
ENDMDL
MODEL 2
REMARK VINA RESULT:    -5.165      2.189      2.809
REMARK INTER + INTRA:          -5.916
REMARK INTER:                  -5.777
REMARK INTRA:                  -0.138
REMARK UNBOUND:                -0.147
REMARK  Name = 1550473
REMARK  2 active torsions:
REMARK  status: ('A' for Active; 'I' for Inactive)
REMARK    1  A    between atoms: N_1  and  C_4
REMARK    2  A    between atoms: C_4  and  C_5
REMARK                            x       y       z     vdW  Elec       q    Type
REMARK                         _______ _______ _______ _____ _____    ______ ____
ROOT
ATOM      1  N   UNL     1      19.834  19.698  31.755  0.00  0.00    -0.354 N 
ATOM      2  N   UNL     1      22.037  20.355  31.473  0.00  0.00    -0.372 N 
ATOM      3  N   UNL     1      20.741  19.994  29.614  0.00  0.00    -0.372 N 
ATOM      4  C   UNL     1      20.855  20.011  30.946  0.00  0.00    +0.166 C 
ATOM      5  H   UNL     1      19.994  19.701  32.756  0.00  0.00    +0.163 HD
ATOM      6  H   UNL     1      22.825  20.599  30.888  0.00  0.00    +0.159 HD
ATOM      7  H   UNL     1      22.181  20.401  32.474  0.00  0.00    +0.159 HD
ATOM      8  H   UNL     1      19.877  19.737  29.154  0.00  0.00    +0.159 HD
ATOM      9  H   UNL     1      21.521  20.224  29.012  0.00  0.00    +0.159 HD
ENDROOT
BRANCH   1  10
ATOM     10  C   UNL     1      18.491  19.362  31.284  0.00  0.00    +0.151 C 
BRANCH  10  11
ATOM     11  C   UNL     1      17.977  18.185  32.065  0.00  0.00    -0.028 A 
ATOM     12  C   UNL     1      16.747  17.596  31.738  0.00  0.00    +0.005 A 
ATOM     13  C   UNL     1      18.717  17.650  33.131  0.00  0.00    +0.005 A 
ATOM     14  C   UNL     1      16.282  16.484  32.445  0.00  0.00    +0.000 A 
ATOM     15  C   UNL     1      18.250  16.540  33.834  0.00  0.00    +0.000 A 
ATOM     16  C   UNL     1      17.034  15.956  33.489  0.00  0.00    +0.000 A 
ENDBRANCH  10  11
ENDBRANCH   1  10
TORSDOF 2
ENDMDL
MODEL 3
REMARK VINA RESULT:    -4.899      1.601      2.340
REMARK INTER + INTRA:          -5.618
REMARK INTER:                  -5.522
REMARK INTRA:                  -0.096
REMARK UNBOUND:                -0.147
REMARK  Name = 1550473
REMARK  2 active torsions:
REMARK  status: ('A' for Active; 'I' for Inactive)
REMARK    1  A    between atoms: N_1  and  C_4
REMARK    2  A    between atoms: C_4  and  C_5
REMARK                            x       y       z     vdW  Elec       q    Type
REMARK                         _______ _______ _______ _____ _____    ______ ____
ROOT
ATOM      1  N   UNL     1      18.533  18.139  31.449  0.00  0.00    -0.354 N 
ATOM      2  N   UNL     1      20.441  19.451  31.508  0.00  0.00    -0.372 N 
ATOM      3  N   UNL     1      18.460  20.338  32.254  0.00  0.00    -0.372 N 
ATOM      4  C   UNL     1      19.130  19.303  31.737  0.00  0.00    +0.166 C 
ATOM      5  H   UNL     1      19.091  17.402  31.031  0.00  0.00    +0.163 HD
ATOM      6  H   UNL     1      20.919  20.317  31.719  0.00  0.00    +0.159 HD
ATOM      7  H   UNL     1      21.005  18.698  31.133  0.00  0.00    +0.159 HD
ATOM      8  H   UNL     1      17.468  20.293  32.445  0.00  0.00    +0.159 HD
ATOM      9  H   UNL     1      18.919  21.217  32.460  0.00  0.00    +0.159 HD
ENDROOT
BRANCH   1  10
ATOM     10  C   UNL     1      17.123  17.856  31.710  0.00  0.00    +0.151 C 
BRANCH  10  11
ATOM     11  C   UNL     1      16.932  16.368  31.819  0.00  0.00    -0.028 A 
ATOM     12  C   UNL     1      17.070  15.722  33.056  0.00  0.00    +0.005 A 
ATOM     13  C   UNL     1      16.609  15.600  30.690  0.00  0.00    +0.005 A 
ATOM     14  C   UNL     1      16.863  14.344  33.164  0.00  0.00    +0.000 A 
ATOM     15  C   UNL     1      16.404  14.225  30.801  0.00  0.00    +0.000 A 
ATOM     16  C   UNL     1      16.529  13.598  32.039  0.00  0.00    +0.000 A 
ENDBRANCH  10  11
ENDBRANCH   1  10
TORSDOF 2
ENDMDL
MODEL 4
REMARK VINA RESULT:    -4.707     16.027     17.006
REMARK INTER + INTRA:          -5.404
REMARK INTER:                  -5.245
REMARK INTRA:                  -0.159
REMARK UNBOUND:                -0.147
REMARK  Name = 1550473
REMARK  2 active torsions:
REMARK  status: ('A' for Active; 'I' for Inactive)
REMARK    1  A    between atoms: N_1  and  C_4
REMARK    2  A    between atoms: C_4  and  C_5
REMARK                            x       y       z     vdW  Elec       q    Type
REMARK                         _______ _______ _______ _____ _____    ______ ____
ROOT
ATOM      1  N   UNL     1       2.312  13.295  25.875  0.00  0.00    -0.354 N 
ATOM      2  N   UNL     1       1.843  12.130  23.929  0.00  0.00    -0.372 N 
ATOM      3  N   UNL     1       1.037  11.330  25.922  0.00  0.00    -0.372 N 
ATOM      4  C   UNL     1       1.733  12.257  25.257  0.00  0.00    +0.166 C 
ATOM      5  H   UNL     1       2.851  13.948  25.317  0.00  0.00    +0.163 HD
ATOM      6  H   UNL     1       1.414  11.360  23.434  0.00  0.00    +0.159 HD
ATOM      7  H   UNL     1       2.344  12.809  23.368  0.00  0.00    +0.159 HD
ATOM      8  H   UNL     1       0.921  11.365  26.926  0.00  0.00    +0.159 HD
ATOM      9  H   UNL     1       0.610  10.545  25.447  0.00  0.00    +0.159 HD
ENDROOT
BRANCH   1  10
ATOM     10  C   UNL     1       2.206  13.555  27.310  0.00  0.00    +0.151 C 
BRANCH  10  11
ATOM     11  C   UNL     1       1.503  14.867  27.521  0.00  0.00    -0.028 A 
ATOM     12  C   UNL     1       0.115  14.968  27.345  0.00  0.00    +0.005 A 
ATOM     13  C   UNL     1       2.218  16.013  27.902  0.00  0.00    +0.005 A 
ATOM     14  C   UNL     1      -0.543  16.179  27.570  0.00  0.00    +0.000 A 
ATOM     15  C   UNL     1       1.558  17.221  28.125  0.00  0.00    +0.000 A 
ATOM     16  C   UNL     1       0.177  17.303  27.961  0.00  0.00    +0.000 A 
ENDBRANCH  10  11
ENDBRANCH   1  10
TORSDOF 2
ENDMDL
MODEL 5
REMARK VINA RESULT:    -4.633     19.817     21.362
REMARK INTER + INTRA:          -5.321
REMARK INTER:                  -5.177
REMARK INTRA:                  -0.145
REMARK UNBOUND:                -0.147
REMARK  Name = 1550473
REMARK  2 active torsions:
REMARK  status: ('A' for Active; 'I' for Inactive)
REMARK    1  A    between atoms: N_1  and  C_4
REMARK    2  A    between atoms: C_4  and  C_5
REMARK                            x       y       z     vdW  Elec       q    Type
REMARK                         _______ _______ _______ _____ _____    ______ ____
ROOT
ATOM      1  N   UNL     1      11.039  17.542  12.703  0.00  0.00    -0.354 N 
ATOM      2  N   UNL     1      12.058  16.837  14.660  0.00  0.00    -0.372 N 
ATOM      3  N   UNL     1      10.642  15.400  13.566  0.00  0.00    -0.372 N 
ATOM      4  C   UNL     1      11.238  16.595  13.630  0.00  0.00    +0.166 C 
ATOM      5  H   UNL     1      11.496  18.438  12.825  0.00  0.00    +0.163 HD
ATOM      6  H   UNL     1      12.230  16.140  15.372  0.00  0.00    +0.159 HD
ATOM      7  H   UNL     1      12.549  17.717  14.754  0.00  0.00    +0.159 HD
ATOM      8  H   UNL     1      10.007  15.157  12.817  0.00  0.00    +0.159 HD
ATOM      9  H   UNL     1      10.793  14.694  14.276  0.00  0.00    +0.159 HD
ENDROOT
BRANCH   1  10
ATOM     10  C   UNL     1      10.208  17.361  11.514  0.00  0.00    +0.151 C 
BRANCH  10  11
ATOM     11  C   UNL     1      11.074  17.464  10.289  0.00  0.00    -0.028 A 
ATOM     12  C   UNL     1      10.572  17.107   9.029  0.00  0.00    +0.005 A 
ATOM     13  C   UNL     1      12.396  17.925  10.380  0.00  0.00    +0.005 A 
ATOM     14  C   UNL     1      11.366  17.231   7.887  0.00  0.00    +0.000 A 
ATOM     15  C   UNL     1      13.187  18.047   9.238  0.00  0.00    +0.000 A 
ATOM     16  C   UNL     1      12.670  17.702   7.991  0.00  0.00    +0.000 A 
ENDBRANCH  10  11
ENDBRANCH   1  10
TORSDOF 2
ENDMDL
MODEL 6
REMARK VINA RESULT:    -4.586      3.087      3.934
REMARK INTER + INTRA:          -5.269
REMARK INTER:                  -5.176
REMARK INTRA:                  -0.093
REMARK UNBOUND:                -0.147
REMARK  Name = 1550473
REMARK  2 active torsions:
REMARK  status: ('A' for Active; 'I' for Inactive)
REMARK    1  A    between atoms: N_1  and  C_4
REMARK    2  A    between atoms: C_4  and  C_5
REMARK                            x       y       z     vdW  Elec       q    Type
REMARK                         _______ _______ _______ _____ _____    ______ ____
ROOT
ATOM      1  N   UNL     1      19.014  16.098  33.275  0.00  0.00    -0.354 N 
ATOM      2  N   UNL     1      21.053  17.057  33.809  0.00  0.00    -0.372 N 
ATOM      3  N   UNL     1      19.163  17.807  34.871  0.00  0.00    -0.372 N 
ATOM      4  C   UNL     1      19.728  16.983  33.983  0.00  0.00    +0.166 C 
ATOM      5  H   UNL     1      19.498  15.522  32.596  0.00  0.00    +0.163 HD
ATOM      6  H   UNL     1      21.619  17.712  34.331  0.00  0.00    +0.159 HD
ATOM      7  H   UNL     1      21.541  16.448  33.162  0.00  0.00    +0.159 HD
ATOM      8  H   UNL     1      18.167  17.805  35.045  0.00  0.00    +0.159 HD
ATOM      9  H   UNL     1      19.711  18.478  35.395  0.00  0.00    +0.159 HD
ENDROOT
BRANCH   1  10
ATOM     10  C   UNL     1      17.574  15.900  33.429  0.00  0.00    +0.151 C 
BRANCH  10  11
ATOM     11  C   UNL     1      17.088  14.968  32.353  0.00  0.00    -0.028 A 
ATOM     12  C   UNL     1      16.780  15.455  31.075  0.00  0.00    +0.005 A 
ATOM     13  C   UNL     1      16.941  13.595  32.605  0.00  0.00    +0.005 A 
ATOM     14  C   UNL     1      16.358  14.585  30.067  0.00  0.00    +0.000 A 
ATOM     15  C   UNL     1      16.518  12.730  31.596  0.00  0.00    +0.000 A 
ATOM     16  C   UNL     1      16.229  13.224  30.326  0.00  0.00    +0.000 A 
ENDBRANCH  10  11
ENDBRANCH   1  10
TORSDOF 2
ENDMDL
MODEL 7
REMARK VINA RESULT:    -4.521     20.077     21.639
REMARK INTER + INTRA:          -5.197
REMARK INTER:                  -5.081
REMARK INTRA:                  -0.116
REMARK UNBOUND:                -0.147
REMARK  Name = 1550473
REMARK  2 active torsions:
REMARK  status: ('A' for Active; 'I' for Inactive)
REMARK    1  A    between atoms: N_1  and  C_4
REMARK    2  A    between atoms: C_4  and  C_5
REMARK                            x       y       z     vdW  Elec       q    Type
REMARK                         _______ _______ _______ _____ _____    ______ ____
ROOT
ATOM      1  N   UNL     1      10.237  16.649  12.719  0.00  0.00    -0.354 N 
ATOM      2  N   UNL     1       9.990  15.994  14.927  0.00  0.00    -0.372 N 
ATOM      3  N   UNL     1      12.041  16.735  14.213  0.00  0.00    -0.372 N 
ATOM      4  C   UNL     1      10.760  16.464  13.938  0.00  0.00    +0.166 C 
ATOM      5  H   UNL     1       9.267  16.396  12.568  0.00  0.00    +0.163 HD
ATOM      6  H   UNL     1      10.356  15.848  15.858  0.00  0.00    +0.159 HD
ATOM      7  H   UNL     1       9.009  15.785  14.784  0.00  0.00    +0.159 HD
ATOM      8  H   UNL     1      12.676  17.087  13.509  0.00  0.00    +0.159 HD
ATOM      9  H   UNL     1      12.428  16.584  15.136  0.00  0.00    +0.159 HD
ENDROOT
BRANCH   1  10
ATOM     10  C   UNL     1      10.976  17.207  11.588  0.00  0.00    +0.151 C 
BRANCH  10  11
ATOM     11  C   UNL     1      10.012  17.519  10.477  0.00  0.00    -0.028 A 
ATOM     12  C   UNL     1       8.740  18.036  10.762  0.00  0.00    +0.005 A 
ATOM     13  C   UNL     1      10.367  17.305   9.136  0.00  0.00    +0.005 A 
ATOM     14  C   UNL     1       7.856  18.354   9.728  0.00  0.00    +0.000 A 
ATOM     15  C   UNL     1       9.481  17.623   8.107  0.00  0.00    +0.000 A 
ATOM     16  C   UNL     1       8.226  18.149   8.404  0.00  0.00    +0.000 A 
ENDBRANCH  10  11
ENDBRANCH   1  10
TORSDOF 2
ENDMDL
MODEL 8
REMARK VINA RESULT:    -4.407     58.609     59.810
REMARK INTER + INTRA:          -5.069
REMARK INTER:                  -4.901
REMARK INTRA:                  -0.169
REMARK UNBOUND:                -0.147
REMARK  Name = 1550473
REMARK  2 active torsions:
REMARK  status: ('A' for Active; 'I' for Inactive)
REMARK    1  A    between atoms: N_1  and  C_4
REMARK    2  A    between atoms: C_4  and  C_5
REMARK                            x       y       z     vdW  Elec       q    Type
REMARK                         _______ _______ _______ _____ _____    ______ ____
ROOT
ATOM      1  N   UNL     1     -10.125  -8.377 -17.754  0.00  0.00    -0.354 N 
ATOM      2  N   UNL     1     -12.317  -9.004 -17.348  0.00  0.00    -0.372 N 
ATOM      3  N   UNL     1     -11.887  -6.857 -18.032  0.00  0.00    -0.372 N 
ATOM      4  C   UNL     1     -11.429  -8.072 -17.714  0.00  0.00    +0.166 C 
ATOM      5  H   UNL     1      -9.839  -9.307 -17.472  0.00  0.00    +0.163 HD
ATOM      6  H   UNL     1     -13.308  -8.805 -17.312  0.00  0.00    +0.159 HD
ATOM      7  H   UNL     1     -12.033  -9.947 -17.111  0.00  0.00    +0.159 HD
ATOM      8  H   UNL     1     -11.268  -6.107 -18.311  0.00  0.00    +0.159 HD
ATOM      9  H   UNL     1     -12.874  -6.634 -17.991  0.00  0.00    +0.159 HD
ENDROOT
BRANCH   1  10
ATOM     10  C   UNL     1      -9.082  -7.450 -18.191  0.00  0.00    +0.151 C 
BRANCH  10  11
ATOM     11  C   UNL     1      -8.385  -6.890 -16.982  0.00  0.00    -0.028 A 
ATOM     12  C   UNL     1      -8.009  -7.731 -15.923  0.00  0.00    +0.005 A 
ATOM     13  C   UNL     1      -8.091  -5.521 -16.891  0.00  0.00    +0.005 A 
ATOM     14  C   UNL     1      -7.334  -7.216 -14.814  0.00  0.00    +0.000 A 
ATOM     15  C   UNL     1      -7.418  -5.011 -15.781  0.00  0.00    +0.000 A 
ATOM     16  C   UNL     1      -7.038  -5.859 -14.744  0.00  0.00    +0.000 A 
ENDBRANCH  10  11
ENDBRANCH   1  10
TORSDOF 2
ENDMDL
MODEL 9
REMARK VINA RESULT:    -4.353     17.322     18.795
REMARK INTER + INTRA:          -5.009
REMARK INTER:                  -4.880
REMARK INTRA:                  -0.129
REMARK UNBOUND:                -0.147
REMARK  Name = 1550473
REMARK  2 active torsions:
REMARK  status: ('A' for Active; 'I' for Inactive)
REMARK    1  A    between atoms: N_1  and  C_4
REMARK    2  A    between atoms: C_4  and  C_5
REMARK                            x       y       z     vdW  Elec       q    Type
REMARK                         _______ _______ _______ _____ _____    ______ ____
ROOT
ATOM      1  N   UNL     1       6.417   0.407  33.286  0.00  0.00    -0.354 N 
ATOM      2  N   UNL     1       5.123  -0.076  31.427  0.00  0.00    -0.372 N 
ATOM      3  N   UNL     1       7.404   0.031  31.194  0.00  0.00    -0.372 N 
ATOM      4  C   UNL     1       6.326   0.124  31.980  0.00  0.00    +0.166 C 
ATOM      5  H   UNL     1       5.561   0.494  33.821  0.00  0.00    +0.163 HD
ATOM      6  H   UNL     1       5.023  -0.294  30.445  0.00  0.00    +0.159 HD
ATOM      7  H   UNL     1       4.272  -0.034  31.974  0.00  0.00    +0.159 HD
ATOM      8  H   UNL     1       8.339   0.177  31.549  0.00  0.00    +0.159 HD
ATOM      9  H   UNL     1       7.323  -0.175  30.206  0.00  0.00    +0.159 HD
ENDROOT
BRANCH   1  10
ATOM     10  C   UNL     1       7.682   0.590  33.997  0.00  0.00    +0.151 C 
BRANCH  10  11
ATOM     11  C   UNL     1       7.629   1.877  34.772  0.00  0.00    -0.028 A 
ATOM     12  C   UNL     1       8.718   2.760  34.761  0.00  0.00    +0.005 A 
ATOM     13  C   UNL     1       6.489   2.223  35.514  0.00  0.00    +0.005 A 
ATOM     14  C   UNL     1       8.658   3.971  35.456  0.00  0.00    +0.000 A 
ATOM     15  C   UNL     1       6.433   3.431  36.208  0.00  0.00    +0.000 A 
ATOM     16  C   UNL     1       7.516   4.306  36.177  0.00  0.00    +0.000 A 
ENDBRANCH  10  11
ENDBRANCH   1  10
TORSDOF 2
ENDMDL
