MODEL 1
REMARK VINA RESULT:    -6.043      0.000      0.000
REMARK INTER + INTRA:          -6.898
REMARK INTER:                  -6.749
REMARK INTRA:                  -0.149
REMARK UNBOUND:                -0.149
REMARK  Name = 1550473
REMARK  2 active torsions:
REMARK  status: ('A' for Active; 'I' for Inactive)
REMARK    1  A    between atoms: N_1  and  C_4
REMARK    2  A    between atoms: C_4  and  C_5
REMARK                            x       y       z     vdW  Elec       q    Type
REMARK                         _______ _______ _______ _____ _____    ______ ____
ROOT
ATOM      1  N   UNL     1      -6.538  -2.370  -3.711  0.00  0.00    -0.354 N 
ATOM      2  N   UNL     1      -8.351  -3.583  -2.932  0.00  0.00    -0.372 N 
ATOM      3  N   UNL     1      -8.616  -1.345  -3.362  0.00  0.00    -0.372 N 
ATOM      4  C   UNL     1      -7.824  -2.422  -3.340  0.00  0.00    +0.166 C 
ATOM      5  H   UNL     1      -5.983  -3.216  -3.643  0.00  0.00    +0.163 HD
ATOM      6  H   UNL     1      -9.319  -3.654  -2.649  0.00  0.00    +0.159 HD
ATOM      7  H   UNL     1      -7.806  -4.436  -2.908  0.00  0.00    +0.159 HD
ATOM      8  H   UNL     1      -8.278  -0.438  -3.654  0.00  0.00    +0.159 HD
ATOM      9  H   UNL     1      -9.585  -1.393  -3.071  0.00  0.00    +0.159 HD
ENDROOT
BRANCH   1  10
ATOM     10  C   UNL     1      -5.883  -1.168  -4.223  0.00  0.00    +0.151 C 
BRANCH  10  11
ATOM     11  C   UNL     1      -5.164  -0.482  -3.093  0.00  0.00    -0.028 A 
ATOM     12  C   UNL     1      -5.763   0.590  -2.415  0.00  0.00    +0.005 A 
ATOM     13  C   UNL     1      -3.887  -0.903  -2.693  0.00  0.00    +0.005 A 
ATOM     14  C   UNL     1      -5.109   1.208  -1.347  0.00  0.00    +0.000 A 
ATOM     15  C   UNL     1      -3.237  -0.283  -1.626  0.00  0.00    +0.000 A 
ATOM     16  C   UNL     1      -3.849   0.770  -0.952  0.00  0.00    +0.000 A 
ENDBRANCH  10  11
ENDBRANCH   1  10
TORSDOF 2
ENDMDL
MODEL 2
REMARK VINA RESULT:    -5.934      1.796      1.948
REMARK INTER + INTRA:          -6.778
REMARK INTER:                  -6.604
REMARK INTRA:                  -0.174
REMARK UNBOUND:                -0.149
REMARK  Name = 1550473
REMARK  2 active torsions:
REMARK  status: ('A' for Active; 'I' for Inactive)
REMARK    1  A    between atoms: N_1  and  C_4
REMARK    2  A    between atoms: C_4  and  C_5
REMARK                            x       y       z     vdW  Elec       q    Type
REMARK                         _______ _______ _______ _____ _____    ______ ____
ROOT
ATOM      1  N   UNL     1      -4.341  -2.490  -4.462  0.00  0.00    -0.354 N 
ATOM      2  N   UNL     1      -5.387  -4.552  -4.593  0.00  0.00    -0.372 N 
ATOM      3  N   UNL     1      -6.551  -2.676  -5.217  0.00  0.00    -0.372 N 
ATOM      4  C   UNL     1      -5.422  -3.224  -4.757  0.00  0.00    +0.166 C 
ATOM      5  H   UNL     1      -3.525  -2.963  -4.089  0.00  0.00    +0.163 HD
ATOM      6  H   UNL     1      -6.186  -5.133  -4.811  0.00  0.00    +0.159 HD
ATOM      7  H   UNL     1      -4.555  -5.027  -4.263  0.00  0.00    +0.159 HD
ATOM      8  H   UNL     1      -6.644  -1.679  -5.358  0.00  0.00    +0.159 HD
ATOM      9  H   UNL     1      -7.366  -3.239  -5.429  0.00  0.00    +0.159 HD
ENDROOT
BRANCH   1  10
ATOM     10  C   UNL     1      -4.257  -1.044  -4.656  0.00  0.00    +0.151 C 
BRANCH  10  11
ATOM     11  C   UNL     1      -4.350  -0.363  -3.318  0.00  0.00    -0.028 A 
ATOM     12  C   UNL     1      -5.425   0.489  -3.027  0.00  0.00    +0.005 A 
ATOM     13  C   UNL     1      -3.369  -0.570  -2.336  0.00  0.00    +0.005 A 
ATOM     14  C   UNL     1      -5.528   1.098  -1.774  0.00  0.00    +0.000 A 
ATOM     15  C   UNL     1      -3.475   0.041  -1.087  0.00  0.00    +0.000 A 
ATOM     16  C   UNL     1      -4.556   0.873  -0.805  0.00  0.00    +0.000 A 
ENDBRANCH  10  11
ENDBRANCH   1  10
TORSDOF 2
ENDMDL
MODEL 3
REMARK VINA RESULT:    -5.685     16.601     17.990
REMARK INTER + INTRA:          -6.500
REMARK INTER:                  -6.361
REMARK INTRA:                  -0.138
REMARK UNBOUND:                -0.149
REMARK  Name = 1550473
REMARK  2 active torsions:
REMARK  status: ('A' for Active; 'I' for Inactive)
REMARK    1  A    between atoms: N_1  and  C_4
REMARK    2  A    between atoms: C_4  and  C_5
REMARK                            x       y       z     vdW  Elec       q    Type
REMARK                         _______ _______ _______ _____ _____    ______ ____
ROOT
ATOM      1  N   UNL     1      11.027  -5.325   2.013  0.00  0.00    -0.354 N 
ATOM      2  N   UNL     1       9.781  -6.954   3.090  0.00  0.00    -0.372 N 
ATOM      3  N   UNL     1      11.742  -6.245   4.046  0.00  0.00    -0.372 N 
ATOM      4  C   UNL     1      10.860  -6.164   3.044  0.00  0.00    +0.166 C 
ATOM      5  H   UNL     1      10.337  -5.333   1.270  0.00  0.00    +0.163 HD
ATOM      6  H   UNL     1       9.626  -7.594   3.857  0.00  0.00    +0.159 HD
ATOM      7  H   UNL     1       9.070  -6.927   2.369  0.00  0.00    +0.159 HD
ATOM      8  H   UNL     1      12.581  -5.680   4.068  0.00  0.00    +0.159 HD
ATOM      9  H   UNL     1      11.611  -6.888   4.817  0.00  0.00    +0.159 HD
ENDROOT
BRANCH   1  10
ATOM     10  C   UNL     1      12.140  -4.385   1.895  0.00  0.00    +0.151 C 
BRANCH  10  11
ATOM     11  C   UNL     1      11.595  -3.011   1.618  0.00  0.00    -0.028 A 
ATOM     12  C   UNL     1      10.354  -2.852   0.985  0.00  0.00    +0.005 A 
ATOM     13  C   UNL     1      12.313  -1.865   1.992  0.00  0.00    +0.005 A 
ATOM     14  C   UNL     1       9.834  -1.576   0.754  0.00  0.00    +0.000 A 
ATOM     15  C   UNL     1      11.790  -0.593   1.760  0.00  0.00    +0.000 A 
ATOM     16  C   UNL     1      10.550  -0.449   1.143  0.00  0.00    +0.000 A 
ENDBRANCH  10  11
ENDBRANCH   1  10
TORSDOF 2
ENDMDL
MODEL 4
REMARK VINA RESULT:    -5.455     16.292     17.479
REMARK INTER + INTRA:          -6.243
REMARK INTER:                  -6.078
REMARK INTRA:                  -0.165
REMARK UNBOUND:                -0.149
REMARK  Name = 1550473
REMARK  2 active torsions:
REMARK  status: ('A' for Active; 'I' for Inactive)
REMARK    1  A    between atoms: N_1  and  C_4
REMARK    2  A    between atoms: C_4  and  C_5
REMARK                            x       y       z     vdW  Elec       q    Type
REMARK                         _______ _______ _______ _____ _____    ______ ____
ROOT
ATOM      1  N   UNL     1      11.040  -5.188   2.216  0.00  0.00    -0.354 N 
ATOM      2  N   UNL     1       9.424  -6.673   2.957  0.00  0.00    -0.372 N 
ATOM      3  N   UNL     1       9.549  -6.197   0.715  0.00  0.00    -0.372 N 
ATOM      4  C   UNL     1      10.014  -6.009   1.955  0.00  0.00    +0.166 C 
ATOM      5  H   UNL     1      11.325  -5.066   3.181  0.00  0.00    +0.163 HD
ATOM      6  H   UNL     1       8.651  -7.302   2.790  0.00  0.00    +0.159 HD
ATOM      7  H   UNL     1       9.742  -6.584   3.914  0.00  0.00    +0.159 HD
ATOM      8  H   UNL     1       9.947  -5.721  -0.084  0.00  0.00    +0.159 HD
ATOM      9  H   UNL     1       8.768  -6.814   0.530  0.00  0.00    +0.159 HD
ENDROOT
BRANCH   1  10
ATOM     10  C   UNL     1      11.785  -4.460   1.191  0.00  0.00    +0.151 C 
BRANCH  10  11
ATOM     11  C   UNL     1      11.415  -3.004   1.255  0.00  0.00    -0.028 A 
ATOM     12  C   UNL     1      12.265  -2.080   1.881  0.00  0.00    +0.005 A 
ATOM     13  C   UNL     1      10.219  -2.541   0.686  0.00  0.00    +0.005 A 
ATOM     14  C   UNL     1      11.936  -0.723   1.914  0.00  0.00    +0.000 A 
ATOM     15  C   UNL     1       9.894  -1.185   0.722  0.00  0.00    +0.000 A 
ATOM     16  C   UNL     1      10.753  -0.276   1.334  0.00  0.00    +0.000 A 
ENDBRANCH  10  11
ENDBRANCH   1  10
TORSDOF 2
ENDMDL
MODEL 5
REMARK VINA RESULT:    -5.409      2.876      3.866
REMARK INTER + INTRA:          -6.190
REMARK INTER:                  -6.103
REMARK INTRA:                  -0.088
REMARK UNBOUND:                -0.149
REMARK  Name = 1550473
REMARK  2 active torsions:
REMARK  status: ('A' for Active; 'I' for Inactive)
REMARK    1  A    between atoms: N_1  and  C_4
REMARK    2  A    between atoms: C_4  and  C_5
REMARK                            x       y       z     vdW  Elec       q    Type
REMARK                         _______ _______ _______ _____ _____    ______ ____
ROOT
ATOM      1  N   UNL     1      -4.348  -0.543  -5.488  0.00  0.00    -0.354 N 
ATOM      2  N   UNL     1      -5.245   0.353  -7.426  0.00  0.00    -0.372 N 
ATOM      3  N   UNL     1      -3.284   1.219  -6.609  0.00  0.00    -0.372 N 
ATOM      4  C   UNL     1      -4.284   0.339  -6.495  0.00  0.00    +0.166 C 
ATOM      5  H   UNL     1      -5.148  -1.163  -5.441  0.00  0.00    +0.163 HD
ATOM      6  H   UNL     1      -5.222   1.004  -8.200  0.00  0.00    +0.159 HD
ATOM      7  H   UNL     1      -6.020  -0.299  -7.403  0.00  0.00    +0.159 HD
ATOM      8  H   UNL     1      -2.531   1.264  -5.935  0.00  0.00    +0.159 HD
ATOM      9  H   UNL     1      -3.249   1.886  -7.369  0.00  0.00    +0.159 HD
ENDROOT
BRANCH   1  10
ATOM     10  C   UNL     1      -3.326  -0.676  -4.452  0.00  0.00    +0.151 C 
BRANCH  10  11
ATOM     11  C   UNL     1      -3.877  -0.167  -3.149  0.00  0.00    -0.028 A 
ATOM     12  C   UNL     1      -3.184  -0.384  -1.949  0.00  0.00    +0.005 A 
ATOM     13  C   UNL     1      -5.090   0.538  -3.108  0.00  0.00    +0.005 A 
ATOM     14  C   UNL     1      -3.681   0.115  -0.742  0.00  0.00    +0.000 A 
ATOM     15  C   UNL     1      -5.583   1.033  -1.901  0.00  0.00    +0.000 A 
ATOM     16  C   UNL     1      -4.877   0.824  -0.719  0.00  0.00    +0.000 A 
ENDBRANCH  10  11
ENDBRANCH   1  10
TORSDOF 2
ENDMDL
MODEL 6
REMARK VINA RESULT:    -5.395     16.948     18.228
REMARK INTER + INTRA:          -6.175
REMARK INTER:                  -6.066
REMARK INTRA:                  -0.109
REMARK UNBOUND:                -0.149
REMARK  Name = 1550473
REMARK  2 active torsions:
REMARK  status: ('A' for Active; 'I' for Inactive)
REMARK    1  A    between atoms: N_1  and  C_4
REMARK    2  A    between atoms: C_4  and  C_5
REMARK                            x       y       z     vdW  Elec       q    Type
REMARK                         _______ _______ _______ _____ _____    ______ ____
ROOT
ATOM      1  N   UNL     1      11.900  -4.581   1.754  0.00  0.00    -0.354 N 
ATOM      2  N   UNL     1      13.953  -5.612   1.459  0.00  0.00    -0.372 N 
ATOM      3  N   UNL     1      12.603  -5.286  -0.367  0.00  0.00    -0.372 N 
ATOM      4  C   UNL     1      12.804  -5.153   0.948  0.00  0.00    +0.166 C 
ATOM      5  H   UNL     1      12.100  -4.538   2.747  0.00  0.00    +0.163 HD
ATOM      6  H   UNL     1      14.656  -6.045   0.875  0.00  0.00    +0.159 HD
ATOM      7  H   UNL     1      14.170  -5.525   2.444  0.00  0.00    +0.159 HD
ATOM      8  H   UNL     1      11.754  -4.967  -0.814  0.00  0.00    +0.159 HD
ATOM      9  H   UNL     1      13.289  -5.728  -0.967  0.00  0.00    +0.159 HD
ENDROOT
BRANCH   1  10
ATOM     10  C   UNL     1      10.641  -4.002   1.290  0.00  0.00    +0.151 C 
BRANCH  10  11
ATOM     11  C   UNL     1      10.767  -2.504   1.271  0.00  0.00    -0.028 A 
ATOM     12  C   UNL     1      11.864  -1.874   1.877  0.00  0.00    +0.005 A 
ATOM     13  C   UNL     1       9.795  -1.708   0.645  0.00  0.00    +0.005 A 
ATOM     14  C   UNL     1      11.997  -0.484   1.834  0.00  0.00    +0.000 A 
ATOM     15  C   UNL     1       9.931  -0.320   0.605  0.00  0.00    +0.000 A 
ATOM     16  C   UNL     1      11.034   0.291   1.198  0.00  0.00    +0.000 A 
ENDBRANCH  10  11
ENDBRANCH   1  10
TORSDOF 2
ENDMDL
MODEL 7
REMARK VINA RESULT:    -5.375     17.349     18.647
REMARK INTER + INTRA:          -6.153
REMARK INTER:                  -6.000
REMARK INTRA:                  -0.153
REMARK UNBOUND:                -0.149
REMARK  Name = 1550473
REMARK  2 active torsions:
REMARK  status: ('A' for Active; 'I' for Inactive)
REMARK    1  A    between atoms: N_1  and  C_4
REMARK    2  A    between atoms: C_4  and  C_5
REMARK                            x       y       z     vdW  Elec       q    Type
REMARK                         _______ _______ _______ _____ _____    ______ ____
ROOT
ATOM      1  N   UNL     1      12.132  -2.925   0.733  0.00  0.00    -0.354 N 
ATOM      2  N   UNL     1      12.062  -0.756   1.543  0.00  0.00    -0.372 N 
ATOM      3  N   UNL     1      13.127  -2.369   2.781  0.00  0.00    -0.372 N 
ATOM      4  C   UNL     1      12.442  -2.032   1.683  0.00  0.00    +0.166 C 
ATOM      5  H   UNL     1      11.584  -2.613  -0.060  0.00  0.00    +0.163 HD
ATOM      6  H   UNL     1      12.285  -0.059   2.241  0.00  0.00    +0.159 HD
ATOM      7  H   UNL     1      11.555  -0.437   0.727  0.00  0.00    +0.159 HD
ATOM      8  H   UNL     1      13.438  -3.316   2.949  0.00  0.00    +0.159 HD
ATOM      9  H   UNL     1      13.350  -1.688   3.496  0.00  0.00    +0.159 HD
ENDROOT
BRANCH   1  10
ATOM     10  C   UNL     1      12.544  -4.327   0.763  0.00  0.00    +0.151 C 
BRANCH  10  11
ATOM     11  C   UNL     1      11.480  -5.138   1.450  0.00  0.00    -0.028 A 
ATOM     12  C   UNL     1      10.205  -5.268   0.879  0.00  0.00    +0.005 A 
ATOM     13  C   UNL     1      11.741  -5.782   2.669  0.00  0.00    +0.005 A 
ATOM     14  C   UNL     1       9.226  -6.046   1.501  0.00  0.00    +0.000 A 
ATOM     15  C   UNL     1      10.760  -6.557   3.287  0.00  0.00    +0.000 A 
ATOM     16  C   UNL     1       9.503  -6.691   2.702  0.00  0.00    +0.000 A 
ENDBRANCH  10  11
ENDBRANCH   1  10
TORSDOF 2
ENDMDL
MODEL 8
REMARK VINA RESULT:    -5.361     20.736     21.898
REMARK INTER + INTRA:          -6.137
REMARK INTER:                  -6.024
REMARK INTRA:                  -0.112
REMARK UNBOUND:                -0.149
REMARK  Name = 1550473
REMARK  2 active torsions:
REMARK  status: ('A' for Active; 'I' for Inactive)
REMARK    1  A    between atoms: N_1  and  C_4
REMARK    2  A    between atoms: C_4  and  C_5
REMARK                            x       y       z     vdW  Elec       q    Type
REMARK                         _______ _______ _______ _____ _____    ______ ____
ROOT
ATOM      1  N   UNL     1       5.847 -13.527 -14.855  0.00  0.00    -0.354 N 
ATOM      2  N   UNL     1       5.614 -13.384 -17.155  0.00  0.00    -0.372 N 
ATOM      3  N   UNL     1       6.579 -11.634 -16.028  0.00  0.00    -0.372 N 
ATOM      4  C   UNL     1       6.016 -12.847 -15.997  0.00  0.00    +0.166 C 
ATOM      5  H   UNL     1       5.385 -14.428 -14.896  0.00  0.00    +0.163 HD
ATOM      6  H   UNL     1       5.731 -12.896 -18.033  0.00  0.00    +0.159 HD
ATOM      7  H   UNL     1       5.194 -14.305 -17.198  0.00  0.00    +0.159 HD
ATOM      8  H   UNL     1       6.899 -11.171 -15.188  0.00  0.00    +0.159 HD
ATOM      9  H   UNL     1       6.695 -11.125 -16.895  0.00  0.00    +0.159 HD
ENDROOT
BRANCH   1  10
ATOM     10  C   UNL     1       6.298 -13.054 -13.548  0.00  0.00    +0.151 C 
BRANCH  10  11
ATOM     11  C   UNL     1       7.488 -13.867 -13.116  0.00  0.00    -0.028 A 
ATOM     12  C   UNL     1       7.446 -14.615 -11.930  0.00  0.00    +0.005 A 
ATOM     13  C   UNL     1       8.657 -13.897 -13.890  0.00  0.00    +0.005 A 
ATOM     14  C   UNL     1       8.540 -15.394 -11.544  0.00  0.00    +0.000 A 
ATOM     15  C   UNL     1       9.748 -14.675 -13.501  0.00  0.00    +0.000 A 
ATOM     16  C   UNL     1       9.687 -15.425 -12.329  0.00  0.00    +0.000 A 
ENDBRANCH  10  11
ENDBRANCH   1  10
TORSDOF 2
ENDMDL
MODEL 9
REMARK VINA RESULT:    -5.293      1.693      2.366
REMARK INTER + INTRA:          -6.062
REMARK INTER:                  -5.964
REMARK INTRA:                  -0.098
REMARK UNBOUND:                -0.149
REMARK  Name = 1550473
REMARK  2 active torsions:
REMARK  status: ('A' for Active; 'I' for Inactive)
REMARK    1  A    between atoms: N_1  and  C_4
REMARK    2  A    between atoms: C_4  and  C_5
REMARK                            x       y       z     vdW  Elec       q    Type
REMARK                         _______ _______ _______ _____ _____    ______ ____
ROOT
ATOM      1  N   UNL     1      -6.557  -1.325  -4.388  0.00  0.00    -0.354 N 
ATOM      2  N   UNL     1      -8.429  -2.588  -4.902  0.00  0.00    -0.372 N 
ATOM      3  N   UNL     1      -6.727  -3.563  -3.712  0.00  0.00    -0.372 N 
ATOM      4  C   UNL     1      -7.224  -2.486  -4.329  0.00  0.00    +0.166 C 
ATOM      5  H   UNL     1      -6.976  -0.555  -4.897  0.00  0.00    +0.163 HD
ATOM      6  H   UNL     1      -8.957  -3.450  -4.872  0.00  0.00    +0.159 HD
ATOM      7  H   UNL     1      -8.865  -1.803  -5.371  0.00  0.00    +0.159 HD
ATOM      8  H   UNL     1      -5.820  -3.552  -3.264  0.00  0.00    +0.159 HD
ATOM      9  H   UNL     1      -7.235  -4.437  -3.680  0.00  0.00    +0.159 HD
ENDROOT
BRANCH   1  10
ATOM     10  C   UNL     1      -5.263  -1.093  -3.750  0.00  0.00    +0.151 C 
BRANCH  10  11
ATOM     11  C   UNL     1      -5.118   0.374  -3.453  0.00  0.00    -0.028 A 
ATOM     12  C   UNL     1      -4.614   1.251  -4.424  0.00  0.00    +0.005 A 
ATOM     13  C   UNL     1      -5.487   0.894  -2.203  0.00  0.00    +0.005 A 
ATOM     14  C   UNL     1      -4.508   2.619  -4.159  0.00  0.00    +0.000 A 
ATOM     15  C   UNL     1      -5.378   2.260  -1.941  0.00  0.00    +0.000 A 
ATOM     16  C   UNL     1      -4.891   3.122  -2.920  0.00  0.00    +0.000 A 
ENDBRANCH  10  11
ENDBRANCH   1  10
TORSDOF 2
ENDMDL
