MODEL 1
REMARK VINA RESULT:    -5.775      0.000      0.000
REMARK INTER + INTRA:          -6.611
REMARK INTER:                  -6.451
REMARK INTRA:                  -0.161
REMARK UNBOUND:                -0.161
REMARK  Name = 1550473
REMARK  2 active torsions:
REMARK  status: ('A' for Active; 'I' for Inactive)
REMARK    1  A    between atoms: N_1  and  C_4
REMARK    2  A    between atoms: C_4  and  C_5
REMARK                            x       y       z     vdW  Elec       q    Type
REMARK                         _______ _______ _______ _____ _____    ______ ____
ROOT
ATOM      1  N   UNL     1      11.581  -9.185   7.844  0.00  0.00    -0.354 N 
ATOM      2  N   UNL     1      10.081  -8.993   6.089  0.00  0.00    -0.372 N 
ATOM      3  N   UNL     1      12.295  -8.525   5.712  0.00  0.00    -0.372 N 
ATOM      4  C   UNL     1      11.331  -8.901   6.559  0.00  0.00    +0.166 C 
ATOM      5  H   UNL     1      10.801  -9.435   8.442  0.00  0.00    +0.163 HD
ATOM      6  H   UNL     1       9.863  -8.789   5.123  0.00  0.00    +0.159 HD
ATOM      7  H   UNL     1       9.311  -9.288   6.678  0.00  0.00    +0.159 HD
ATOM      8  H   UNL     1      13.259  -8.431   6.005  0.00  0.00    +0.159 HD
ATOM      9  H   UNL     1      12.095  -8.305   4.744  0.00  0.00    +0.159 HD
ENDROOT
BRANCH   1  10
ATOM     10  C   UNL     1      12.915  -9.168   8.441  0.00  0.00    +0.151 C 
BRANCH  10  11
ATOM     11  C   UNL     1      12.946  -8.147   9.544  0.00  0.00    -0.028 A 
ATOM     12  C   UNL     1      12.907  -6.777   9.248  0.00  0.00    +0.005 A 
ATOM     13  C   UNL     1      13.010  -8.544  10.889  0.00  0.00    +0.005 A 
ATOM     14  C   UNL     1      12.906  -5.829  10.274  0.00  0.00    +0.000 A 
ATOM     15  C   UNL     1      13.010  -7.594  11.910  0.00  0.00    +0.000 A 
ATOM     16  C   UNL     1      12.955  -6.237  11.603  0.00  0.00    +0.000 A 
ENDBRANCH  10  11
ENDBRANCH   1  10
TORSDOF 2
ENDMDL
MODEL 2
REMARK VINA RESULT:    -5.471     18.465     19.706
REMARK INTER + INTRA:          -6.272
REMARK INTER:                  -6.149
REMARK INTRA:                  -0.123
REMARK UNBOUND:                -0.161
REMARK  Name = 1550473
REMARK  2 active torsions:
REMARK  status: ('A' for Active; 'I' for Inactive)
REMARK    1  A    between atoms: N_1  and  C_4
REMARK    2  A    between atoms: C_4  and  C_5
REMARK                            x       y       z     vdW  Elec       q    Type
REMARK                         _______ _______ _______ _____ _____    ______ ____
ROOT
ATOM      1  N   UNL     1      -1.156   1.876   0.471  0.00  0.00    -0.354 N 
ATOM      2  N   UNL     1       0.628   0.610  -0.291  0.00  0.00    -0.372 N 
ATOM      3  N   UNL     1      -1.066   1.130  -1.749  0.00  0.00    -0.372 N 
ATOM      4  C   UNL     1      -0.545   1.214  -0.520  0.00  0.00    +0.166 C 
ATOM      5  H   UNL     1      -0.723   1.876   1.388  0.00  0.00    +0.163 HD
ATOM      6  H   UNL     1       1.114   0.106  -1.021  0.00  0.00    +0.159 HD
ATOM      7  H   UNL     1       1.081   0.652   0.614  0.00  0.00    +0.159 HD
ATOM      8  H   UNL     1      -1.951   1.558  -1.985  0.00  0.00    +0.159 HD
ATOM      9  H   UNL     1      -0.600   0.620  -2.489  0.00  0.00    +0.159 HD
ENDROOT
BRANCH   1  10
ATOM     10  C   UNL     1      -2.409   2.612   0.312  0.00  0.00    +0.151 C 
BRANCH  10  11
ATOM     11  C   UNL     1      -2.843   3.137   1.652  0.00  0.00    -0.028 A 
ATOM     12  C   UNL     1      -1.985   3.061   2.759  0.00  0.00    +0.005 A 
ATOM     13  C   UNL     1      -4.110   3.717   1.821  0.00  0.00    +0.005 A 
ATOM     14  C   UNL     1      -2.376   3.577   3.997  0.00  0.00    +0.000 A 
ATOM     15  C   UNL     1      -4.497   4.229   3.059  0.00  0.00    +0.000 A 
ATOM     16  C   UNL     1      -3.629   4.161   4.146  0.00  0.00    +0.000 A 
ENDBRANCH  10  11
ENDBRANCH   1  10
TORSDOF 2
ENDMDL
MODEL 3
REMARK VINA RESULT:    -5.442      1.223      1.922
REMARK INTER + INTRA:          -6.239
REMARK INTER:                  -6.095
REMARK INTRA:                  -0.144
REMARK UNBOUND:                -0.161
REMARK  Name = 1550473
REMARK  2 active torsions:
REMARK  status: ('A' for Active; 'I' for Inactive)
REMARK    1  A    between atoms: N_1  and  C_4
REMARK    2  A    between atoms: C_4  and  C_5
REMARK                            x       y       z     vdW  Elec       q    Type
REMARK                         _______ _______ _______ _____ _____    ______ ____
ROOT
ATOM      1  N   UNL     1      11.186  -8.585   7.756  0.00  0.00    -0.354 N 
ATOM      2  N   UNL     1      11.216 -10.179   6.076  0.00  0.00    -0.372 N 
ATOM      3  N   UNL     1      11.173  -7.959   5.498  0.00  0.00    -0.372 N 
ATOM      4  C   UNL     1      11.191  -8.895   6.453  0.00  0.00    +0.166 C 
ATOM      5  H   UNL     1      11.169  -9.341   8.431  0.00  0.00    +0.163 HD
ATOM      6  H   UNL     1      11.225 -10.443   5.100  0.00  0.00    +0.159 HD
ATOM      7  H   UNL     1      11.247 -10.932   6.753  0.00  0.00    +0.159 HD
ATOM      8  H   UNL     1      11.148  -6.972   5.716  0.00  0.00    +0.159 HD
ATOM      9  H   UNL     1      11.169  -8.204   4.516  0.00  0.00    +0.159 HD
ENDROOT
BRANCH   1  10
ATOM     10  C   UNL     1      11.213  -7.217   8.271  0.00  0.00    +0.151 C 
BRANCH  10  11
ATOM     11  C   UNL     1      12.392  -7.063   9.192  0.00  0.00    -0.028 A 
ATOM     12  C   UNL     1      13.200  -8.166   9.506  0.00  0.00    +0.005 A 
ATOM     13  C   UNL     1      12.710  -5.815   9.749  0.00  0.00    +0.005 A 
ATOM     14  C   UNL     1      14.313  -8.017  10.337  0.00  0.00    +0.000 A 
ATOM     15  C   UNL     1      13.822  -5.670  10.579  0.00  0.00    +0.000 A 
ATOM     16  C   UNL     1      14.624  -6.771  10.871  0.00  0.00    +0.000 A 
ENDBRANCH  10  11
ENDBRANCH   1  10
TORSDOF 2
ENDMDL
MODEL 4
REMARK VINA RESULT:    -4.717     17.988     19.264
REMARK INTER + INTRA:          -5.429
REMARK INTER:                  -5.255
REMARK INTRA:                  -0.175
REMARK UNBOUND:                -0.161
REMARK  Name = 1550473
REMARK  2 active torsions:
REMARK  status: ('A' for Active; 'I' for Inactive)
REMARK    1  A    between atoms: N_1  and  C_4
REMARK    2  A    between atoms: C_4  and  C_5
REMARK                            x       y       z     vdW  Elec       q    Type
REMARK                         _______ _______ _______ _____ _____    ______ ____
ROOT
ATOM      1  N   UNL     1      -3.332  -0.463   2.958  0.00  0.00    -0.354 N 
ATOM      2  N   UNL     1      -3.392   1.073   4.690  0.00  0.00    -0.372 N 
ATOM      3  N   UNL     1      -4.782   1.377   2.890  0.00  0.00    -0.372 N 
ATOM      4  C   UNL     1      -3.837   0.654   3.500  0.00  0.00    +0.166 C 
ATOM      5  H   UNL     1      -2.595  -0.949   3.457  0.00  0.00    +0.163 HD
ATOM      6  H   UNL     1      -3.756   1.910   5.126  0.00  0.00    +0.159 HD
ATOM      7  H   UNL     1      -2.689   0.560   5.208  0.00  0.00    +0.159 HD
ATOM      8  H   UNL     1      -5.156   1.117   1.987  0.00  0.00    +0.159 HD
ATOM      9  H   UNL     1      -5.151   2.224   3.305  0.00  0.00    +0.159 HD
ENDROOT
BRANCH   1  10
ATOM     10  C   UNL     1      -3.786  -1.035   1.692  0.00  0.00    +0.151 C 
BRANCH  10  11
ATOM     11  C   UNL     1      -2.817  -0.654   0.606  0.00  0.00    -0.028 A 
ATOM     12  C   UNL     1      -3.275  -0.070  -0.584  0.00  0.00    +0.005 A 
ATOM     13  C   UNL     1      -1.439  -0.871   0.763  0.00  0.00    +0.005 A 
ATOM     14  C   UNL     1      -2.373   0.311  -1.580  0.00  0.00    +0.000 A 
ATOM     15  C   UNL     1      -0.542  -0.490  -0.234  0.00  0.00    +0.000 A 
ATOM     16  C   UNL     1      -1.009   0.103  -1.405  0.00  0.00    +0.000 A 
ENDBRANCH  10  11
ENDBRANCH   1  10
TORSDOF 2
ENDMDL
MODEL 5
REMARK VINA RESULT:    -4.711     24.786     25.897
REMARK INTER + INTRA:          -5.422
REMARK INTER:                  -5.298
REMARK INTRA:                  -0.124
REMARK UNBOUND:                -0.161
REMARK  Name = 1550473
REMARK  2 active torsions:
REMARK  status: ('A' for Active; 'I' for Inactive)
REMARK    1  A    between atoms: N_1  and  C_4
REMARK    2  A    between atoms: C_4  and  C_5
REMARK                            x       y       z     vdW  Elec       q    Type
REMARK                         _______ _______ _______ _____ _____    ______ ____
ROOT
ATOM      1  N   UNL     1      -5.716   7.205   2.853  0.00  0.00    -0.354 N 
ATOM      2  N   UNL     1      -4.886   5.332   3.933  0.00  0.00    -0.372 N 
ATOM      3  N   UNL     1      -7.074   5.933   4.277  0.00  0.00    -0.372 N 
ATOM      4  C   UNL     1      -5.900   6.169   3.682  0.00  0.00    +0.166 C 
ATOM      5  H   UNL     1      -4.794   7.347   2.457  0.00  0.00    +0.163 HD
ATOM      6  H   UNL     1      -4.997   4.539   4.552  0.00  0.00    +0.159 HD
ATOM      7  H   UNL     1      -3.979   5.449   3.500  0.00  0.00    +0.159 HD
ATOM      8  H   UNL     1      -7.877   6.531   4.134  0.00  0.00    +0.159 HD
ATOM      9  H   UNL     1      -7.201   5.152   4.909  0.00  0.00    +0.159 HD
ENDROOT
BRANCH   1  10
ATOM     10  C   UNL     1      -6.769   8.144   2.471  0.00  0.00    +0.151 C 
BRANCH  10  11
ATOM     11  C   UNL     1      -6.254   9.044   1.382  0.00  0.00    -0.028 A 
ATOM     12  C   UNL     1      -4.952   8.887   0.886  0.00  0.00    +0.005 A 
ATOM     13  C   UNL     1      -7.065  10.052   0.839  0.00  0.00    +0.005 A 
ATOM     14  C   UNL     1      -4.483   9.703  -0.147  0.00  0.00    +0.000 A 
ATOM     15  C   UNL     1      -6.593  10.865  -0.192  0.00  0.00    +0.000 A 
ATOM     16  C   UNL     1      -5.303  10.689  -0.686  0.00  0.00    +0.000 A 
ENDBRANCH  10  11
ENDBRANCH   1  10
TORSDOF 2
ENDMDL
MODEL 6
REMARK VINA RESULT:    -4.695     33.841     34.691
REMARK INTER + INTRA:          -5.405
REMARK INTER:                  -5.266
REMARK INTRA:                  -0.139
REMARK UNBOUND:                -0.161
REMARK  Name = 1550473
REMARK  2 active torsions:
REMARK  status: ('A' for Active; 'I' for Inactive)
REMARK    1  A    between atoms: N_1  and  C_4
REMARK    2  A    between atoms: C_4  and  C_5
REMARK                            x       y       z     vdW  Elec       q    Type
REMARK                         _______ _______ _______ _____ _____    ______ ____
ROOT
ATOM      1  N   UNL     1     -17.361  -0.016  -7.433  0.00  0.00    -0.354 N 
ATOM      2  N   UNL     1     -17.760  -1.230  -9.365  0.00  0.00    -0.372 N 
ATOM      3  N   UNL     1     -19.546  -0.400  -8.188  0.00  0.00    -0.372 N 
ATOM      4  C   UNL     1     -18.222  -0.540  -8.315  0.00  0.00    +0.166 C 
ATOM      5  H   UNL     1     -16.371  -0.183  -7.569  0.00  0.00    +0.163 HD
ATOM      6  H   UNL     1     -18.385  -1.634 -10.049  0.00  0.00    +0.159 HD
ATOM      7  H   UNL     1     -16.768  -1.356  -9.524  0.00  0.00    +0.159 HD
ATOM      8  H   UNL     1     -19.959   0.104  -7.414  0.00  0.00    +0.159 HD
ATOM      9  H   UNL     1     -20.189  -0.807  -8.855  0.00  0.00    +0.159 HD
ENDROOT
BRANCH   1  10
ATOM     10  C   UNL     1     -17.759   0.797  -6.285  0.00  0.00    +0.151 C 
BRANCH  10  11
ATOM     11  C   UNL     1     -16.823   1.968  -6.165  0.00  0.00    -0.028 A 
ATOM     12  C   UNL     1     -16.933   2.859  -5.087  0.00  0.00    +0.005 A 
ATOM     13  C   UNL     1     -15.821   2.189  -7.122  0.00  0.00    +0.005 A 
ATOM     14  C   UNL     1     -16.045   3.930  -4.958  0.00  0.00    +0.000 A 
ATOM     15  C   UNL     1     -14.937   3.260  -6.990  0.00  0.00    +0.000 A 
ATOM     16  C   UNL     1     -15.048   4.129  -5.907  0.00  0.00    +0.000 A 
ENDBRANCH  10  11
ENDBRANCH   1  10
TORSDOF 2
ENDMDL
MODEL 7
REMARK VINA RESULT:    -4.656      1.821      2.564
REMARK INTER + INTRA:          -5.361
REMARK INTER:                  -5.266
REMARK INTRA:                  -0.095
REMARK UNBOUND:                -0.161
REMARK  Name = 1550473
REMARK  2 active torsions:
REMARK  status: ('A' for Active; 'I' for Inactive)
REMARK    1  A    between atoms: N_1  and  C_4
REMARK    2  A    between atoms: C_4  and  C_5
REMARK                            x       y       z     vdW  Elec       q    Type
REMARK                         _______ _______ _______ _____ _____    ______ ____
ROOT
ATOM      1  N   UNL     1      12.062  -9.387   7.828  0.00  0.00    -0.354 N 
ATOM      2  N   UNL     1      10.573  -9.042   6.088  0.00  0.00    -0.372 N 
ATOM      3  N   UNL     1      10.569  -7.581   7.858  0.00  0.00    -0.372 N 
ATOM      4  C   UNL     1      11.077  -8.670   7.271  0.00  0.00    +0.166 C 
ATOM      5  H   UNL     1      12.383 -10.219   7.347  0.00  0.00    +0.163 HD
ATOM      6  H   UNL     1       9.832  -8.519   5.642  0.00  0.00    +0.159 HD
ATOM      7  H   UNL     1      10.927  -9.848   5.588  0.00  0.00    +0.159 HD
ATOM      8  H   UNL     1      10.901  -7.252   8.754  0.00  0.00    +0.159 HD
ATOM      9  H   UNL     1       9.818  -7.051   7.433  0.00  0.00    +0.159 HD
ENDROOT
BRANCH   1  10
ATOM     10  C   UNL     1      12.717  -9.037   9.088  0.00  0.00    +0.151 C 
BRANCH  10  11
ATOM     11  C   UNL     1      13.769  -7.996   8.822  0.00  0.00    -0.028 A 
ATOM     12  C   UNL     1      14.693  -8.167   7.780  0.00  0.00    +0.005 A 
ATOM     13  C   UNL     1      13.844  -6.833   9.604  0.00  0.00    +0.005 A 
ATOM     14  C   UNL     1      15.651  -7.186   7.514  0.00  0.00    +0.000 A 
ATOM     15  C   UNL     1      14.802  -5.857   9.335  0.00  0.00    +0.000 A 
ATOM     16  C   UNL     1      15.704  -6.032   8.289  0.00  0.00    +0.000 A 
ENDBRANCH  10  11
ENDBRANCH   1  10
TORSDOF 2
ENDMDL
MODEL 8
REMARK VINA RESULT:    -4.559     29.888     31.251
REMARK INTER + INTRA:          -5.253
REMARK INTER:                  -5.134
REMARK INTRA:                  -0.119
REMARK UNBOUND:                -0.161
REMARK  Name = 1550473
REMARK  2 active torsions:
REMARK  status: ('A' for Active; 'I' for Inactive)
REMARK    1  A    between atoms: N_1  and  C_4
REMARK    2  A    between atoms: C_4  and  C_5
REMARK                            x       y       z     vdW  Elec       q    Type
REMARK                         _______ _______ _______ _____ _____    ______ ____
ROOT
ATOM      1  N   UNL     1     -15.159 -12.848  -7.841  0.00  0.00    -0.354 N 
ATOM      2  N   UNL     1     -14.610 -12.626 -10.080  0.00  0.00    -0.372 N 
ATOM      3  N   UNL     1     -13.547 -11.298  -8.541  0.00  0.00    -0.372 N 
ATOM      4  C   UNL     1     -14.441 -12.257  -8.805  0.00  0.00    +0.166 C 
ATOM      5  H   UNL     1     -15.842 -13.547  -8.110  0.00  0.00    +0.163 HD
ATOM      6  H   UNL     1     -14.080 -12.201 -10.829  0.00  0.00    +0.159 HD
ATOM      7  H   UNL     1     -15.260 -13.358 -10.341  0.00  0.00    +0.159 HD
ATOM      8  H   UNL     1     -13.377 -10.969  -7.600  0.00  0.00    +0.159 HD
ATOM      9  H   UNL     1     -13.015 -10.851  -9.277  0.00  0.00    +0.159 HD
ENDROOT
BRANCH   1  10
ATOM     10  C   UNL     1     -15.013 -12.557  -6.416  0.00  0.00    +0.151 C 
BRANCH  10  11
ATOM     11  C   UNL     1     -14.293 -13.698  -5.753  0.00  0.00    -0.028 A 
ATOM     12  C   UNL     1     -14.090 -14.906  -6.437  0.00  0.00    +0.005 A 
ATOM     13  C   UNL     1     -13.806 -13.577  -4.443  0.00  0.00    +0.005 A 
ATOM     14  C   UNL     1     -13.395 -15.956  -5.832  0.00  0.00    +0.000 A 
ATOM     15  C   UNL     1     -13.113 -14.628  -3.842  0.00  0.00    +0.000 A 
ATOM     16  C   UNL     1     -12.906 -15.816  -4.538  0.00  0.00    +0.000 A 
ENDBRANCH  10  11
ENDBRANCH   1  10
TORSDOF 2
ENDMDL
MODEL 9
REMARK VINA RESULT:    -4.550     18.749     19.172
REMARK INTER + INTRA:          -5.243
REMARK INTER:                  -5.115
REMARK INTRA:                  -0.128
REMARK UNBOUND:                -0.161
REMARK  Name = 1550473
REMARK  2 active torsions:
REMARK  status: ('A' for Active; 'I' for Inactive)
REMARK    1  A    between atoms: N_1  and  C_4
REMARK    2  A    between atoms: C_4  and  C_5
REMARK                            x       y       z     vdW  Elec       q    Type
REMARK                         _______ _______ _______ _____ _____    ______ ____
ROOT
ATOM      1  N   UNL     1      -3.940  -0.971   3.989  0.00  0.00    -0.354 N 
ATOM      2  N   UNL     1      -4.750  -3.067   3.428  0.00  0.00    -0.372 N 
ATOM      3  N   UNL     1      -6.004  -1.725   4.804  0.00  0.00    -0.372 N 
ATOM      4  C   UNL     1      -4.895  -1.906   4.079  0.00  0.00    +0.166 C 
ATOM      5  H   UNL     1      -3.110  -1.181   3.448  0.00  0.00    +0.163 HD
ATOM      6  H   UNL     1      -5.455  -3.790   3.475  0.00  0.00    +0.159 HD
ATOM      7  H   UNL     1      -3.940  -3.257   2.851  0.00  0.00    +0.159 HD
ATOM      8  H   UNL     1      -6.171  -0.874   5.324  0.00  0.00    +0.159 HD
ATOM      9  H   UNL     1      -6.716  -2.442   4.872  0.00  0.00    +0.159 HD
ENDROOT
BRANCH   1  10
ATOM     10  C   UNL     1      -4.026   0.347   4.616  0.00  0.00    +0.151 C 
BRANCH  10  11
ATOM     11  C   UNL     1      -3.304   1.348   3.755  0.00  0.00    -0.028 A 
ATOM     12  C   UNL     1      -2.601   2.412   4.338  0.00  0.00    +0.005 A 
ATOM     13  C   UNL     1      -3.314   1.233   2.357  0.00  0.00    +0.005 A 
ATOM     14  C   UNL     1      -1.906   3.325   3.540  0.00  0.00    +0.000 A 
ATOM     15  C   UNL     1      -2.619   2.146   1.564  0.00  0.00    +0.000 A 
ATOM     16  C   UNL     1      -1.914   3.190   2.156  0.00  0.00    +0.000 A 
ENDBRANCH  10  11
ENDBRANCH   1  10
TORSDOF 2
ENDMDL
