MODEL 1
REMARK VINA RESULT:    -5.635      0.000      0.000
REMARK INTER + INTRA:          -6.428
REMARK INTER:                  -6.294
REMARK INTRA:                  -0.134
REMARK UNBOUND:                -0.134
REMARK  Name = 1550473
REMARK  2 active torsions:
REMARK  status: ('A' for Active; 'I' for Inactive)
REMARK    1  A    between atoms: N_1  and  C_4
REMARK    2  A    between atoms: C_4  and  C_5
REMARK                            x       y       z     vdW  Elec       q    Type
REMARK                         _______ _______ _______ _____ _____    ______ ____
ROOT
ATOM      1  N   UNL     1       3.257 -16.299   6.268  0.00  0.00    -0.354 N 
ATOM      2  N   UNL     1       2.639 -14.827   7.946  0.00  0.00    -0.372 N 
ATOM      3  N   UNL     1       2.672 -17.075   8.400  0.00  0.00    -0.372 N 
ATOM      4  C   UNL     1       2.859 -16.079   7.528  0.00  0.00    +0.166 C 
ATOM      5  H   UNL     1       3.351 -15.503   5.648  0.00  0.00    +0.163 HD
ATOM      6  H   UNL     1       2.342 -14.630   8.892  0.00  0.00    +0.159 HD
ATOM      7  H   UNL     1       2.779 -14.029   7.337  0.00  0.00    +0.159 HD
ATOM      8  H   UNL     1       2.816 -18.044   8.146  0.00  0.00    +0.159 HD
ATOM      9  H   UNL     1       2.364 -16.899   9.348  0.00  0.00    +0.159 HD
ENDROOT
BRANCH   1  10
ATOM     10  C   UNL     1       3.575 -17.620   5.729  0.00  0.00    +0.151 C 
BRANCH  10  11
ATOM     11  C   UNL     1       4.722 -17.493   4.765  0.00  0.00    -0.028 A 
ATOM     12  C   UNL     1       5.166 -18.607   4.037  0.00  0.00    +0.005 A 
ATOM     13  C   UNL     1       5.365 -16.261   4.570  0.00  0.00    +0.005 A 
ATOM     14  C   UNL     1       6.211 -18.483   3.118  0.00  0.00    +0.000 A 
ATOM     15  C   UNL     1       6.409 -16.142   3.653  0.00  0.00    +0.000 A 
ATOM     16  C   UNL     1       6.831 -17.253   2.926  0.00  0.00    +0.000 A 
ENDBRANCH  10  11
ENDBRANCH   1  10
TORSDOF 2
ENDMDL
MODEL 2
REMARK VINA RESULT:    -5.574     40.102     40.355
REMARK INTER + INTRA:          -6.360
REMARK INTER:                  -6.209
REMARK INTRA:                  -0.150
REMARK UNBOUND:                -0.134
REMARK  Name = 1550473
REMARK  2 active torsions:
REMARK  status: ('A' for Active; 'I' for Inactive)
REMARK    1  A    between atoms: N_1  and  C_4
REMARK    2  A    between atoms: C_4  and  C_5
REMARK                            x       y       z     vdW  Elec       q    Type
REMARK                         _______ _______ _______ _____ _____    ______ ____
ROOT
ATOM      1  N   UNL     1     -21.892  -2.794 -20.222  0.00  0.00    -0.354 N 
ATOM      2  N   UNL     1     -23.377  -3.892 -18.825  0.00  0.00    -0.372 N 
ATOM      3  N   UNL     1     -24.111  -2.070 -20.011  0.00  0.00    -0.372 N 
ATOM      4  C   UNL     1     -23.118  -2.910 -19.696  0.00  0.00    +0.166 C 
ATOM      5  H   UNL     1     -21.175  -3.444 -19.919  0.00  0.00    +0.163 HD
ATOM      6  H   UNL     1     -24.294  -4.007 -18.415  0.00  0.00    +0.159 HD
ATOM      7  H   UNL     1     -22.671  -4.568 -18.559  0.00  0.00    +0.159 HD
ATOM      8  H   UNL     1     -23.979  -1.304 -20.658  0.00  0.00    +0.159 HD
ATOM      9  H   UNL     1     -25.032  -2.161 -19.602  0.00  0.00    +0.159 HD
ENDROOT
BRANCH   1  10
ATOM     10  C   UNL     1     -21.521  -1.792 -21.220  0.00  0.00    +0.151 C 
BRANCH  10  11
ATOM     11  C   UNL     1     -21.045  -2.490 -22.464  0.00  0.00    -0.028 A 
ATOM     12  C   UNL     1     -21.915  -3.310 -23.197  0.00  0.00    +0.005 A 
ATOM     13  C   UNL     1     -19.727  -2.331 -22.918  0.00  0.00    +0.005 A 
ATOM     14  C   UNL     1     -21.483  -3.935 -24.369  0.00  0.00    +0.000 A 
ATOM     15  C   UNL     1     -19.299  -2.958 -24.089  0.00  0.00    +0.000 A 
ATOM     16  C   UNL     1     -20.178  -3.757 -24.815  0.00  0.00    +0.000 A 
ENDBRANCH  10  11
ENDBRANCH   1  10
TORSDOF 2
ENDMDL
MODEL 3
REMARK VINA RESULT:    -5.567     34.227     34.910
REMARK INTER + INTRA:          -6.352
REMARK INTER:                  -6.244
REMARK INTRA:                  -0.108
REMARK UNBOUND:                -0.134
REMARK  Name = 1550473
REMARK  2 active torsions:
REMARK  status: ('A' for Active; 'I' for Inactive)
REMARK    1  A    between atoms: N_1  and  C_4
REMARK    2  A    between atoms: C_4  and  C_5
REMARK                            x       y       z     vdW  Elec       q    Type
REMARK                         _______ _______ _______ _____ _____    ______ ____
ROOT
ATOM      1  N   UNL     1      -2.824  10.506  24.795  0.00  0.00    -0.354 N 
ATOM      2  N   UNL     1      -5.100  10.878  24.576  0.00  0.00    -0.372 N 
ATOM      3  N   UNL     1      -3.648  12.073  23.260  0.00  0.00    -0.372 N 
ATOM      4  C   UNL     1      -3.842  11.152  24.210  0.00  0.00    +0.166 C 
ATOM      5  H   UNL     1      -3.035   9.841  25.531  0.00  0.00    +0.163 HD
ATOM      6  H   UNL     1      -5.888  11.347  24.150  0.00  0.00    +0.159 HD
ATOM      7  H   UNL     1      -5.310  10.180  25.279  0.00  0.00    +0.159 HD
ATOM      8  H   UNL     1      -2.723  12.329  22.943  0.00  0.00    +0.159 HD
ATOM      9  H   UNL     1      -4.424  12.561  22.829  0.00  0.00    +0.159 HD
ENDROOT
BRANCH   1  10
ATOM     10  C   UNL     1      -1.420  10.692  24.432  0.00  0.00    +0.151 C 
BRANCH  10  11
ATOM     11  C   UNL     1      -0.564  10.457  25.645  0.00  0.00    -0.028 A 
ATOM     12  C   UNL     1       0.409  11.395  26.022  0.00  0.00    +0.005 A 
ATOM     13  C   UNL     1      -0.723   9.302  26.426  0.00  0.00    +0.005 A 
ATOM     14  C   UNL     1       1.185  11.192  27.166  0.00  0.00    +0.000 A 
ATOM     15  C   UNL     1       0.054   9.103  27.567  0.00  0.00    +0.000 A 
ATOM     16  C   UNL     1       1.006  10.049  27.938  0.00  0.00    +0.000 A 
ENDBRANCH  10  11
ENDBRANCH   1  10
TORSDOF 2
ENDMDL
MODEL 4
REMARK VINA RESULT:    -5.279      1.529      1.998
REMARK INTER + INTRA:          -6.030
REMARK INTER:                  -5.937
REMARK INTRA:                  -0.093
REMARK UNBOUND:                -0.134
REMARK  Name = 1550473
REMARK  2 active torsions:
REMARK  status: ('A' for Active; 'I' for Inactive)
REMARK    1  A    between atoms: N_1  and  C_4
REMARK    2  A    between atoms: C_4  and  C_5
REMARK                            x       y       z     vdW  Elec       q    Type
REMARK                         _______ _______ _______ _____ _____    ______ ____
ROOT
ATOM      1  N   UNL     1       3.170 -15.461   7.466  0.00  0.00    -0.354 N 
ATOM      2  N   UNL     1       2.360 -13.407   8.165  0.00  0.00    -0.372 N 
ATOM      3  N   UNL     1       2.090 -15.229   9.533  0.00  0.00    -0.372 N 
ATOM      4  C   UNL     1       2.544 -14.714   8.386  0.00  0.00    +0.166 C 
ATOM      5  H   UNL     1       3.463 -15.017   6.604  0.00  0.00    +0.163 HD
ATOM      6  H   UNL     1       1.895 -12.817   8.842  0.00  0.00    +0.159 HD
ATOM      7  H   UNL     1       2.696 -12.957   7.322  0.00  0.00    +0.159 HD
ATOM      8  H   UNL     1       2.192 -16.210   9.758  0.00  0.00    +0.159 HD
ATOM      9  H   UNL     1       1.611 -14.657  10.218  0.00  0.00    +0.159 HD
ENDROOT
BRANCH   1  10
ATOM     10  C   UNL     1       3.468 -16.883   7.633  0.00  0.00    +0.151 C 
BRANCH  10  11
ATOM     11  C   UNL     1       4.481 -17.296   6.601  0.00  0.00    -0.028 A 
ATOM     12  C   UNL     1       4.068 -17.766   5.346  0.00  0.00    +0.005 A 
ATOM     13  C   UNL     1       5.856 -17.215   6.871  0.00  0.00    +0.005 A 
ATOM     14  C   UNL     1       5.009 -18.122   4.377  0.00  0.00    +0.000 A 
ATOM     15  C   UNL     1       6.792 -17.572   5.901  0.00  0.00    +0.000 A 
ATOM     16  C   UNL     1       6.368 -18.023   4.653  0.00  0.00    +0.000 A 
ENDBRANCH  10  11
ENDBRANCH   1  10
TORSDOF 2
ENDMDL
MODEL 5
REMARK VINA RESULT:    -5.234      2.029      2.852
REMARK INTER + INTRA:          -5.981
REMARK INTER:                  -5.798
REMARK INTRA:                  -0.183
REMARK UNBOUND:                -0.134
REMARK  Name = 1550473
REMARK  2 active torsions:
REMARK  status: ('A' for Active; 'I' for Inactive)
REMARK    1  A    between atoms: N_1  and  C_4
REMARK    2  A    between atoms: C_4  and  C_5
REMARK                            x       y       z     vdW  Elec       q    Type
REMARK                         _______ _______ _______ _____ _____    ______ ____
ROOT
ATOM      1  N   UNL     1       4.629 -15.423   9.008  0.00  0.00    -0.354 N 
ATOM      2  N   UNL     1       3.868 -16.253  11.032  0.00  0.00    -0.372 N 
ATOM      3  N   UNL     1       2.355 -15.871   9.351  0.00  0.00    -0.372 N 
ATOM      4  C   UNL     1       3.620 -15.843   9.782  0.00  0.00    +0.166 C 
ATOM      5  H   UNL     1       5.562 -15.398   9.404  0.00  0.00    +0.163 HD
ATOM      6  H   UNL     1       3.128 -16.579  11.638  0.00  0.00    +0.159 HD
ATOM      7  H   UNL     1       4.808 -16.271  11.410  0.00  0.00    +0.159 HD
ATOM      8  H   UNL     1       2.100 -15.569   8.420  0.00  0.00    +0.159 HD
ATOM      9  H   UNL     1       1.598 -16.182   9.947  0.00  0.00    +0.159 HD
ENDROOT
BRANCH   1  10
ATOM     10  C   UNL     1       4.473 -15.007   7.615  0.00  0.00    +0.151 C 
BRANCH  10  11
ATOM     11  C   UNL     1       4.848 -16.152   6.715  0.00  0.00    -0.028 A 
ATOM     12  C   UNL     1       6.155 -16.660   6.716  0.00  0.00    +0.005 A 
ATOM     13  C   UNL     1       3.899 -16.738   5.864  0.00  0.00    +0.005 A 
ATOM     14  C   UNL     1       6.496 -17.743   5.903  0.00  0.00    +0.000 A 
ATOM     15  C   UNL     1       4.243 -17.818   5.052  0.00  0.00    +0.000 A 
ATOM     16  C   UNL     1       5.541 -18.322   5.074  0.00  0.00    +0.000 A 
ENDBRANCH  10  11
ENDBRANCH   1  10
TORSDOF 2
ENDMDL
MODEL 6
REMARK VINA RESULT:    -5.213     41.647     44.098
REMARK INTER + INTRA:          -5.957
REMARK INTER:                  -5.836
REMARK INTRA:                  -0.121
REMARK UNBOUND:                -0.134
REMARK  Name = 1550473
REMARK  2 active torsions:
REMARK  status: ('A' for Active; 'I' for Inactive)
REMARK    1  A    between atoms: N_1  and  C_4
REMARK    2  A    between atoms: C_4  and  C_5
REMARK                            x       y       z     vdW  Elec       q    Type
REMARK                         _______ _______ _______ _____ _____    ______ ____
ROOT
ATOM      1  N   UNL     1       5.619  16.996  31.145  0.00  0.00    -0.354 N 
ATOM      2  N   UNL     1       6.040  16.230  29.001  0.00  0.00    -0.372 N 
ATOM      3  N   UNL     1       6.392  14.816  30.773  0.00  0.00    -0.372 N 
ATOM      4  C   UNL     1       6.015  16.017  30.322  0.00  0.00    +0.166 C 
ATOM      5  H   UNL     1       5.374  17.894  30.743  0.00  0.00    +0.163 HD
ATOM      6  H   UNL     1       6.332  15.509  28.354  0.00  0.00    +0.159 HD
ATOM      7  H   UNL     1       5.752  17.114  28.598  0.00  0.00    +0.159 HD
ATOM      8  H   UNL     1       6.401  14.593  31.759  0.00  0.00    +0.159 HD
ATOM      9  H   UNL     1       6.697  14.085  30.142  0.00  0.00    +0.159 HD
ENDROOT
BRANCH   1  10
ATOM     10  C   UNL     1       5.504  16.849  32.595  0.00  0.00    +0.151 C 
BRANCH  10  11
ATOM     11  C   UNL     1       4.537  17.875  33.118  0.00  0.00    -0.028 A 
ATOM     12  C   UNL     1       3.386  18.207  32.387  0.00  0.00    +0.005 A 
ATOM     13  C   UNL     1       4.762  18.516  34.346  0.00  0.00    +0.005 A 
ATOM     14  C   UNL     1       2.472  19.138  32.887  0.00  0.00    +0.000 A 
ATOM     15  C   UNL     1       3.848  19.446  34.841  0.00  0.00    +0.000 A 
ATOM     16  C   UNL     1       2.702  19.755  34.112  0.00  0.00    +0.000 A 
ENDBRANCH  10  11
ENDBRANCH   1  10
TORSDOF 2
ENDMDL
MODEL 7
REMARK VINA RESULT:    -5.070     54.021     54.764
REMARK INTER + INTRA:          -5.798
REMARK INTER:                  -5.667
REMARK INTRA:                  -0.130
REMARK UNBOUND:                -0.134
REMARK  Name = 1550473
REMARK  2 active torsions:
REMARK  status: ('A' for Active; 'I' for Inactive)
REMARK    1  A    between atoms: N_1  and  C_4
REMARK    2  A    between atoms: C_4  and  C_5
REMARK                            x       y       z     vdW  Elec       q    Type
REMARK                         _______ _______ _______ _____ _____    ______ ____
ROOT
ATOM      1  N   UNL     1     -15.161  11.648 -35.201  0.00  0.00    -0.354 N 
ATOM      2  N   UNL     1     -15.881  10.784 -33.176  0.00  0.00    -0.372 N 
ATOM      3  N   UNL     1     -16.260  13.000 -33.635  0.00  0.00    -0.372 N 
ATOM      4  C   UNL     1     -15.763  11.819 -34.017  0.00  0.00    +0.166 C 
ATOM      5  H   UNL     1     -14.779  10.735 -35.419  0.00  0.00    +0.163 HD
ATOM      6  H   UNL     1     -16.333  10.883 -32.277  0.00  0.00    +0.159 HD
ATOM      7  H   UNL     1     -15.539   9.862 -33.415  0.00  0.00    +0.159 HD
ATOM      8  H   UNL     1     -16.199  13.822 -34.221  0.00  0.00    +0.159 HD
ATOM      9  H   UNL     1     -16.706  13.122 -32.734  0.00  0.00    +0.159 HD
ENDROOT
BRANCH   1  10
ATOM     10  C   UNL     1     -15.030  12.696 -36.211  0.00  0.00    +0.151 C 
BRANCH  10  11
ATOM     11  C   UNL     1     -15.037  12.067 -37.577  0.00  0.00    -0.028 A 
ATOM     12  C   UNL     1     -15.625  10.809 -37.778  0.00  0.00    +0.005 A 
ATOM     13  C   UNL     1     -14.462  12.725 -38.675  0.00  0.00    +0.005 A 
ATOM     14  C   UNL     1     -15.658  10.237 -39.052  0.00  0.00    +0.000 A 
ATOM     15  C   UNL     1     -14.497  12.150 -39.945  0.00  0.00    +0.000 A 
ATOM     16  C   UNL     1     -15.097  10.908 -40.134  0.00  0.00    +0.000 A 
ENDBRANCH  10  11
ENDBRANCH   1  10
TORSDOF 2
ENDMDL
MODEL 8
REMARK VINA RESULT:    -4.974      2.841      3.484
REMARK INTER + INTRA:          -5.690
REMARK INTER:                  -5.554
REMARK INTRA:                  -0.136
REMARK UNBOUND:                -0.134
REMARK  Name = 1550473
REMARK  2 active torsions:
REMARK  status: ('A' for Active; 'I' for Inactive)
REMARK    1  A    between atoms: N_1  and  C_4
REMARK    2  A    between atoms: C_4  and  C_5
REMARK                            x       y       z     vdW  Elec       q    Type
REMARK                         _______ _______ _______ _____ _____    ______ ____
ROOT
ATOM      1  N   UNL     1       6.350 -14.489   7.027  0.00  0.00    -0.354 N 
ATOM      2  N   UNL     1       7.388 -12.433   6.776  0.00  0.00    -0.372 N 
ATOM      3  N   UNL     1       5.099 -12.544   6.648  0.00  0.00    -0.372 N 
ATOM      4  C   UNL     1       6.269 -13.168   6.818  0.00  0.00    +0.166 C 
ATOM      5  H   UNL     1       7.269 -14.906   7.118  0.00  0.00    +0.163 HD
ATOM      6  H   UNL     1       7.358 -11.434   6.624  0.00  0.00    +0.159 HD
ATOM      7  H   UNL     1       8.302 -12.846   6.914  0.00  0.00    +0.159 HD
ATOM      8  H   UNL     1       4.219 -13.042   6.662  0.00  0.00    +0.159 HD
ATOM      9  H   UNL     1       5.050 -11.546   6.482  0.00  0.00    +0.159 HD
ENDROOT
BRANCH   1  10
ATOM     10  C   UNL     1       5.190 -15.371   7.143  0.00  0.00    +0.151 C 
BRANCH  10  11
ATOM     11  C   UNL     1       5.307 -16.473   6.127  0.00  0.00    -0.028 A 
ATOM     12  C   UNL     1       6.539 -17.102   5.897  0.00  0.00    +0.005 A 
ATOM     13  C   UNL     1       4.187 -16.897   5.395  0.00  0.00    +0.005 A 
ATOM     14  C   UNL     1       6.642 -18.146   4.975  0.00  0.00    +0.000 A 
ATOM     15  C   UNL     1       4.294 -17.940   4.475  0.00  0.00    +0.000 A 
ATOM     16  C   UNL     1       5.521 -18.565   4.267  0.00  0.00    +0.000 A 
ENDBRANCH  10  11
ENDBRANCH   1  10
TORSDOF 2
ENDMDL
MODEL 9
REMARK VINA RESULT:    -4.942      2.770      3.487
REMARK INTER + INTRA:          -5.654
REMARK INTER:                  -5.517
REMARK INTRA:                  -0.137
REMARK UNBOUND:                -0.134
REMARK  Name = 1550473
REMARK  2 active torsions:
REMARK  status: ('A' for Active; 'I' for Inactive)
REMARK    1  A    between atoms: N_1  and  C_4
REMARK    2  A    between atoms: C_4  and  C_5
REMARK                            x       y       z     vdW  Elec       q    Type
REMARK                         _______ _______ _______ _____ _____    ______ ____
ROOT
ATOM      1  N   UNL     1       6.565 -14.553   5.507  0.00  0.00    -0.354 N 
ATOM      2  N   UNL     1       7.615 -12.523   5.883  0.00  0.00    -0.372 N 
ATOM      3  N   UNL     1       5.403 -12.532   5.274  0.00  0.00    -0.372 N 
ATOM      4  C   UNL     1       6.518 -13.215   5.551  0.00  0.00    +0.166 C 
ATOM      5  H   UNL     1       7.449 -15.011   5.698  0.00  0.00    +0.163 HD
ATOM      6  H   UNL     1       7.609 -11.513   5.928  0.00  0.00    +0.159 HD
ATOM      7  H   UNL     1       8.485 -12.985   6.119  0.00  0.00    +0.159 HD
ATOM      8  H   UNL     1       4.543 -12.995   5.011  0.00  0.00    +0.159 HD
ATOM      9  H   UNL     1       5.380 -11.520   5.302  0.00  0.00    +0.159 HD
ENDROOT
BRANCH   1  10
ATOM     10  C   UNL     1       5.413 -15.403   5.209  0.00  0.00    +0.151 C 
BRANCH  10  11
ATOM     11  C   UNL     1       5.839 -16.495   4.267  0.00  0.00    -0.028 A 
ATOM     12  C   UNL     1       5.272 -17.774   4.358  0.00  0.00    +0.005 A 
ATOM     13  C   UNL     1       6.804 -16.255   3.277  0.00  0.00    +0.005 A 
ATOM     14  C   UNL     1       5.644 -18.781   3.463  0.00  0.00    +0.000 A 
ATOM     15  C   UNL     1       7.174 -17.262   2.386  0.00  0.00    +0.000 A 
ATOM     16  C   UNL     1       6.592 -18.524   2.478  0.00  0.00    +0.000 A 
ENDBRANCH  10  11
ENDBRANCH   1  10
TORSDOF 2
ENDMDL
