MODEL 1
REMARK VINA RESULT:    -5.714      0.000      0.000
REMARK INTER + INTRA:          -6.510
REMARK INTER:                  -6.382
REMARK INTRA:                  -0.128
REMARK UNBOUND:                -0.128
REMARK  Name = 1550473
REMARK  2 active torsions:
REMARK  status: ('A' for Active; 'I' for Inactive)
REMARK    1  A    between atoms: N_1  and  C_4
REMARK    2  A    between atoms: C_4  and  C_5
REMARK                            x       y       z     vdW  Elec       q    Type
REMARK                         _______ _______ _______ _____ _____    ______ ____
ROOT
ATOM      1  N   UNL     1      -3.124 -26.596   0.373  0.00  0.00    -0.354 N 
ATOM      2  N   UNL     1      -4.526 -25.965   2.105  0.00  0.00    -0.372 N 
ATOM      3  N   UNL     1      -2.717 -27.298   2.571  0.00  0.00    -0.372 N 
ATOM      4  C   UNL     1      -3.445 -26.625   1.673  0.00  0.00    +0.166 C 
ATOM      5  H   UNL     1      -3.733 -26.093  -0.262  0.00  0.00    +0.163 HD
ATOM      6  H   UNL     1      -4.791 -25.966   3.081  0.00  0.00    +0.159 HD
ATOM      7  H   UNL     1      -5.107 -25.425   1.475  0.00  0.00    +0.159 HD
ATOM      8  H   UNL     1      -1.893 -27.821   2.309  0.00  0.00    +0.159 HD
ATOM      9  H   UNL     1      -2.973 -27.320   3.551  0.00  0.00    +0.159 HD
ENDROOT
BRANCH   1  10
ATOM     10  C   UNL     1      -1.937 -27.237  -0.191  0.00  0.00    +0.151 C 
BRANCH  10  11
ATOM     11  C   UNL     1      -1.516 -26.490  -1.427  0.00  0.00    -0.028 A 
ATOM     12  C   UNL     1      -1.848 -25.137  -1.589  0.00  0.00    +0.005 A 
ATOM     13  C   UNL     1      -0.781 -27.129  -2.438  0.00  0.00    +0.005 A 
ATOM     14  C   UNL     1      -1.431 -24.435  -2.723  0.00  0.00    +0.000 A 
ATOM     15  C   UNL     1      -0.368 -26.425  -3.569  0.00  0.00    +0.000 A 
ATOM     16  C   UNL     1      -0.691 -25.078  -3.710  0.00  0.00    +0.000 A 
ENDBRANCH  10  11
ENDBRANCH   1  10
TORSDOF 2
ENDMDL
MODEL 2
REMARK VINA RESULT:    -5.713      0.057      1.455
REMARK INTER + INTRA:          -6.509
REMARK INTER:                  -6.380
REMARK INTRA:                  -0.129
REMARK UNBOUND:                -0.128
REMARK  Name = 1550473
REMARK  2 active torsions:
REMARK  status: ('A' for Active; 'I' for Inactive)
REMARK    1  A    between atoms: N_1  and  C_4
REMARK    2  A    between atoms: C_4  and  C_5
REMARK                            x       y       z     vdW  Elec       q    Type
REMARK                         _______ _______ _______ _____ _____    ______ ____
ROOT
ATOM      1  N   UNL     1      -3.144 -26.628   0.382  0.00  0.00    -0.354 N 
ATOM      2  N   UNL     1      -4.540 -25.959   2.105  0.00  0.00    -0.372 N 
ATOM      3  N   UNL     1      -2.742 -27.299   2.591  0.00  0.00    -0.372 N 
ATOM      4  C   UNL     1      -3.465 -26.635   1.683  0.00  0.00    +0.166 C 
ATOM      5  H   UNL     1      -3.750 -26.130  -0.260  0.00  0.00    +0.163 HD
ATOM      6  H   UNL     1      -4.805 -25.943   3.080  0.00  0.00    +0.159 HD
ATOM      7  H   UNL     1      -5.118 -25.424   1.467  0.00  0.00    +0.159 HD
ATOM      8  H   UNL     1      -1.922 -27.833   2.336  0.00  0.00    +0.159 HD
ATOM      9  H   UNL     1      -2.997 -27.304   3.571  0.00  0.00    +0.159 HD
ENDROOT
BRANCH   1  10
ATOM     10  C   UNL     1      -1.963 -27.287  -0.173  0.00  0.00    +0.151 C 
BRANCH  10  11
ATOM     11  C   UNL     1      -1.512 -26.538  -1.396  0.00  0.00    -0.028 A 
ATOM     12  C   UNL     1      -0.764 -27.185  -2.391  0.00  0.00    +0.005 A 
ATOM     13  C   UNL     1      -1.834 -25.183  -1.569  0.00  0.00    +0.005 A 
ATOM     14  C   UNL     1      -0.370 -26.497  -3.542  0.00  0.00    +0.000 A 
ATOM     15  C   UNL     1      -1.438 -24.500  -2.719  0.00  0.00    +0.000 A 
ATOM     16  C   UNL     1      -0.708 -25.158  -3.706  0.00  0.00    +0.000 A 
ENDBRANCH  10  11
ENDBRANCH   1  10
TORSDOF 2
ENDMDL
MODEL 3
REMARK VINA RESULT:    -5.227      3.250      4.878
REMARK INTER + INTRA:          -5.967
REMARK INTER:                  -5.870
REMARK INTRA:                  -0.097
REMARK UNBOUND:                -0.128
REMARK  Name = 1550473
REMARK  2 active torsions:
REMARK  status: ('A' for Active; 'I' for Inactive)
REMARK    1  A    between atoms: N_1  and  C_4
REMARK    2  A    between atoms: C_4  and  C_5
REMARK                            x       y       z     vdW  Elec       q    Type
REMARK                         _______ _______ _______ _____ _____    ______ ____
ROOT
ATOM      1  N   UNL     1       0.333 -24.536  -0.665  0.00  0.00    -0.354 N 
ATOM      2  N   UNL     1       2.527 -23.855  -0.367  0.00  0.00    -0.372 N 
ATOM      3  N   UNL     1       1.745 -24.178  -2.500  0.00  0.00    -0.372 N 
ATOM      4  C   UNL     1       1.521 -24.194  -1.182  0.00  0.00    +0.166 C 
ATOM      5  H   UNL     1       0.236 -24.558   0.344  0.00  0.00    +0.163 HD
ATOM      6  H   UNL     1       3.433 -23.590  -0.728  0.00  0.00    +0.159 HD
ATOM      7  H   UNL     1       2.413 -23.833   0.639  0.00  0.00    +0.159 HD
ATOM      8  H   UNL     1       1.029 -24.429  -3.169  0.00  0.00    +0.159 HD
ATOM      9  H   UNL     1       2.649 -23.926  -2.881  0.00  0.00    +0.159 HD
ENDROOT
BRANCH   1  10
ATOM     10  C   UNL     1      -0.843 -24.870  -1.466  0.00  0.00    +0.151 C 
BRANCH  10  11
ATOM     11  C   UNL     1      -1.736 -25.782  -0.672  0.00  0.00    -0.028 A 
ATOM     12  C   UNL     1      -2.659 -25.256   0.243  0.00  0.00    +0.005 A 
ATOM     13  C   UNL     1      -1.668 -27.175  -0.835  0.00  0.00    +0.005 A 
ATOM     14  C   UNL     1      -3.510 -26.102   0.959  0.00  0.00    +0.000 A 
ATOM     15  C   UNL     1      -2.518 -28.016  -0.118  0.00  0.00    +0.000 A 
ATOM     16  C   UNL     1      -3.441 -27.479   0.777  0.00  0.00    +0.000 A 
ENDBRANCH  10  11
ENDBRANCH   1  10
TORSDOF 2
ENDMDL
MODEL 4
REMARK VINA RESULT:    -5.071     23.882     25.191
REMARK INTER + INTRA:          -5.791
REMARK INTER:                  -5.671
REMARK INTRA:                  -0.120
REMARK UNBOUND:                -0.128
REMARK  Name = 1550473
REMARK  2 active torsions:
REMARK  status: ('A' for Active; 'I' for Inactive)
REMARK    1  A    between atoms: N_1  and  C_4
REMARK    2  A    between atoms: C_4  and  C_5
REMARK                            x       y       z     vdW  Elec       q    Type
REMARK                         _______ _______ _______ _____ _____    ______ ____
ROOT
ATOM      1  N   UNL     1      -5.731  -0.851  -1.810  0.00  0.00    -0.354 N 
ATOM      2  N   UNL     1      -3.948   0.458  -2.494  0.00  0.00    -0.372 N 
ATOM      3  N   UNL     1      -3.544  -1.693  -1.806  0.00  0.00    -0.372 N 
ATOM      4  C   UNL     1      -4.418  -0.706  -2.031  0.00  0.00    +0.166 C 
ATOM      5  H   UNL     1      -6.338  -0.055  -1.972  0.00  0.00    +0.163 HD
ATOM      6  H   UNL     1      -2.962   0.596  -2.674  0.00  0.00    +0.159 HD
ATOM      7  H   UNL     1      -4.562   1.237  -2.699  0.00  0.00    +0.159 HD
ATOM      8  H   UNL     1      -3.835  -2.595  -1.451  0.00  0.00    +0.159 HD
ATOM      9  H   UNL     1      -2.553  -1.571  -1.969  0.00  0.00    +0.159 HD
ENDROOT
BRANCH   1  10
ATOM     10  C   UNL     1      -6.352  -2.095  -1.358  0.00  0.00    +0.151 C 
BRANCH  10  11
ATOM     11  C   UNL     1      -7.531  -2.404  -2.238  0.00  0.00    -0.028 A 
ATOM     12  C   UNL     1      -7.645  -3.655  -2.863  0.00  0.00    +0.005 A 
ATOM     13  C   UNL     1      -8.541  -1.452  -2.448  0.00  0.00    +0.005 A 
ATOM     14  C   UNL     1      -8.755  -3.953  -3.656  0.00  0.00    +0.000 A 
ATOM     15  C   UNL     1      -9.647  -1.754  -3.242  0.00  0.00    +0.000 A 
ATOM     16  C   UNL     1      -9.755  -3.005  -3.844  0.00  0.00    +0.000 A 
ENDBRANCH  10  11
ENDBRANCH   1  10
TORSDOF 2
ENDMDL
MODEL 5
REMARK VINA RESULT:    -4.887     24.103     25.413
REMARK INTER + INTRA:          -5.586
REMARK INTER:                  -5.437
REMARK INTRA:                  -0.149
REMARK UNBOUND:                -0.128
REMARK  Name = 1550473
REMARK  2 active torsions:
REMARK  status: ('A' for Active; 'I' for Inactive)
REMARK    1  A    between atoms: N_1  and  C_4
REMARK    2  A    between atoms: C_4  and  C_5
REMARK                            x       y       z     vdW  Elec       q    Type
REMARK                         _______ _______ _______ _____ _____    ______ ____
ROOT
ATOM      1  N   UNL     1      -7.152  -1.524  -2.333  0.00  0.00    -0.354 N 
ATOM      2  N   UNL     1      -5.687  -2.334  -0.733  0.00  0.00    -0.372 N 
ATOM      3  N   UNL     1      -7.335  -0.873  -0.089  0.00  0.00    -0.372 N 
ATOM      4  C   UNL     1      -6.736  -1.570  -1.060  0.00  0.00    +0.166 C 
ATOM      5  H   UNL     1      -6.636  -2.052  -3.027  0.00  0.00    +0.163 HD
ATOM      6  H   UNL     1      -5.352  -2.391   0.220  0.00  0.00    +0.159 HD
ATOM      7  H   UNL     1      -5.202  -2.897  -1.421  0.00  0.00    +0.159 HD
ATOM      8  H   UNL     1      -8.128  -0.273  -0.272  0.00  0.00    +0.159 HD
ATOM      9  H   UNL     1      -7.007  -0.908   0.868  0.00  0.00    +0.159 HD
ENDROOT
BRANCH   1  10
ATOM     10  C   UNL     1      -8.317  -0.766  -2.785  0.00  0.00    +0.151 C 
BRANCH  10  11
ATOM     11  C   UNL     1      -9.408  -1.726  -3.172  0.00  0.00    -0.028 A 
ATOM     12  C   UNL     1     -10.741  -1.295  -3.247  0.00  0.00    +0.005 A 
ATOM     13  C   UNL     1      -9.115  -3.065  -3.469  0.00  0.00    +0.005 A 
ATOM     14  C   UNL     1     -11.751  -2.179  -3.636  0.00  0.00    +0.000 A 
ATOM     15  C   UNL     1     -10.126  -3.945  -3.855  0.00  0.00    +0.000 A 
ATOM     16  C   UNL     1     -11.444  -3.501  -3.941  0.00  0.00    +0.000 A 
ENDBRANCH  10  11
ENDBRANCH   1  10
TORSDOF 2
ENDMDL
MODEL 6
REMARK VINA RESULT:    -4.860     25.058     26.589
REMARK INTER + INTRA:          -5.556
REMARK INTER:                  -5.438
REMARK INTRA:                  -0.118
REMARK UNBOUND:                -0.128
REMARK  Name = 1550473
REMARK  2 active torsions:
REMARK  status: ('A' for Active; 'I' for Inactive)
REMARK    1  A    between atoms: N_1  and  C_4
REMARK    2  A    between atoms: C_4  and  C_5
REMARK                            x       y       z     vdW  Elec       q    Type
REMARK                         _______ _______ _______ _____ _____    ______ ____
ROOT
ATOM      1  N   UNL     1      -1.659  -0.082 -10.366  0.00  0.00    -0.354 N 
ATOM      2  N   UNL     1      -1.539   1.750 -11.779  0.00  0.00    -0.372 N 
ATOM      3  N   UNL     1      -3.357   1.533 -10.396  0.00  0.00    -0.372 N 
ATOM      4  C   UNL     1      -2.188   1.055 -10.837  0.00  0.00    +0.166 C 
ATOM      5  H   UNL     1      -0.784  -0.406 -10.763  0.00  0.00    +0.163 HD
ATOM      6  H   UNL     1      -1.912   2.613 -12.151  0.00  0.00    +0.159 HD
ATOM      7  H   UNL     1      -0.643   1.447 -12.141  0.00  0.00    +0.159 HD
ATOM      8  H   UNL     1      -3.899   1.054  -9.690  0.00  0.00    +0.159 HD
ATOM      9  H   UNL     1      -3.752   2.389 -10.764  0.00  0.00    +0.159 HD
ENDROOT
BRANCH   1  10
ATOM     10  C   UNL     1      -2.259  -0.884  -9.302  0.00  0.00    +0.151 C 
BRANCH  10  11
ATOM     11  C   UNL     1      -1.509  -2.182  -9.182  0.00  0.00    -0.028 A 
ATOM     12  C   UNL     1      -2.134  -3.319  -8.651  0.00  0.00    +0.005 A 
ATOM     13  C   UNL     1      -0.174  -2.282  -9.605  0.00  0.00    +0.005 A 
ATOM     14  C   UNL     1      -1.447  -4.533  -8.567  0.00  0.00    +0.000 A 
ATOM     15  C   UNL     1       0.508  -3.496  -9.519  0.00  0.00    +0.000 A 
ATOM     16  C   UNL     1      -0.129  -4.621  -9.003  0.00  0.00    +0.000 A 
ENDBRANCH  10  11
ENDBRANCH   1  10
TORSDOF 2
ENDMDL
MODEL 7
REMARK VINA RESULT:    -4.613     21.612     22.985
REMARK INTER + INTRA:          -5.280
REMARK INTER:                  -5.135
REMARK INTRA:                  -0.145
REMARK UNBOUND:                -0.128
REMARK  Name = 1550473
REMARK  2 active torsions:
REMARK  status: ('A' for Active; 'I' for Inactive)
REMARK    1  A    between atoms: N_1  and  C_4
REMARK    2  A    between atoms: C_4  and  C_5
REMARK                            x       y       z     vdW  Elec       q    Type
REMARK                         _______ _______ _______ _____ _____    ______ ____
ROOT
ATOM      1  N   UNL     1      -3.451  -6.648 -10.784  0.00  0.00    -0.354 N 
ATOM      2  N   UNL     1      -4.468  -7.146 -12.804  0.00  0.00    -0.372 N 
ATOM      3  N   UNL     1      -2.487  -8.177 -12.276  0.00  0.00    -0.372 N 
ATOM      4  C   UNL     1      -3.460  -7.322 -11.942  0.00  0.00    +0.166 C 
ATOM      5  H   UNL     1      -4.202  -5.992 -10.603  0.00  0.00    +0.163 HD
ATOM      6  H   UNL     1      -4.503  -7.643 -13.684  0.00  0.00    +0.159 HD
ATOM      7  H   UNL     1      -5.241  -6.524 -12.601  0.00  0.00    +0.159 HD
ATOM      8  H   UNL     1      -1.696  -8.350 -11.672  0.00  0.00    +0.159 HD
ATOM      9  H   UNL     1      -2.499  -8.675 -13.157  0.00  0.00    +0.159 HD
ENDROOT
BRANCH   1  10
ATOM     10  C   UNL     1      -2.428  -6.808  -9.752  0.00  0.00    +0.151 C 
BRANCH  10  11
ATOM     11  C   UNL     1      -1.688  -5.509  -9.589  0.00  0.00    -0.028 A 
ATOM     12  C   UNL     1      -2.386  -4.320  -9.335  0.00  0.00    +0.005 A 
ATOM     13  C   UNL     1      -0.288  -5.462  -9.680  0.00  0.00    +0.005 A 
ATOM     14  C   UNL     1      -1.697  -3.118  -9.153  0.00  0.00    +0.000 A 
ATOM     15  C   UNL     1       0.395  -4.260  -9.499  0.00  0.00    +0.000 A 
ATOM     16  C   UNL     1      -0.309  -3.089  -9.233  0.00  0.00    +0.000 A 
ENDBRANCH  10  11
ENDBRANCH   1  10
TORSDOF 2
ENDMDL
MODEL 8
REMARK VINA RESULT:    -4.585     26.001     27.614
REMARK INTER + INTRA:          -5.249
REMARK INTER:                  -5.127
REMARK INTRA:                  -0.123
REMARK UNBOUND:                -0.128
REMARK  Name = 1550473
REMARK  2 active torsions:
REMARK  status: ('A' for Active; 'I' for Inactive)
REMARK    1  A    between atoms: N_1  and  C_4
REMARK    2  A    between atoms: C_4  and  C_5
REMARK                            x       y       z     vdW  Elec       q    Type
REMARK                         _______ _______ _______ _____ _____    ______ ____
ROOT
ATOM      1  N   UNL     1      -8.762 -12.210  23.486  0.00  0.00    -0.354 N 
ATOM      2  N   UNL     1      -9.932 -12.179  25.484  0.00  0.00    -0.372 N 
ATOM      3  N   UNL     1     -11.103 -12.299  23.515  0.00  0.00    -0.372 N 
ATOM      4  C   UNL     1      -9.927 -12.230  24.147  0.00  0.00    +0.166 C 
ATOM      5  H   UNL     1      -7.905 -12.126  24.022  0.00  0.00    +0.163 HD
ATOM      6  H   UNL     1     -10.795 -12.196  26.011  0.00  0.00    +0.159 HD
ATOM      7  H   UNL     1      -9.073 -12.142  26.020  0.00  0.00    +0.159 HD
ATOM      8  H   UNL     1     -11.168 -12.334  22.507  0.00  0.00    +0.159 HD
ATOM      9  H   UNL     1     -11.978 -12.305  24.024  0.00  0.00    +0.159 HD
ENDROOT
BRANCH   1  10
ATOM     10  C   UNL     1      -8.644 -12.315  22.033  0.00  0.00    +0.151 C 
BRANCH  10  11
ATOM     11  C   UNL     1      -7.207 -12.573  21.673  0.00  0.00    -0.028 A 
ATOM     12  C   UNL     1      -6.850 -12.904  20.358  0.00  0.00    +0.005 A 
ATOM     13  C   UNL     1      -6.196 -12.481  22.642  0.00  0.00    +0.005 A 
ATOM     14  C   UNL     1      -5.512 -13.114  20.017  0.00  0.00    +0.000 A 
ATOM     15  C   UNL     1      -4.861 -12.693  22.298  0.00  0.00    +0.000 A 
ATOM     16  C   UNL     1      -4.519 -13.006  20.985  0.00  0.00    +0.000 A 
ENDBRANCH  10  11
ENDBRANCH   1  10
TORSDOF 2
ENDMDL
MODEL 9
REMARK VINA RESULT:    -4.548     30.193     31.620
REMARK INTER + INTRA:          -5.208
REMARK INTER:                  -5.097
REMARK INTRA:                  -0.111
REMARK UNBOUND:                -0.128
REMARK  Name = 1550473
REMARK  2 active torsions:
REMARK  status: ('A' for Active; 'I' for Inactive)
REMARK    1  A    between atoms: N_1  and  C_4
REMARK    2  A    between atoms: C_4  and  C_5
REMARK                            x       y       z     vdW  Elec       q    Type
REMARK                         _______ _______ _______ _____ _____    ______ ____
ROOT
ATOM      1  N   UNL     1      -6.834  -5.271 -23.601  0.00  0.00    -0.354 N 
ATOM      2  N   UNL     1      -7.156  -7.435 -22.840  0.00  0.00    -0.372 N 
ATOM      3  N   UNL     1      -8.615  -5.795 -22.171  0.00  0.00    -0.372 N 
ATOM      4  C   UNL     1      -7.535  -6.151 -22.874  0.00  0.00    +0.166 C 
ATOM      5  H   UNL     1      -6.007  -5.599 -24.087  0.00  0.00    +0.163 HD
ATOM      6  H   UNL     1      -7.668  -8.122 -22.303  0.00  0.00    +0.159 HD
ATOM      7  H   UNL     1      -6.356  -7.768 -23.364  0.00  0.00    +0.159 HD
ATOM      8  H   UNL     1      -8.949  -4.840 -22.150  0.00  0.00    +0.159 HD
ATOM      9  H   UNL     1      -9.133  -6.466 -21.618  0.00  0.00    +0.159 HD
ENDROOT
BRANCH   1  10
ATOM     10  C   UNL     1      -7.193  -3.862 -23.748  0.00  0.00    +0.151 C 
BRANCH  10  11
ATOM     11  C   UNL     1      -6.327  -3.036 -22.837  0.00  0.00    -0.028 A 
ATOM     12  C   UNL     1      -6.667  -1.708 -22.544  0.00  0.00    +0.005 A 
ATOM     13  C   UNL     1      -5.169  -3.579 -22.260  0.00  0.00    +0.005 A 
ATOM     14  C   UNL     1      -5.879  -0.950 -21.673  0.00  0.00    +0.000 A 
ATOM     15  C   UNL     1      -4.385  -2.819 -21.392  0.00  0.00    +0.000 A 
ATOM     16  C   UNL     1      -4.742  -1.505 -21.097  0.00  0.00    +0.000 A 
ENDBRANCH  10  11
ENDBRANCH   1  10
TORSDOF 2
ENDMDL
