MODEL 1
REMARK VINA RESULT:    -5.377      0.000      0.000
REMARK INTER + INTRA:          -6.157
REMARK INTER:                  -6.005
REMARK INTRA:                  -0.152
REMARK UNBOUND:                -0.152
REMARK  Name = 1550473
REMARK  2 active torsions:
REMARK  status: ('A' for Active; 'I' for Inactive)
REMARK    1  A    between atoms: N_1  and  C_4
REMARK    2  A    between atoms: C_4  and  C_5
REMARK                            x       y       z     vdW  Elec       q    Type
REMARK                         _______ _______ _______ _____ _____    ______ ____
ROOT
ATOM      1  N   UNL     1     -25.747 -14.559 -21.986  0.00  0.00    -0.354 N 
ATOM      2  N   UNL     1     -24.871 -14.451 -24.128  0.00  0.00    -0.372 N 
ATOM      3  N   UNL     1     -24.653 -16.400 -22.937  0.00  0.00    -0.372 N 
ATOM      4  C   UNL     1     -25.095 -15.140 -23.002  0.00  0.00    +0.166 C 
ATOM      5  H   UNL     1     -26.030 -13.591 -22.087  0.00  0.00    +0.163 HD
ATOM      6  H   UNL     1     -24.385 -14.864 -24.912  0.00  0.00    +0.159 HD
ATOM      7  H   UNL     1     -25.196 -13.498 -24.243  0.00  0.00    +0.159 HD
ATOM      8  H   UNL     1     -24.784 -16.972 -22.113  0.00  0.00    +0.159 HD
ATOM      9  H   UNL     1     -24.154 -16.827 -23.707  0.00  0.00    +0.159 HD
ENDROOT
BRANCH   1  10
ATOM     10  C   UNL     1     -26.089 -15.239 -20.738  0.00  0.00    +0.151 C 
BRANCH  10  11
ATOM     11  C   UNL     1     -25.461 -14.500 -19.589  0.00  0.00    -0.028 A 
ATOM     12  C   UNL     1     -26.256 -13.986 -18.553  0.00  0.00    +0.005 A 
ATOM     13  C   UNL     1     -24.072 -14.316 -19.525  0.00  0.00    +0.005 A 
ATOM     14  C   UNL     1     -25.671 -13.327 -17.470  0.00  0.00    +0.000 A 
ATOM     15  C   UNL     1     -23.491 -13.656 -18.443  0.00  0.00    +0.000 A 
ATOM     16  C   UNL     1     -24.291 -13.163 -17.414  0.00  0.00    +0.000 A 
ENDBRANCH  10  11
ENDBRANCH   1  10
TORSDOF 2
ENDMDL
MODEL 2
REMARK VINA RESULT:    -5.235      2.601      3.147
REMARK INTER + INTRA:          -5.999
REMARK INTER:                  -5.883
REMARK INTRA:                  -0.116
REMARK UNBOUND:                -0.152
REMARK  Name = 1550473
REMARK  2 active torsions:
REMARK  status: ('A' for Active; 'I' for Inactive)
REMARK    1  A    between atoms: N_1  and  C_4
REMARK    2  A    between atoms: C_4  and  C_5
REMARK                            x       y       z     vdW  Elec       q    Type
REMARK                         _______ _______ _______ _____ _____    ______ ____
ROOT
ATOM      1  N   UNL     1     -27.202 -15.752 -19.580  0.00  0.00    -0.354 N 
ATOM      2  N   UNL     1     -28.665 -17.489 -19.127  0.00  0.00    -0.372 N 
ATOM      3  N   UNL     1     -26.485 -17.982 -19.643  0.00  0.00    -0.372 N 
ATOM      4  C   UNL     1     -27.439 -17.064 -19.454  0.00  0.00    +0.166 C 
ATOM      5  H   UNL     1     -27.975 -15.109 -19.453  0.00  0.00    +0.163 HD
ATOM      6  H   UNL     1     -28.873 -18.473 -19.021  0.00  0.00    +0.159 HD
ATOM      7  H   UNL     1     -29.425 -16.841 -18.955  0.00  0.00    +0.159 HD
ATOM      8  H   UNL     1     -25.540 -17.727 -19.898  0.00  0.00    +0.159 HD
ATOM      9  H   UNL     1     -26.676 -18.972 -19.554  0.00  0.00    +0.159 HD
ENDROOT
BRANCH   1  10
ATOM     10  C   UNL     1     -25.889 -15.183 -19.880  0.00  0.00    +0.151 C 
BRANCH  10  11
ATOM     11  C   UNL     1     -25.440 -14.343 -18.716  0.00  0.00    -0.028 A 
ATOM     12  C   UNL     1     -25.598 -14.806 -17.401  0.00  0.00    +0.005 A 
ATOM     13  C   UNL     1     -24.850 -13.087 -18.921  0.00  0.00    +0.005 A 
ATOM     14  C   UNL     1     -25.154 -14.040 -16.321  0.00  0.00    +0.000 A 
ATOM     15  C   UNL     1     -24.408 -12.325 -17.839  0.00  0.00    +0.000 A 
ATOM     16  C   UNL     1     -24.558 -12.803 -16.540  0.00  0.00    +0.000 A 
ENDBRANCH  10  11
ENDBRANCH   1  10
TORSDOF 2
ENDMDL
MODEL 3
REMARK VINA RESULT:    -5.026      2.381      3.157
REMARK INTER + INTRA:          -5.765
REMARK INTER:                  -5.620
REMARK INTRA:                  -0.145
REMARK UNBOUND:                -0.152
REMARK  Name = 1550473
REMARK  2 active torsions:
REMARK  status: ('A' for Active; 'I' for Inactive)
REMARK    1  A    between atoms: N_1  and  C_4
REMARK    2  A    between atoms: C_4  and  C_5
REMARK                            x       y       z     vdW  Elec       q    Type
REMARK                         _______ _______ _______ _____ _____    ______ ____
ROOT
ATOM      1  N   UNL     1     -22.838 -15.788 -23.574  0.00  0.00    -0.354 N 
ATOM      2  N   UNL     1     -23.028 -15.286 -25.827  0.00  0.00    -0.372 N 
ATOM      3  N   UNL     1     -21.024 -14.916 -24.774  0.00  0.00    -0.372 N 
ATOM      4  C   UNL     1     -22.293 -15.332 -24.710  0.00  0.00    +0.166 C 
ATOM      5  H   UNL     1     -23.814 -16.060 -23.584  0.00  0.00    +0.163 HD
ATOM      6  H   UNL     1     -22.643 -14.950 -26.699  0.00  0.00    +0.159 HD
ATOM      7  H   UNL     1     -23.990 -15.602 -25.845  0.00  0.00    +0.159 HD
ATOM      8  H   UNL     1     -20.417 -14.920 -23.964  0.00  0.00    +0.159 HD
ATOM      9  H   UNL     1     -20.623 -14.565 -25.635  0.00  0.00    +0.159 HD
ENDROOT
BRANCH   1  10
ATOM     10  C   UNL     1     -22.108 -15.929 -22.315  0.00  0.00    +0.151 C 
BRANCH  10  11
ATOM     11  C   UNL     1     -22.853 -15.201 -21.231  0.00  0.00    -0.028 A 
ATOM     12  C   UNL     1     -24.177 -14.784 -21.433  0.00  0.00    +0.005 A 
ATOM     13  C   UNL     1     -22.242 -14.930 -19.997  0.00  0.00    +0.005 A 
ATOM     14  C   UNL     1     -24.879 -14.135 -20.415  0.00  0.00    +0.000 A 
ATOM     15  C   UNL     1     -22.947 -14.281 -18.983  0.00  0.00    +0.000 A 
ATOM     16  C   UNL     1     -24.266 -13.885 -19.192  0.00  0.00    +0.000 A 
ENDBRANCH  10  11
ENDBRANCH   1  10
TORSDOF 2
ENDMDL
MODEL 4
REMARK VINA RESULT:    -4.970      3.567      5.244
REMARK INTER + INTRA:          -5.703
REMARK INTER:                  -5.528
REMARK INTRA:                  -0.175
REMARK UNBOUND:                -0.152
REMARK  Name = 1550473
REMARK  2 active torsions:
REMARK  status: ('A' for Active; 'I' for Inactive)
REMARK    1  A    between atoms: N_1  and  C_4
REMARK    2  A    between atoms: C_4  and  C_5
REMARK                            x       y       z     vdW  Elec       q    Type
REMARK                         _______ _______ _______ _____ _____    ______ ____
ROOT
ATOM      1  N   UNL     1     -22.221 -14.639 -18.714  0.00  0.00    -0.354 N 
ATOM      2  N   UNL     1     -20.594 -15.655 -17.415  0.00  0.00    -0.372 N 
ATOM      3  N   UNL     1     -22.627 -16.692 -17.659  0.00  0.00    -0.372 N 
ATOM      4  C   UNL     1     -21.827 -15.657 -17.937  0.00  0.00    +0.166 C 
ATOM      5  H   UNL     1     -21.578 -13.870 -18.862  0.00  0.00    +0.163 HD
ATOM      6  H   UNL     1     -20.268 -16.411 -16.828  0.00  0.00    +0.159 HD
ATOM      7  H   UNL     1     -19.938 -14.907 -17.602  0.00  0.00    +0.159 HD
ATOM      8  H   UNL     1     -23.571 -16.751 -18.017  0.00  0.00    +0.159 HD
ATOM      9  H   UNL     1     -22.322 -17.452 -17.064  0.00  0.00    +0.159 HD
ENDROOT
BRANCH   1  10
ATOM     10  C   UNL     1     -23.523 -14.571 -19.375  0.00  0.00    +0.151 C 
BRANCH  10  11
ATOM     11  C   UNL     1     -23.386 -15.081 -20.783  0.00  0.00    -0.028 A 
ATOM     12  C   UNL     1     -24.256 -16.067 -21.271  0.00  0.00    +0.005 A 
ATOM     13  C   UNL     1     -22.392 -14.577 -21.636  0.00  0.00    +0.005 A 
ATOM     14  C   UNL     1     -24.148 -16.519 -22.589  0.00  0.00    +0.000 A 
ATOM     15  C   UNL     1     -22.288 -15.032 -22.951  0.00  0.00    +0.000 A 
ATOM     16  C   UNL     1     -23.167 -16.001 -23.427  0.00  0.00    +0.000 A 
ENDBRANCH  10  11
ENDBRANCH   1  10
TORSDOF 2
ENDMDL
MODEL 5
REMARK VINA RESULT:    -4.876      3.671      4.640
REMARK INTER + INTRA:          -5.598
REMARK INTER:                  -5.473
REMARK INTRA:                  -0.125
REMARK UNBOUND:                -0.152
REMARK  Name = 1550473
REMARK  2 active torsions:
REMARK  status: ('A' for Active; 'I' for Inactive)
REMARK    1  A    between atoms: N_1  and  C_4
REMARK    2  A    between atoms: C_4  and  C_5
REMARK                            x       y       z     vdW  Elec       q    Type
REMARK                         _______ _______ _______ _____ _____    ______ ____
ROOT
ATOM      1  N   UNL     1     -22.636 -16.120 -17.685  0.00  0.00    -0.354 N 
ATOM      2  N   UNL     1     -20.426 -15.569 -17.266  0.00  0.00    -0.372 N 
ATOM      3  N   UNL     1     -20.886 -17.452 -18.494  0.00  0.00    -0.372 N 
ATOM      4  C   UNL     1     -21.330 -16.386 -17.819  0.00  0.00    +0.166 C 
ATOM      5  H   UNL     1     -22.909 -15.313 -17.136  0.00  0.00    +0.163 HD
ATOM      6  H   UNL     1     -19.434 -15.743 -17.353  0.00  0.00    +0.159 HD
ATOM      7  H   UNL     1     -20.700 -14.738 -16.756  0.00  0.00    +0.159 HD
ATOM      8  H   UNL     1     -21.518 -18.111 -18.930  0.00  0.00    +0.159 HD
ATOM      9  H   UNL     1     -19.897 -17.649 -18.582  0.00  0.00    +0.159 HD
ENDROOT
BRANCH   1  10
ATOM     10  C   UNL     1     -23.700 -16.916 -18.294  0.00  0.00    +0.151 C 
BRANCH  10  11
ATOM     11  C   UNL     1     -24.832 -16.007 -18.685  0.00  0.00    -0.028 A 
ATOM     12  C   UNL     1     -25.741 -16.389 -19.683  0.00  0.00    +0.005 A 
ATOM     13  C   UNL     1     -25.006 -14.764 -18.057  0.00  0.00    +0.005 A 
ATOM     14  C   UNL     1     -26.810 -15.557 -20.026  0.00  0.00    +0.000 A 
ATOM     15  C   UNL     1     -26.074 -13.936 -18.402  0.00  0.00    +0.000 A 
ATOM     16  C   UNL     1     -26.977 -14.335 -19.385  0.00  0.00    +0.000 A 
ENDBRANCH  10  11
ENDBRANCH   1  10
TORSDOF 2
ENDMDL
MODEL 6
REMARK VINA RESULT:    -4.786      4.730      5.854
REMARK INTER + INTRA:          -5.498
REMARK INTER:                  -5.357
REMARK INTRA:                  -0.141
REMARK UNBOUND:                -0.152
REMARK  Name = 1550473
REMARK  2 active torsions:
REMARK  status: ('A' for Active; 'I' for Inactive)
REMARK    1  A    between atoms: N_1  and  C_4
REMARK    2  A    between atoms: C_4  and  C_5
REMARK                            x       y       z     vdW  Elec       q    Type
REMARK                         _______ _______ _______ _____ _____    ______ ____
ROOT
ATOM      1  N   UNL     1     -21.140 -17.785 -20.429  0.00  0.00    -0.354 N 
ATOM      2  N   UNL     1     -19.281 -17.718 -19.049  0.00  0.00    -0.372 N 
ATOM      3  N   UNL     1     -21.366 -17.517 -18.112  0.00  0.00    -0.372 N 
ATOM      4  C   UNL     1     -20.610 -17.673 -19.204  0.00  0.00    +0.166 C 
ATOM      5  H   UNL     1     -20.511 -17.871 -21.220  0.00  0.00    +0.163 HD
ATOM      6  H   UNL     1     -18.853 -17.640 -18.136  0.00  0.00    +0.159 HD
ATOM      7  H   UNL     1     -18.657 -17.851 -19.836  0.00  0.00    +0.159 HD
ATOM      8  H   UNL     1     -22.375 -17.469 -18.162  0.00  0.00    +0.159 HD
ATOM      9  H   UNL     1     -20.955 -17.425 -17.192  0.00  0.00    +0.159 HD
ENDROOT
BRANCH   1  10
ATOM     10  C   UNL     1     -22.576 -17.802 -20.701  0.00  0.00    +0.151 C 
BRANCH  10  11
ATOM     11  C   UNL     1     -22.870 -16.876 -21.849  0.00  0.00    -0.028 A 
ATOM     12  C   UNL     1     -24.193 -16.626 -22.240  0.00  0.00    +0.005 A 
ATOM     13  C   UNL     1     -21.830 -16.242 -22.545  0.00  0.00    +0.005 A 
ATOM     14  C   UNL     1     -24.469 -15.743 -23.287  0.00  0.00    +0.000 A 
ATOM     15  C   UNL     1     -22.109 -15.362 -23.591  0.00  0.00    +0.000 A 
ATOM     16  C   UNL     1     -23.428 -15.110 -23.960  0.00  0.00    +0.000 A 
ENDBRANCH  10  11
ENDBRANCH   1  10
TORSDOF 2
ENDMDL
MODEL 7
REMARK VINA RESULT:    -4.757      3.027      3.922
REMARK INTER + INTRA:          -5.466
REMARK INTER:                  -5.336
REMARK INTRA:                  -0.130
REMARK UNBOUND:                -0.152
REMARK  Name = 1550473
REMARK  2 active torsions:
REMARK  status: ('A' for Active; 'I' for Inactive)
REMARK    1  A    between atoms: N_1  and  C_4
REMARK    2  A    between atoms: C_4  and  C_5
REMARK                            x       y       z     vdW  Elec       q    Type
REMARK                         _______ _______ _______ _____ _____    ______ ____
ROOT
ATOM      1  N   UNL     1     -21.767 -16.025 -19.281  0.00  0.00    -0.354 N 
ATOM      2  N   UNL     1     -20.080 -17.556 -18.861  0.00  0.00    -0.372 N 
ATOM      3  N   UNL     1     -21.476 -17.907 -20.647  0.00  0.00    -0.372 N 
ATOM      4  C   UNL     1     -21.120 -17.154 -19.601  0.00  0.00    +0.166 C 
ATOM      5  H   UNL     1     -21.466 -15.516 -18.458  0.00  0.00    +0.163 HD
ATOM      6  H   UNL     1     -19.571 -18.402 -19.080  0.00  0.00    +0.159 HD
ATOM      7  H   UNL     1     -19.753 -17.020 -18.066  0.00  0.00    +0.159 HD
ATOM      8  H   UNL     1     -22.256 -17.661 -21.243  0.00  0.00    +0.159 HD
ATOM      9  H   UNL     1     -20.986 -18.762 -20.876  0.00  0.00    +0.159 HD
ENDROOT
BRANCH   1  10
ATOM     10  C   UNL     1     -22.877 -15.471 -20.053  0.00  0.00    +0.151 C 
BRANCH  10  11
ATOM     11  C   UNL     1     -23.856 -14.826 -19.113  0.00  0.00    -0.028 A 
ATOM     12  C   UNL     1     -23.483 -14.520 -17.796  0.00  0.00    +0.005 A 
ATOM     13  C   UNL     1     -25.158 -14.512 -19.534  0.00  0.00    +0.005 A 
ATOM     14  C   UNL     1     -24.382 -13.892 -16.930  0.00  0.00    +0.000 A 
ATOM     15  C   UNL     1     -26.053 -13.886 -18.666  0.00  0.00    +0.000 A 
ATOM     16  C   UNL     1     -25.664 -13.574 -17.366  0.00  0.00    +0.000 A 
ENDBRANCH  10  11
ENDBRANCH   1  10
TORSDOF 2
ENDMDL
MODEL 8
REMARK VINA RESULT:    -4.646     31.144     32.996
REMARK INTER + INTRA:          -5.341
REMARK INTER:                  -5.223
REMARK INTRA:                  -0.118
REMARK UNBOUND:                -0.152
REMARK  Name = 1550473
REMARK  2 active torsions:
REMARK  status: ('A' for Active; 'I' for Inactive)
REMARK    1  A    between atoms: N_1  and  C_4
REMARK    2  A    between atoms: C_4  and  C_5
REMARK                            x       y       z     vdW  Elec       q    Type
REMARK                         _______ _______ _______ _____ _____    ______ ____
ROOT
ATOM      1  N   UNL     1      -9.935  -0.781   7.206  0.00  0.00    -0.354 N 
ATOM      2  N   UNL     1      -9.286   0.777   8.792  0.00  0.00    -0.372 N 
ATOM      3  N   UNL     1      -8.045   0.564   6.874  0.00  0.00    -0.372 N 
ATOM      4  C   UNL     1      -9.091   0.177   7.612  0.00  0.00    +0.166 C 
ATOM      5  H   UNL     1     -10.691  -1.050   7.826  0.00  0.00    +0.163 HD
ATOM      6  H   UNL     1      -8.668   1.506   9.123  0.00  0.00    +0.159 HD
ATOM      7  H   UNL     1     -10.069   0.539   9.388  0.00  0.00    +0.159 HD
ATOM      8  H   UNL     1      -7.839   0.147   5.976  0.00  0.00    +0.159 HD
ATOM      9  H   UNL     1      -7.408   1.284   7.193  0.00  0.00    +0.159 HD
ENDROOT
BRANCH   1  10
ATOM     10  C   UNL     1      -9.843  -1.459   5.915  0.00  0.00    +0.151 C 
BRANCH  10  11
ATOM     11  C   UNL     1     -11.217  -1.899   5.491  0.00  0.00    -0.028 A 
ATOM     12  C   UNL     1     -12.164  -2.294   6.447  0.00  0.00    +0.005 A 
ATOM     13  C   UNL     1     -11.580  -1.916   4.135  0.00  0.00    +0.005 A 
ATOM     14  C   UNL     1     -13.451  -2.673   6.056  0.00  0.00    +0.000 A 
ATOM     15  C   UNL     1     -12.865  -2.296   3.749  0.00  0.00    +0.000 A 
ATOM     16  C   UNL     1     -13.801  -2.672   4.710  0.00  0.00    +0.000 A 
ENDBRANCH  10  11
ENDBRANCH   1  10
TORSDOF 2
ENDMDL
MODEL 9
REMARK VINA RESULT:    -4.633     35.417     37.129
REMARK INTER + INTRA:          -5.326
REMARK INTER:                  -5.210
REMARK INTRA:                  -0.117
REMARK UNBOUND:                -0.152
REMARK  Name = 1550473
REMARK  2 active torsions:
REMARK  status: ('A' for Active; 'I' for Inactive)
REMARK    1  A    between atoms: N_1  and  C_4
REMARK    2  A    between atoms: C_4  and  C_5
REMARK                            x       y       z     vdW  Elec       q    Type
REMARK                         _______ _______ _______ _____ _____    ______ ____
ROOT
ATOM      1  N   UNL     1      -5.206   4.214   2.121  0.00  0.00    -0.354 N 
ATOM      2  N   UNL     1      -4.687   2.361   0.832  0.00  0.00    -0.372 N 
ATOM      3  N   UNL     1      -5.472   2.044   2.965  0.00  0.00    -0.372 N 
ATOM      4  C   UNL     1      -5.126   2.884   1.984  0.00  0.00    +0.166 C 
ATOM      5  H   UNL     1      -4.899   4.797   1.350  0.00  0.00    +0.163 HD
ATOM      6  H   UNL     1      -4.619   1.361   0.698  0.00  0.00    +0.159 HD
ATOM      7  H   UNL     1      -4.425   2.945   0.048  0.00  0.00    +0.159 HD
ATOM      8  H   UNL     1      -5.806   2.375   3.860  0.00  0.00    +0.159 HD
ATOM      9  H   UNL     1      -5.400   1.041   2.854  0.00  0.00    +0.159 HD
ENDROOT
BRANCH   1  10
ATOM     10  C   UNL     1      -5.722   4.883   3.314  0.00  0.00    +0.151 C 
BRANCH  10  11
ATOM     11  C   UNL     1      -4.617   5.689   3.941  0.00  0.00    -0.028 A 
ATOM     12  C   UNL     1      -4.897   6.602   4.968  0.00  0.00    +0.005 A 
ATOM     13  C   UNL     1      -3.288   5.539   3.516  0.00  0.00    +0.005 A 
ATOM     14  C   UNL     1      -3.868   7.329   5.571  0.00  0.00    +0.000 A 
ATOM     15  C   UNL     1      -2.263   6.267   4.121  0.00  0.00    +0.000 A 
ATOM     16  C   UNL     1      -2.553   7.160   5.150  0.00  0.00    +0.000 A 
ENDBRANCH  10  11
ENDBRANCH   1  10
TORSDOF 2
ENDMDL
