MODEL 1
REMARK VINA RESULT:    -4.901      0.000      0.000
REMARK INTER + INTRA:          -5.583
REMARK INTER:                  -5.474
REMARK INTRA:                  -0.109
REMARK UNBOUND:                -0.109
REMARK  Name = 1550473
REMARK  2 active torsions:
REMARK  status: ('A' for Active; 'I' for Inactive)
REMARK    1  A    between atoms: N_1  and  C_4
REMARK    2  A    between atoms: C_4  and  C_5
REMARK                            x       y       z     vdW  Elec       q    Type
REMARK                         _______ _______ _______ _____ _____    ______ ____
ROOT
ATOM      1  N   UNL     1     -13.551  -9.582 -42.602  0.00  0.00    -0.354 N 
ATOM      2  N   UNL     1     -15.838  -9.242 -42.474  0.00  0.00    -0.372 N 
ATOM      3  N   UNL     1     -14.988 -10.410 -44.257  0.00  0.00    -0.372 N 
ATOM      4  C   UNL     1     -14.777  -9.748 -43.114  0.00  0.00    +0.166 C 
ATOM      5  H   UNL     1     -13.454  -9.044 -41.748  0.00  0.00    +0.163 HD
ATOM      6  H   UNL     1     -16.776  -9.355 -42.834  0.00  0.00    +0.159 HD
ATOM      7  H   UNL     1     -15.743  -8.745 -41.597  0.00  0.00    +0.159 HD
ATOM      8  H   UNL     1     -14.229 -10.811 -44.792  0.00  0.00    +0.159 HD
ATOM      9  H   UNL     1     -15.919 -10.523 -44.640  0.00  0.00    +0.159 HD
ENDROOT
BRANCH   1  10
ATOM     10  C   UNL     1     -12.335 -10.139 -43.193  0.00  0.00    +0.151 C 
BRANCH  10  11
ATOM     11  C   UNL     1     -11.153  -9.740 -42.353  0.00  0.00    -0.028 A 
ATOM     12  C   UNL     1     -10.147 -10.670 -42.052  0.00  0.00    +0.005 A 
ATOM     13  C   UNL     1     -11.030  -8.432 -41.860  0.00  0.00    +0.005 A 
ATOM     14  C   UNL     1      -9.034 -10.292 -41.297  0.00  0.00    +0.000 A 
ATOM     15  C   UNL     1      -9.918  -8.059 -41.106  0.00  0.00    +0.000 A 
ATOM     16  C   UNL     1      -8.919  -8.988 -40.827  0.00  0.00    +0.000 A 
ENDBRANCH  10  11
ENDBRANCH   1  10
TORSDOF 2
ENDMDL
MODEL 2
REMARK VINA RESULT:    -4.628      4.657      6.382
REMARK INTER + INTRA:          -5.278
REMARK INTER:                  -5.164
REMARK INTRA:                  -0.114
REMARK UNBOUND:                -0.109
REMARK  Name = 1550473
REMARK  2 active torsions:
REMARK  status: ('A' for Active; 'I' for Inactive)
REMARK    1  A    between atoms: N_1  and  C_4
REMARK    2  A    between atoms: C_4  and  C_5
REMARK                            x       y       z     vdW  Elec       q    Type
REMARK                         _______ _______ _______ _____ _____    ______ ____
ROOT
ATOM      1  N   UNL     1      -7.091  -9.800 -39.612  0.00  0.00    -0.354 N 
ATOM      2  N   UNL     1      -5.571  -9.154 -37.988  0.00  0.00    -0.372 N 
ATOM      3  N   UNL     1      -4.842 -10.446 -39.739  0.00  0.00    -0.372 N 
ATOM      4  C   UNL     1      -5.843  -9.806 -39.125  0.00  0.00    +0.166 C 
ATOM      5  H   UNL     1      -7.812  -9.322 -39.084  0.00  0.00    +0.163 HD
ATOM      6  H   UNL     1      -4.639  -9.137 -37.598  0.00  0.00    +0.159 HD
ATOM      7  H   UNL     1      -6.284  -8.638 -37.487  0.00  0.00    +0.159 HD
ATOM      8  H   UNL     1      -4.982 -10.961 -40.597  0.00  0.00    +0.159 HD
ATOM      9  H   UNL     1      -3.903 -10.450 -39.358  0.00  0.00    +0.159 HD
ENDROOT
BRANCH   1  10
ATOM     10  C   UNL     1      -7.480 -10.434 -40.871  0.00  0.00    +0.151 C 
BRANCH  10  11
ATOM     11  C   UNL     1      -8.855  -9.960 -41.255  0.00  0.00    -0.028 A 
ATOM     12  C   UNL     1      -9.805 -10.862 -41.754  0.00  0.00    +0.005 A 
ATOM     13  C   UNL     1      -9.215  -8.611 -41.116  0.00  0.00    +0.005 A 
ATOM     14  C   UNL     1     -11.092 -10.428 -42.083  0.00  0.00    +0.000 A 
ATOM     15  C   UNL     1     -10.500  -8.181 -41.446  0.00  0.00    +0.000 A 
ATOM     16  C   UNL     1     -11.439  -9.090 -41.927  0.00  0.00    +0.000 A 
ENDBRANCH  10  11
ENDBRANCH   1  10
TORSDOF 2
ENDMDL
MODEL 3
REMARK VINA RESULT:    -4.543     27.747     28.824
REMARK INTER + INTRA:          -5.183
REMARK INTER:                  -5.030
REMARK INTRA:                  -0.153
REMARK UNBOUND:                -0.109
REMARK  Name = 1550473
REMARK  2 active torsions:
REMARK  status: ('A' for Active; 'I' for Inactive)
REMARK    1  A    between atoms: N_1  and  C_4
REMARK    2  A    between atoms: C_4  and  C_5
REMARK                            x       y       z     vdW  Elec       q    Type
REMARK                         _______ _______ _______ _____ _____    ______ ____
ROOT
ATOM      1  N   UNL     1     -13.817 -35.934 -47.366  0.00  0.00    -0.354 N 
ATOM      2  N   UNL     1     -14.807 -33.935 -47.988  0.00  0.00    -0.372 N 
ATOM      3  N   UNL     1     -16.148 -35.733 -47.502  0.00  0.00    -0.372 N 
ATOM      4  C   UNL     1     -14.920 -35.216 -47.614  0.00  0.00    +0.166 C 
ATOM      5  H   UNL     1     -12.914 -35.492 -47.499  0.00  0.00    +0.163 HD
ATOM      6  H   UNL     1     -15.622 -33.367 -48.179  0.00  0.00    +0.159 HD
ATOM      7  H   UNL     1     -13.906 -33.483 -48.076  0.00  0.00    +0.159 HD
ATOM      8  H   UNL     1     -16.300 -36.695 -47.229  0.00  0.00    +0.159 HD
ATOM      9  H   UNL     1     -16.975 -35.184 -47.700  0.00  0.00    +0.159 HD
ENDROOT
BRANCH   1  10
ATOM     10  C   UNL     1     -13.831 -37.320 -46.901  0.00  0.00    +0.151 C 
BRANCH  10  11
ATOM     11  C   UNL     1     -13.346 -38.214 -48.009  0.00  0.00    -0.028 A 
ATOM     12  C   UNL     1     -12.532 -37.705 -49.031  0.00  0.00    +0.005 A 
ATOM     13  C   UNL     1     -13.693 -39.574 -48.039  0.00  0.00    +0.005 A 
ATOM     14  C   UNL     1     -12.057 -38.542 -50.043  0.00  0.00    +0.000 A 
ATOM     15  C   UNL     1     -13.217 -40.406 -49.052  0.00  0.00    +0.000 A 
ATOM     16  C   UNL     1     -12.397 -39.890 -50.053  0.00  0.00    +0.000 A 
ENDBRANCH  10  11
ENDBRANCH   1  10
TORSDOF 2
ENDMDL
MODEL 4
REMARK VINA RESULT:    -4.340     20.732     22.003
REMARK INTER + INTRA:          -4.956
REMARK INTER:                  -4.834
REMARK INTRA:                  -0.122
REMARK UNBOUND:                -0.109
REMARK  Name = 1550473
REMARK  2 active torsions:
REMARK  status: ('A' for Active; 'I' for Inactive)
REMARK    1  A    between atoms: N_1  and  C_4
REMARK    2  A    between atoms: C_4  and  C_5
REMARK                            x       y       z     vdW  Elec       q    Type
REMARK                         _______ _______ _______ _____ _____    ______ ____
ROOT
ATOM      1  N   UNL     1     -11.033   0.518 -22.268  0.00  0.00    -0.354 N 
ATOM      2  N   UNL     1     -12.910   1.379 -21.219  0.00  0.00    -0.372 N 
ATOM      3  N   UNL     1     -11.384   0.203 -19.973  0.00  0.00    -0.372 N 
ATOM      4  C   UNL     1     -11.762   0.693 -21.158  0.00  0.00    +0.166 C 
ATOM      5  H   UNL     1     -11.390   0.889 -23.141  0.00  0.00    +0.163 HD
ATOM      6  H   UNL     1     -13.480   1.529 -20.397  0.00  0.00    +0.159 HD
ATOM      7  H   UNL     1     -13.241   1.787 -22.084  0.00  0.00    +0.159 HD
ATOM      8  H   UNL     1     -10.531  -0.329 -19.861  0.00  0.00    +0.159 HD
ATOM      9  H   UNL     1     -11.947   0.333 -19.141  0.00  0.00    +0.159 HD
ENDROOT
BRANCH   1  10
ATOM     10  C   UNL     1      -9.742  -0.167 -22.299  0.00  0.00    +0.151 C 
BRANCH  10  11
ATOM     11  C   UNL     1      -8.959   0.315 -23.489  0.00  0.00    -0.028 A 
ATOM     12  C   UNL     1      -8.164  -0.575 -24.226  0.00  0.00    +0.005 A 
ATOM     13  C   UNL     1      -9.012   1.659 -23.888  0.00  0.00    +0.005 A 
ATOM     14  C   UNL     1      -7.460  -0.135 -25.349  0.00  0.00    +0.000 A 
ATOM     15  C   UNL     1      -8.307   2.095 -25.010  0.00  0.00    +0.000 A 
ATOM     16  C   UNL     1      -7.533   1.198 -25.742  0.00  0.00    +0.000 A 
ENDBRANCH  10  11
ENDBRANCH   1  10
TORSDOF 2
ENDMDL
MODEL 5
REMARK VINA RESULT:    -4.293     77.138     78.249
REMARK INTER + INTRA:          -4.904
REMARK INTER:                  -4.762
REMARK INTRA:                  -0.141
REMARK UNBOUND:                -0.109
REMARK  Name = 1550473
REMARK  2 active torsions:
REMARK  status: ('A' for Active; 'I' for Inactive)
REMARK    1  A    between atoms: N_1  and  C_4
REMARK    2  A    between atoms: C_4  and  C_5
REMARK                            x       y       z     vdW  Elec       q    Type
REMARK                         _______ _______ _______ _____ _____    ______ ____
ROOT
ATOM      1  N   UNL     1       8.974  23.457  24.612  0.00  0.00    -0.354 N 
ATOM      2  N   UNL     1       8.259  25.656  24.484  0.00  0.00    -0.372 N 
ATOM      3  N   UNL     1       6.706  24.003  24.827  0.00  0.00    -0.372 N 
ATOM      4  C   UNL     1       7.982  24.356  24.642  0.00  0.00    +0.166 C 
ATOM      5  H   UNL     1       9.917  23.786  24.437  0.00  0.00    +0.163 HD
ATOM      6  H   UNL     1       7.532  26.358  24.505  0.00  0.00    +0.159 HD
ATOM      7  H   UNL     1       9.208  25.987  24.355  0.00  0.00    +0.159 HD
ATOM      8  H   UNL     1       6.429  23.037  24.947  0.00  0.00    +0.159 HD
ATOM      9  H   UNL     1       5.962  24.689  24.840  0.00  0.00    +0.159 HD
ENDROOT
BRANCH   1  10
ATOM     10  C   UNL     1       8.786  22.023  24.827  0.00  0.00    +0.151 C 
BRANCH  10  11
ATOM     11  C   UNL     1       9.818  21.534  25.806  0.00  0.00    -0.028 A 
ATOM     12  C   UNL     1       9.821  20.196  26.227  0.00  0.00    +0.005 A 
ATOM     13  C   UNL     1      10.798  22.401  26.311  0.00  0.00    +0.005 A 
ATOM     14  C   UNL     1      10.798  19.733  27.112  0.00  0.00    +0.000 A 
ATOM     15  C   UNL     1      11.771  21.936  27.196  0.00  0.00    +0.000 A 
ATOM     16  C   UNL     1      11.772  20.601  27.594  0.00  0.00    +0.000 A 
ENDBRANCH  10  11
ENDBRANCH   1  10
TORSDOF 2
ENDMDL
MODEL 6
REMARK VINA RESULT:    -4.259     21.288     21.772
REMARK INTER + INTRA:          -4.866
REMARK INTER:                  -4.740
REMARK INTRA:                  -0.126
REMARK UNBOUND:                -0.109
REMARK  Name = 1550473
REMARK  2 active torsions:
REMARK  status: ('A' for Active; 'I' for Inactive)
REMARK    1  A    between atoms: N_1  and  C_4
REMARK    2  A    between atoms: C_4  and  C_5
REMARK                            x       y       z     vdW  Elec       q    Type
REMARK                         _______ _______ _______ _____ _____    ______ ____
ROOT
ATOM      1  N   UNL     1      -8.147 -27.595 -31.194  0.00  0.00    -0.354 N 
ATOM      2  N   UNL     1      -7.295 -29.430 -32.321  0.00  0.00    -0.372 N 
ATOM      3  N   UNL     1      -9.560 -29.292 -31.977  0.00  0.00    -0.372 N 
ATOM      4  C   UNL     1      -8.342 -28.761 -31.823  0.00  0.00    +0.166 C 
ATOM      5  H   UNL     1      -7.196 -27.261 -31.084  0.00  0.00    +0.163 HD
ATOM      6  H   UNL     1      -7.412 -30.311 -32.803  0.00  0.00    +0.159 HD
ATOM      7  H   UNL     1      -6.351 -29.072 -32.249  0.00  0.00    +0.159 HD
ATOM      8  H   UNL     1     -10.391 -28.840 -31.620  0.00  0.00    +0.159 HD
ATOM      9  H   UNL     1      -9.696 -30.179 -32.447  0.00  0.00    +0.159 HD
ENDROOT
BRANCH   1  10
ATOM     10  C   UNL     1      -9.224 -26.761 -30.664  0.00  0.00    +0.151 C 
BRANCH  10  11
ATOM     11  C   UNL     1      -8.744 -26.073 -29.416  0.00  0.00    -0.028 A 
ATOM     12  C   UNL     1      -7.373 -25.872 -29.196  0.00  0.00    +0.005 A 
ATOM     13  C   UNL     1      -9.655 -25.614 -28.452  0.00  0.00    +0.005 A 
ATOM     14  C   UNL     1      -6.928 -25.206 -28.052  0.00  0.00    +0.000 A 
ATOM     15  C   UNL     1      -9.206 -24.950 -27.310  0.00  0.00    +0.000 A 
ATOM     16  C   UNL     1      -7.843 -24.744 -27.112  0.00  0.00    +0.000 A 
ENDBRANCH  10  11
ENDBRANCH   1  10
TORSDOF 2
ENDMDL
MODEL 7
REMARK VINA RESULT:    -4.109     42.508     43.484
REMARK INTER + INTRA:          -4.698
REMARK INTER:                  -4.571
REMARK INTRA:                  -0.127
REMARK UNBOUND:                -0.109
REMARK  Name = 1550473
REMARK  2 active torsions:
REMARK  status: ('A' for Active; 'I' for Inactive)
REMARK    1  A    between atoms: N_1  and  C_4
REMARK    2  A    between atoms: C_4  and  C_5
REMARK                            x       y       z     vdW  Elec       q    Type
REMARK                         _______ _______ _______ _____ _____    ______ ____
ROOT
ATOM      1  N   UNL     1       4.394 -17.064  -3.348  0.00  0.00    -0.354 N 
ATOM      2  N   UNL     1       5.754 -17.892  -5.030  0.00  0.00    -0.372 N 
ATOM      3  N   UNL     1       6.472 -18.030  -2.855  0.00  0.00    -0.372 N 
ATOM      4  C   UNL     1       5.533 -17.657  -3.731  0.00  0.00    +0.166 C 
ATOM      5  H   UNL     1       3.736 -16.778  -4.064  0.00  0.00    +0.163 HD
ATOM      6  H   UNL     1       6.602 -18.341  -5.349  0.00  0.00    +0.159 HD
ATOM      7  H   UNL     1       5.074 -17.647  -5.740  0.00  0.00    +0.159 HD
ATOM      8  H   UNL     1       6.368 -17.875  -1.861  0.00  0.00    +0.159 HD
ATOM      9  H   UNL     1       7.333 -18.470  -3.156  0.00  0.00    +0.159 HD
ENDROOT
BRANCH   1  10
ATOM     10  C   UNL     1       4.033 -16.812  -1.955  0.00  0.00    +0.151 C 
BRANCH  10  11
ATOM     11  C   UNL     1       2.535 -16.849  -1.821  0.00  0.00    -0.028 A 
ATOM     12  C   UNL     1       1.882 -16.018  -0.899  0.00  0.00    +0.005 A 
ATOM     13  C   UNL     1       1.764 -17.709  -2.618  0.00  0.00    +0.005 A 
ATOM     14  C   UNL     1       0.488 -16.031  -0.796  0.00  0.00    +0.000 A 
ATOM     15  C   UNL     1       0.373 -17.719  -2.512  0.00  0.00    +0.000 A 
ATOM     16  C   UNL     1      -0.264 -16.878  -1.602  0.00  0.00    +0.000 A 
ENDBRANCH  10  11
ENDBRANCH   1  10
TORSDOF 2
ENDMDL
MODEL 8
REMARK VINA RESULT:    -4.089      1.542      2.349
REMARK INTER + INTRA:          -4.676
REMARK INTER:                  -4.542
REMARK INTRA:                  -0.134
REMARK UNBOUND:                -0.109
REMARK  Name = 1550473
REMARK  2 active torsions:
REMARK  status: ('A' for Active; 'I' for Inactive)
REMARK    1  A    between atoms: N_1  and  C_4
REMARK    2  A    between atoms: C_4  and  C_5
REMARK                            x       y       z     vdW  Elec       q    Type
REMARK                         _______ _______ _______ _____ _____    ______ ____
ROOT
ATOM      1  N   UNL     1     -13.511 -10.105 -43.478  0.00  0.00    -0.354 N 
ATOM      2  N   UNL     1     -15.424 -10.489 -44.725  0.00  0.00    -0.372 N 
ATOM      3  N   UNL     1     -13.486 -11.569 -45.308  0.00  0.00    -0.372 N 
ATOM      4  C   UNL     1     -14.126 -10.720 -44.497  0.00  0.00    +0.166 C 
ATOM      5  H   UNL     1     -14.044  -9.450 -42.918  0.00  0.00    +0.163 HD
ATOM      6  H   UNL     1     -15.916 -10.941 -45.484  0.00  0.00    +0.159 HD
ATOM      7  H   UNL     1     -15.967  -9.869 -44.136  0.00  0.00    +0.159 HD
ATOM      8  H   UNL     1     -12.504 -11.782 -45.193  0.00  0.00    +0.159 HD
ATOM      9  H   UNL     1     -13.958 -12.022 -46.081  0.00  0.00    +0.159 HD
ENDROOT
BRANCH   1  10
ATOM     10  C   UNL     1     -12.113 -10.329 -43.112  0.00  0.00    +0.151 C 
BRANCH  10  11
ATOM     11  C   UNL     1     -11.471  -9.007 -42.796  0.00  0.00    -0.028 A 
ATOM     12  C   UNL     1     -11.575  -7.933 -43.692  0.00  0.00    +0.005 A 
ATOM     13  C   UNL     1     -10.761  -8.819 -41.600  0.00  0.00    +0.005 A 
ATOM     14  C   UNL     1     -11.003  -6.695 -43.386  0.00  0.00    +0.000 A 
ATOM     15  C   UNL     1     -10.191  -7.583 -41.298  0.00  0.00    +0.000 A 
ATOM     16  C   UNL     1     -10.315  -6.520 -42.190  0.00  0.00    +0.000 A 
ENDBRANCH  10  11
ENDBRANCH   1  10
TORSDOF 2
ENDMDL
MODEL 9
REMARK VINA RESULT:    -4.011     43.542     44.948
REMARK INTER + INTRA:          -4.589
REMARK INTER:                  -4.447
REMARK INTRA:                  -0.142
REMARK UNBOUND:                -0.109
REMARK  Name = 1550473
REMARK  2 active torsions:
REMARK  status: ('A' for Active; 'I' for Inactive)
REMARK    1  A    between atoms: N_1  and  C_4
REMARK    2  A    between atoms: C_4  and  C_5
REMARK                            x       y       z     vdW  Elec       q    Type
REMARK                         _______ _______ _______ _____ _____    ______ ____
ROOT
ATOM      1  N   UNL     1       1.324 -16.421   0.499  0.00  0.00    -0.354 N 
ATOM      2  N   UNL     1      -0.708 -15.311   0.565  0.00  0.00    -0.372 N 
ATOM      3  N   UNL     1       1.030 -14.519   1.836  0.00  0.00    -0.372 N 
ATOM      4  C   UNL     1       0.563 -15.423   0.968  0.00  0.00    +0.166 C 
ATOM      5  H   UNL     1       0.901 -17.091  -0.134  0.00  0.00    +0.163 HD
ATOM      6  H   UNL     1      -1.305 -14.567   0.899  0.00  0.00    +0.159 HD
ATOM      7  H   UNL     1      -1.114 -15.956  -0.103  0.00  0.00    +0.159 HD
ATOM      8  H   UNL     1       1.979 -14.551   2.184  0.00  0.00    +0.159 HD
ATOM      9  H   UNL     1       0.445 -13.773   2.191  0.00  0.00    +0.159 HD
ENDROOT
BRANCH   1  10
ATOM     10  C   UNL     1       2.735 -16.600   0.833  0.00  0.00    +0.151 C 
BRANCH  10  11
ATOM     11  C   UNL     1       3.528 -16.734  -0.437  0.00  0.00    -0.028 A 
ATOM     12  C   UNL     1       4.901 -17.015  -0.394  0.00  0.00    +0.005 A 
ATOM     13  C   UNL     1       2.910 -16.587  -1.689  0.00  0.00    +0.005 A 
ATOM     14  C   UNL     1       5.632 -17.170  -1.574  0.00  0.00    +0.000 A 
ATOM     15  C   UNL     1       3.644 -16.741  -2.865  0.00  0.00    +0.000 A 
ATOM     16  C   UNL     1       5.004 -17.035  -2.808  0.00  0.00    +0.000 A 
ENDBRANCH  10  11
ENDBRANCH   1  10
TORSDOF 2
ENDMDL
