MODEL 1
REMARK VINA RESULT:    -4.664      0.000      0.000
REMARK INTER + INTRA:          -5.324
REMARK INTER:                  -5.209
REMARK INTRA:                  -0.115
REMARK UNBOUND:                -0.115
REMARK  Name = 1550473
REMARK  2 active torsions:
REMARK  status: ('A' for Active; 'I' for Inactive)
REMARK    1  A    between atoms: N_1  and  C_4
REMARK    2  A    between atoms: C_4  and  C_5
REMARK                            x       y       z     vdW  Elec       q    Type
REMARK                         _______ _______ _______ _____ _____    ______ ____
ROOT
ATOM      1  N   UNL     1      11.890  -7.671   0.730  0.00  0.00    -0.354 N 
ATOM      2  N   UNL     1      10.138  -6.231   0.257  0.00  0.00    -0.372 N 
ATOM      3  N   UNL     1      11.388  -7.065  -1.477  0.00  0.00    -0.372 N 
ATOM      4  C   UNL     1      11.151  -6.998  -0.163  0.00  0.00    +0.166 C 
ATOM      5  H   UNL     1      11.678  -7.554   1.715  0.00  0.00    +0.163 HD
ATOM      6  H   UNL     1       9.562  -5.715  -0.394  0.00  0.00    +0.159 HD
ATOM      7  H   UNL     1       9.900  -6.152   1.238  0.00  0.00    +0.159 HD
ATOM      8  H   UNL     1      12.141  -7.622  -1.858  0.00  0.00    +0.159 HD
ATOM      9  H   UNL     1      10.829  -6.547  -2.144  0.00  0.00    +0.159 HD
ENDROOT
BRANCH   1  10
ATOM     10  C   UNL     1      12.981  -8.576   0.374  0.00  0.00    +0.151 C 
BRANCH  10  11
ATOM     11  C   UNL     1      13.653  -9.054   1.631  0.00  0.00    -0.028 A 
ATOM     12  C   UNL     1      13.801  -8.195   2.730  0.00  0.00    +0.005 A 
ATOM     13  C   UNL     1      14.140 -10.366   1.732  0.00  0.00    +0.005 A 
ATOM     14  C   UNL     1      14.398  -8.647   3.909  0.00  0.00    +0.000 A 
ATOM     15  C   UNL     1      14.737 -10.814   2.910  0.00  0.00    +0.000 A 
ATOM     16  C   UNL     1      14.864  -9.955   3.999  0.00  0.00    +0.000 A 
ENDBRANCH  10  11
ENDBRANCH   1  10
TORSDOF 2
ENDMDL
MODEL 2
REMARK VINA RESULT:    -4.455     21.842     22.562
REMARK INTER + INTRA:          -5.091
REMARK INTER:                  -4.959
REMARK INTRA:                  -0.132
REMARK UNBOUND:                -0.115
REMARK  Name = 1550473
REMARK  2 active torsions:
REMARK  status: ('A' for Active; 'I' for Inactive)
REMARK    1  A    between atoms: N_1  and  C_4
REMARK    2  A    between atoms: C_4  and  C_5
REMARK                            x       y       z     vdW  Elec       q    Type
REMARK                         _______ _______ _______ _____ _____    ______ ____
ROOT
ATOM      1  N   UNL     1       4.413   9.124  13.538  0.00  0.00    -0.354 N 
ATOM      2  N   UNL     1       5.849  10.634  12.527  0.00  0.00    -0.372 N 
ATOM      3  N   UNL     1       4.685   9.159  11.210  0.00  0.00    -0.372 N 
ATOM      4  C   UNL     1       4.972   9.628  12.429  0.00  0.00    +0.166 C 
ATOM      5  H   UNL     1       4.696   9.503  14.434  0.00  0.00    +0.163 HD
ATOM      6  H   UNL     1       6.284  11.038  11.708  0.00  0.00    +0.159 HD
ATOM      7  H   UNL     1       6.094  11.042  13.421  0.00  0.00    +0.159 HD
ATOM      8  H   UNL     1       4.036   8.397  11.069  0.00  0.00    +0.159 HD
ATOM      9  H   UNL     1       5.119   9.542  10.379  0.00  0.00    +0.159 HD
ENDROOT
BRANCH   1  10
ATOM     10  C   UNL     1       3.407   8.063  13.537  0.00  0.00    +0.151 C 
BRANCH  10  11
ATOM     11  C   UNL     1       3.671   7.135  14.690  0.00  0.00    -0.028 A 
ATOM     12  C   UNL     1       4.978   6.728  14.992  0.00  0.00    +0.005 A 
ATOM     13  C   UNL     1       2.617   6.664  15.489  0.00  0.00    +0.005 A 
ATOM     14  C   UNL     1       5.227   5.889  16.082  0.00  0.00    +0.000 A 
ATOM     15  C   UNL     1       2.869   5.826  16.575  0.00  0.00    +0.000 A 
ATOM     16  C   UNL     1       4.174   5.441  16.873  0.00  0.00    +0.000 A 
ENDBRANCH  10  11
ENDBRANCH   1  10
TORSDOF 2
ENDMDL
MODEL 3
REMARK VINA RESULT:    -4.344      1.540      2.078
REMARK INTER + INTRA:          -4.967
REMARK INTER:                  -4.836
REMARK INTRA:                  -0.131
REMARK UNBOUND:                -0.115
REMARK  Name = 1550473
REMARK  2 active torsions:
REMARK  status: ('A' for Active; 'I' for Inactive)
REMARK    1  A    between atoms: N_1  and  C_4
REMARK    2  A    between atoms: C_4  and  C_5
REMARK                            x       y       z     vdW  Elec       q    Type
REMARK                         _______ _______ _______ _____ _____    ______ ____
ROOT
ATOM      1  N   UNL     1      11.682  -7.584   0.841  0.00  0.00    -0.354 N 
ATOM      2  N   UNL     1      10.007  -6.167   0.100  0.00  0.00    -0.372 N 
ATOM      3  N   UNL     1      11.476  -7.043  -1.429  0.00  0.00    -0.372 N 
ATOM      4  C   UNL     1      11.068  -6.941  -0.160  0.00  0.00    +0.166 C 
ATOM      5  H   UNL     1      11.343  -7.441   1.786  0.00  0.00    +0.163 HD
ATOM      6  H   UNL     1       9.520  -5.672  -0.635  0.00  0.00    +0.159 HD
ATOM      7  H   UNL     1       9.641  -6.063   1.039  0.00  0.00    +0.159 HD
ATOM      8  H   UNL     1      12.274  -7.606  -1.692  0.00  0.00    +0.159 HD
ATOM      9  H   UNL     1      11.009  -6.546  -2.178  0.00  0.00    +0.159 HD
ENDROOT
BRANCH   1  10
ATOM     10  C   UNL     1      12.812  -8.493   0.658  0.00  0.00    +0.151 C 
BRANCH  10  11
ATOM     11  C   UNL     1      13.956  -8.035   1.520  0.00  0.00    -0.028 A 
ATOM     12  C   UNL     1      15.231  -7.841   0.967  0.00  0.00    +0.005 A 
ATOM     13  C   UNL     1      13.771  -7.788   2.889  0.00  0.00    +0.005 A 
ATOM     14  C   UNL     1      16.287  -7.387   1.761  0.00  0.00    +0.000 A 
ATOM     15  C   UNL     1      14.828  -7.335   3.678  0.00  0.00    +0.000 A 
ATOM     16  C   UNL     1      16.085  -7.133   3.114  0.00  0.00    +0.000 A 
ENDBRANCH  10  11
ENDBRANCH   1  10
TORSDOF 2
ENDMDL
MODEL 4
REMARK VINA RESULT:    -4.332     14.547     15.451
REMARK INTER + INTRA:          -4.953
REMARK INTER:                  -4.856
REMARK INTRA:                  -0.097
REMARK UNBOUND:                -0.115
REMARK  Name = 1550473
REMARK  2 active torsions:
REMARK  status: ('A' for Active; 'I' for Inactive)
REMARK    1  A    between atoms: N_1  and  C_4
REMARK    2  A    between atoms: C_4  and  C_5
REMARK                            x       y       z     vdW  Elec       q    Type
REMARK                         _______ _______ _______ _____ _____    ______ ____
ROOT
ATOM      1  N   UNL     1       5.869  -8.525  13.202  0.00  0.00    -0.354 N 
ATOM      2  N   UNL     1       7.739  -9.654  12.433  0.00  0.00    -0.372 N 
ATOM      3  N   UNL     1       7.034  -7.781  11.310  0.00  0.00    -0.372 N 
ATOM      4  C   UNL     1       6.869  -8.644  12.318  0.00  0.00    +0.166 C 
ATOM      5  H   UNL     1       5.780  -9.229  13.925  0.00  0.00    +0.163 HD
ATOM      6  H   UNL     1       8.506  -9.767  11.782  0.00  0.00    +0.159 HD
ATOM      7  H   UNL     1       7.675 -10.330  13.184  0.00  0.00    +0.159 HD
ATOM      8  H   UNL     1       6.408  -7.001  11.164  0.00  0.00    +0.159 HD
ATOM      9  H   UNL     1       7.788  -7.885  10.642  0.00  0.00    +0.159 HD
ENDROOT
BRANCH   1  10
ATOM     10  C   UNL     1       4.899  -7.431  13.197  0.00  0.00    +0.151 C 
BRANCH  10  11
ATOM     11  C   UNL     1       3.625  -7.902  13.842  0.00  0.00    -0.028 A 
ATOM     12  C   UNL     1       3.446  -7.792  15.229  0.00  0.00    +0.005 A 
ATOM     13  C   UNL     1       2.590  -8.454  13.071  0.00  0.00    +0.005 A 
ATOM     14  C   UNL     1       2.250  -8.201  15.825  0.00  0.00    +0.000 A 
ATOM     15  C   UNL     1       1.399  -8.862  13.670  0.00  0.00    +0.000 A 
ATOM     16  C   UNL     1       1.228  -8.734  15.046  0.00  0.00    +0.000 A 
ENDBRANCH  10  11
ENDBRANCH   1  10
TORSDOF 2
ENDMDL
MODEL 5
REMARK VINA RESULT:    -4.111     37.231     37.690
REMARK INTER + INTRA:          -4.707
REMARK INTER:                  -4.580
REMARK INTRA:                  -0.126
REMARK UNBOUND:                -0.115
REMARK  Name = 1550473
REMARK  2 active torsions:
REMARK  status: ('A' for Active; 'I' for Inactive)
REMARK    1  A    between atoms: N_1  and  C_4
REMARK    2  A    between atoms: C_4  and  C_5
REMARK                            x       y       z     vdW  Elec       q    Type
REMARK                         _______ _______ _______ _____ _____    ______ ____
ROOT
ATOM      1  N   UNL     1     -17.817 -14.621 -19.835  0.00  0.00    -0.354 N 
ATOM      2  N   UNL     1     -17.137 -13.383 -21.670  0.00  0.00    -0.372 N 
ATOM      3  N   UNL     1     -16.715 -12.571 -19.566  0.00  0.00    -0.372 N 
ATOM      4  C   UNL     1     -17.227 -13.531 -20.343  0.00  0.00    +0.166 C 
ATOM      5  H   UNL     1     -18.212 -15.298 -20.477  0.00  0.00    +0.163 HD
ATOM      6  H   UNL     1     -16.694 -12.573 -22.083  0.00  0.00    +0.159 HD
ATOM      7  H   UNL     1     -17.492 -14.084 -22.310  0.00  0.00    +0.159 HD
ATOM      8  H   UNL     1     -16.755 -12.619 -18.557  0.00  0.00    +0.159 HD
ATOM      9  H   UNL     1     -16.278 -11.747 -19.961  0.00  0.00    +0.159 HD
ENDROOT
BRANCH   1  10
ATOM     10  C   UNL     1     -17.919 -14.904 -18.404  0.00  0.00    +0.151 C 
BRANCH  10  11
ATOM     11  C   UNL     1     -17.924 -16.393 -18.197  0.00  0.00    -0.028 A 
ATOM     12  C   UNL     1     -17.149 -17.229 -19.015  0.00  0.00    +0.005 A 
ATOM     13  C   UNL     1     -18.698 -16.975 -17.181  0.00  0.00    +0.005 A 
ATOM     14  C   UNL     1     -17.131 -18.610 -18.804  0.00  0.00    +0.000 A 
ATOM     15  C   UNL     1     -18.678 -18.354 -16.974  0.00  0.00    +0.000 A 
ATOM     16  C   UNL     1     -17.893 -19.171 -17.784  0.00  0.00    +0.000 A 
ENDBRANCH  10  11
ENDBRANCH   1  10
TORSDOF 2
ENDMDL
MODEL 6
REMARK VINA RESULT:    -4.020     30.646     31.555
REMARK INTER + INTRA:          -4.605
REMARK INTER:                  -4.485
REMARK INTRA:                  -0.120
REMARK UNBOUND:                -0.115
REMARK  Name = 1550473
REMARK  2 active torsions:
REMARK  status: ('A' for Active; 'I' for Inactive)
REMARK    1  A    between atoms: N_1  and  C_4
REMARK    2  A    between atoms: C_4  and  C_5
REMARK                            x       y       z     vdW  Elec       q    Type
REMARK                         _______ _______ _______ _____ _____    ______ ____
ROOT
ATOM      1  N   UNL     1       6.349   9.875  25.371  0.00  0.00    -0.354 N 
ATOM      2  N   UNL     1       4.215   8.992  25.540  0.00  0.00    -0.372 N 
ATOM      3  N   UNL     1       4.502  11.254  25.799  0.00  0.00    -0.372 N 
ATOM      4  C   UNL     1       5.035  10.049  25.570  0.00  0.00    +0.166 C 
ATOM      5  H   UNL     1       6.694   8.933  25.232  0.00  0.00    +0.163 HD
ATOM      6  H   UNL     1       3.219   9.092  25.682  0.00  0.00    +0.159 HD
ATOM      7  H   UNL     1       4.557   8.057  25.355  0.00  0.00    +0.159 HD
ATOM      8  H   UNL     1       5.068  12.091  25.840  0.00  0.00    +0.159 HD
ATOM      9  H   UNL     1       3.509  11.373  25.956  0.00  0.00    +0.159 HD
ENDROOT
BRANCH   1  10
ATOM     10  C   UNL     1       7.321  10.967  25.330  0.00  0.00    +0.151 C 
BRANCH  10  11
ATOM     11  C   UNL     1       8.538  10.571  26.120  0.00  0.00    -0.028 A 
ATOM     12  C   UNL     1       9.663  10.038  25.474  0.00  0.00    +0.005 A 
ATOM     13  C   UNL     1       8.574  10.731  27.514  0.00  0.00    +0.005 A 
ATOM     14  C   UNL     1      10.805   9.698  26.204  0.00  0.00    +0.000 A 
ATOM     15  C   UNL     1       9.715  10.390  28.239  0.00  0.00    +0.000 A 
ATOM     16  C   UNL     1      10.831   9.875  27.583  0.00  0.00    +0.000 A 
ENDBRANCH  10  11
ENDBRANCH   1  10
TORSDOF 2
ENDMDL
MODEL 7
REMARK VINA RESULT:    -3.968     38.453     40.816
REMARK INTER + INTRA:          -4.547
REMARK INTER:                  -4.407
REMARK INTRA:                  -0.139
REMARK UNBOUND:                -0.115
REMARK  Name = 1550473
REMARK  2 active torsions:
REMARK  status: ('A' for Active; 'I' for Inactive)
REMARK    1  A    between atoms: N_1  and  C_4
REMARK    2  A    between atoms: C_4  and  C_5
REMARK                            x       y       z     vdW  Elec       q    Type
REMARK                         _______ _______ _______ _____ _____    ______ ____
ROOT
ATOM      1  N   UNL     1     -18.156 -17.046 -20.401  0.00  0.00    -0.354 N 
ATOM      2  N   UNL     1     -16.080 -16.425 -19.584  0.00  0.00    -0.372 N 
ATOM      3  N   UNL     1     -16.869 -18.529 -19.122  0.00  0.00    -0.372 N 
ATOM      4  C   UNL     1     -17.049 -17.340 -19.706  0.00  0.00    +0.166 C 
ATOM      5  H   UNL     1     -18.245 -16.116 -20.795  0.00  0.00    +0.163 HD
ATOM      6  H   UNL     1     -15.232 -16.619 -19.069  0.00  0.00    +0.159 HD
ATOM      7  H   UNL     1     -16.151 -15.512 -20.017  0.00  0.00    +0.159 HD
ATOM      8  H   UNL     1     -17.566 -19.261 -19.172  0.00  0.00    +0.159 HD
ATOM      9  H   UNL     1     -16.033 -18.738 -18.592  0.00  0.00    +0.159 HD
ENDROOT
BRANCH   1  10
ATOM     10  C   UNL     1     -19.247 -17.989 -20.639  0.00  0.00    +0.151 C 
BRANCH  10  11
ATOM     11  C   UNL     1     -19.552 -18.026 -22.111  0.00  0.00    -0.028 A 
ATOM     12  C   UNL     1     -18.515 -18.114 -23.051  0.00  0.00    +0.005 A 
ATOM     13  C   UNL     1     -20.877 -17.980 -22.572  0.00  0.00    +0.005 A 
ATOM     14  C   UNL     1     -18.799 -18.178 -24.418  0.00  0.00    +0.000 A 
ATOM     15  C   UNL     1     -21.156 -18.043 -23.937  0.00  0.00    +0.000 A 
ATOM     16  C   UNL     1     -20.118 -18.145 -24.859  0.00  0.00    +0.000 A 
ENDBRANCH  10  11
ENDBRANCH   1  10
TORSDOF 2
ENDMDL
MODEL 8
REMARK VINA RESULT:    -3.940     12.185     13.158
REMARK INTER + INTRA:          -4.516
REMARK INTER:                  -4.376
REMARK INTRA:                  -0.140
REMARK UNBOUND:                -0.115
REMARK  Name = 1550473
REMARK  2 active torsions:
REMARK  status: ('A' for Active; 'I' for Inactive)
REMARK    1  A    between atoms: N_1  and  C_4
REMARK    2  A    between atoms: C_4  and  C_5
REMARK                            x       y       z     vdW  Elec       q    Type
REMARK                         _______ _______ _______ _____ _____    ______ ____
ROOT
ATOM      1  N   UNL     1       7.972 -17.519  -3.165  0.00  0.00    -0.354 N 
ATOM      2  N   UNL     1       9.575 -17.694  -1.502  0.00  0.00    -0.372 N 
ATOM      3  N   UNL     1       8.704 -15.628  -1.990  0.00  0.00    -0.372 N 
ATOM      4  C   UNL     1       8.740 -16.943  -2.230  0.00  0.00    +0.166 C 
ATOM      5  H   UNL     1       8.068 -18.516  -3.319  0.00  0.00    +0.163 HD
ATOM      6  H   UNL     1      10.164 -17.288  -0.788  0.00  0.00    +0.159 HD
ATOM      7  H   UNL     1       9.636 -18.697  -1.627  0.00  0.00    +0.159 HD
ATOM      8  H   UNL     1       8.099 -15.005  -2.508  0.00  0.00    +0.159 HD
ATOM      9  H   UNL     1       9.294 -15.201  -1.286  0.00  0.00    +0.159 HD
ENDROOT
BRANCH   1  10
ATOM     10  C   UNL     1       6.990 -16.799  -3.974  0.00  0.00    +0.151 C 
BRANCH  10  11
ATOM     11  C   UNL     1       5.675 -17.525  -3.911  0.00  0.00    -0.028 A 
ATOM     12  C   UNL     1       4.895 -17.687  -5.065  0.00  0.00    +0.005 A 
ATOM     13  C   UNL     1       5.205 -18.057  -2.700  0.00  0.00    +0.005 A 
ATOM     14  C   UNL     1       3.687 -18.387  -5.013  0.00  0.00    +0.000 A 
ATOM     15  C   UNL     1       3.998 -18.755  -2.652  0.00  0.00    +0.000 A 
ATOM     16  C   UNL     1       3.241 -18.922  -3.809  0.00  0.00    +0.000 A 
ENDBRANCH  10  11
ENDBRANCH   1  10
TORSDOF 2
ENDMDL
MODEL 9
REMARK VINA RESULT:    -3.898     38.119     39.656
REMARK INTER + INTRA:          -4.469
REMARK INTER:                  -4.324
REMARK INTRA:                  -0.145
REMARK UNBOUND:                -0.115
REMARK  Name = 1550473
REMARK  2 active torsions:
REMARK  status: ('A' for Active; 'I' for Inactive)
REMARK    1  A    between atoms: N_1  and  C_4
REMARK    2  A    between atoms: C_4  and  C_5
REMARK                            x       y       z     vdW  Elec       q    Type
REMARK                         _______ _______ _______ _____ _____    ______ ____
ROOT
ATOM      1  N   UNL     1     -19.043 -18.022 -22.475  0.00  0.00    -0.354 N 
ATOM      2  N   UNL     1     -20.569 -17.934 -24.216  0.00  0.00    -0.372 N 
ATOM      3  N   UNL     1     -18.358 -18.317 -24.697  0.00  0.00    -0.372 N 
ATOM      4  C   UNL     1     -19.311 -18.092 -23.786  0.00  0.00    +0.166 C 
ATOM      5  H   UNL     1     -19.805 -17.818 -21.839  0.00  0.00    +0.163 HD
ATOM      6  H   UNL     1     -20.802 -17.985 -25.198  0.00  0.00    +0.159 HD
ATOM      7  H   UNL     1     -21.336 -17.776 -23.573  0.00  0.00    +0.159 HD
ATOM      8  H   UNL     1     -17.388 -18.439 -24.438  0.00  0.00    +0.159 HD
ATOM      9  H   UNL     1     -18.570 -18.360 -25.686  0.00  0.00    +0.159 HD
ENDROOT
BRANCH   1  10
ATOM     10  C   UNL     1     -17.716 -18.232 -21.900  0.00  0.00    +0.151 C 
BRANCH  10  11
ATOM     11  C   UNL     1     -17.378 -17.070 -21.007  0.00  0.00    -0.028 A 
ATOM     12  C   UNL     1     -17.121 -17.271 -19.643  0.00  0.00    +0.005 A 
ATOM     13  C   UNL     1     -17.306 -15.766 -21.521  0.00  0.00    +0.005 A 
ATOM     14  C   UNL     1     -16.777 -16.196 -18.820  0.00  0.00    +0.000 A 
ATOM     15  C   UNL     1     -16.963 -14.695 -20.696  0.00  0.00    +0.000 A 
ATOM     16  C   UNL     1     -16.696 -14.911 -19.346  0.00  0.00    +0.000 A 
ENDBRANCH  10  11
ENDBRANCH   1  10
TORSDOF 2
ENDMDL
