MODEL 1
REMARK VINA RESULT:    -5.231      0.000      0.000
REMARK INTER + INTRA:          -5.984
REMARK INTER:                  -5.842
REMARK INTRA:                  -0.142
REMARK UNBOUND:                -0.142
REMARK  Name = 1550473
REMARK  2 active torsions:
REMARK  status: ('A' for Active; 'I' for Inactive)
REMARK    1  A    between atoms: N_1  and  C_4
REMARK    2  A    between atoms: C_4  and  C_5
REMARK                            x       y       z     vdW  Elec       q    Type
REMARK                         _______ _______ _______ _____ _____    ______ ____
ROOT
ATOM      1  N   UNL     1       9.230   7.706  25.554  0.00  0.00    -0.354 N 
ATOM      2  N   UNL     1       7.462   6.951  26.846  0.00  0.00    -0.372 N 
ATOM      3  N   UNL     1       8.905   8.497  27.736  0.00  0.00    -0.372 N 
ATOM      4  C   UNL     1       8.545   7.724  26.706  0.00  0.00    +0.166 C 
ATOM      5  H   UNL     1       8.923   7.076  24.822  0.00  0.00    +0.163 HD
ATOM      6  H   UNL     1       6.923   6.946  27.702  0.00  0.00    +0.159 HD
ATOM      7  H   UNL     1       7.131   6.356  26.096  0.00  0.00    +0.159 HD
ATOM      8  H   UNL     1       9.716   9.099  27.696  0.00  0.00    +0.159 HD
ATOM      9  H   UNL     1       8.386   8.497  28.605  0.00  0.00    +0.159 HD
ENDROOT
BRANCH   1  10
ATOM     10  C   UNL     1      10.392   8.550  25.280  0.00  0.00    +0.151 C 
BRANCH  10  11
ATOM     11  C   UNL     1       9.933   9.812  24.604  0.00  0.00    -0.028 A 
ATOM     12  C   UNL     1       8.860   9.787  23.701  0.00  0.00    +0.005 A 
ATOM     13  C   UNL     1      10.563  11.038  24.866  0.00  0.00    +0.005 A 
ATOM     14  C   UNL     1       8.414  10.964  23.095  0.00  0.00    +0.000 A 
ATOM     15  C   UNL     1      10.116  12.211  24.259  0.00  0.00    +0.000 A 
ATOM     16  C   UNL     1       9.040  12.174  23.376  0.00  0.00    +0.000 A 
ENDBRANCH  10  11
ENDBRANCH   1  10
TORSDOF 2
ENDMDL
MODEL 2
REMARK VINA RESULT:    -4.545     49.379     50.466
REMARK INTER + INTRA:          -5.219
REMARK INTER:                  -5.076
REMARK INTRA:                  -0.143
REMARK UNBOUND:                -0.142
REMARK  Name = 1550473
REMARK  2 active torsions:
REMARK  status: ('A' for Active; 'I' for Inactive)
REMARK    1  A    between atoms: N_1  and  C_4
REMARK    2  A    between atoms: C_4  and  C_5
REMARK                            x       y       z     vdW  Elec       q    Type
REMARK                         _______ _______ _______ _____ _____    ______ ____
ROOT
ATOM      1  N   UNL     1     -17.233  -4.744 -13.791  0.00  0.00    -0.354 N 
ATOM      2  N   UNL     1     -18.719  -3.146 -13.017  0.00  0.00    -0.372 N 
ATOM      3  N   UNL     1     -19.484  -5.273 -13.412  0.00  0.00    -0.372 N 
ATOM      4  C   UNL     1     -18.471  -4.400 -13.412  0.00  0.00    +0.166 C 
ATOM      5  H   UNL     1     -16.515  -4.028 -13.797  0.00  0.00    +0.163 HD
ATOM      6  H   UNL     1     -19.643  -2.858 -12.722  0.00  0.00    +0.159 HD
ATOM      7  H   UNL     1     -17.990  -2.444 -12.980  0.00  0.00    +0.159 HD
ATOM      8  H   UNL     1     -19.364  -6.233 -13.704  0.00  0.00    +0.159 HD
ATOM      9  H   UNL     1     -20.418  -5.000 -13.131  0.00  0.00    +0.159 HD
ENDROOT
BRANCH   1  10
ATOM     10  C   UNL     1     -16.845  -6.097 -14.187  0.00  0.00    +0.151 C 
BRANCH  10  11
ATOM     11  C   UNL     1     -16.222  -6.048 -15.555  0.00  0.00    -0.028 A 
ATOM     12  C   UNL     1     -15.733  -7.217 -16.156  0.00  0.00    +0.005 A 
ATOM     13  C   UNL     1     -16.124  -4.838 -16.257  0.00  0.00    +0.005 A 
ATOM     14  C   UNL     1     -15.182  -7.178 -17.439  0.00  0.00    +0.000 A 
ATOM     15  C   UNL     1     -15.572  -4.803 -17.538  0.00  0.00    +0.000 A 
ATOM     16  C   UNL     1     -15.103  -5.973 -18.129  0.00  0.00    +0.000 A 
ENDBRANCH  10  11
ENDBRANCH   1  10
TORSDOF 2
ENDMDL
MODEL 3
REMARK VINA RESULT:    -4.437     52.417     53.698
REMARK INTER + INTRA:          -5.099
REMARK INTER:                  -4.956
REMARK INTRA:                  -0.143
REMARK UNBOUND:                -0.142
REMARK  Name = 1550473
REMARK  2 active torsions:
REMARK  status: ('A' for Active; 'I' for Inactive)
REMARK    1  A    between atoms: N_1  and  C_4
REMARK    2  A    between atoms: C_4  and  C_5
REMARK                            x       y       z     vdW  Elec       q    Type
REMARK                         _______ _______ _______ _____ _____    ______ ____
ROOT
ATOM      1  N   UNL     1     -11.751  -6.419 -22.383  0.00  0.00    -0.354 N 
ATOM      2  N   UNL     1     -10.602  -4.588 -23.212  0.00  0.00    -0.372 N 
ATOM      3  N   UNL     1     -12.839  -4.796 -23.676  0.00  0.00    -0.372 N 
ATOM      4  C   UNL     1     -11.741  -5.279 -23.086  0.00  0.00    +0.166 C 
ATOM      5  H   UNL     1     -10.879  -6.747 -21.985  0.00  0.00    +0.163 HD
ATOM      6  H   UNL     1     -10.564  -3.722 -23.734  0.00  0.00    +0.159 HD
ATOM      7  H   UNL     1      -9.741  -4.894 -22.775  0.00  0.00    +0.159 HD
ATOM      8  H   UNL     1     -13.729  -5.273 -23.624  0.00  0.00    +0.159 HD
ATOM      9  H   UNL     1     -12.818  -3.938 -24.213  0.00  0.00    +0.159 HD
ENDROOT
BRANCH   1  10
ATOM     10  C   UNL     1     -12.951  -7.219 -22.140  0.00  0.00    +0.151 C 
BRANCH  10  11
ATOM     11  C   UNL     1     -13.153  -7.364 -20.657  0.00  0.00    -0.028 A 
ATOM     12  C   UNL     1     -13.308  -8.632 -20.080  0.00  0.00    +0.005 A 
ATOM     13  C   UNL     1     -13.186  -6.236 -19.823  0.00  0.00    +0.005 A 
ATOM     14  C   UNL     1     -13.466  -8.769 -18.699  0.00  0.00    +0.000 A 
ATOM     15  C   UNL     1     -13.345  -6.376 -18.444  0.00  0.00    +0.000 A 
ATOM     16  C   UNL     1     -13.483  -7.643 -17.882  0.00  0.00    +0.000 A 
ENDBRANCH  10  11
ENDBRANCH   1  10
TORSDOF 2
ENDMDL
MODEL 4
REMARK VINA RESULT:    -4.433     28.845     30.393
REMARK INTER + INTRA:          -5.094
REMARK INTER:                  -4.983
REMARK INTRA:                  -0.111
REMARK UNBOUND:                -0.142
REMARK  Name = 1550473
REMARK  2 active torsions:
REMARK  status: ('A' for Active; 'I' for Inactive)
REMARK    1  A    between atoms: N_1  and  C_4
REMARK    2  A    between atoms: C_4  and  C_5
REMARK                            x       y       z     vdW  Elec       q    Type
REMARK                         _______ _______ _______ _____ _____    ______ ____
ROOT
ATOM      1  N   UNL     1      -6.974  14.427  -2.039  0.00  0.00    -0.354 N 
ATOM      2  N   UNL     1      -7.756  12.273  -2.378  0.00  0.00    -0.372 N 
ATOM      3  N   UNL     1      -5.516  12.696  -2.644  0.00  0.00    -0.372 N 
ATOM      4  C   UNL     1      -6.741  13.146  -2.352  0.00  0.00    +0.166 C 
ATOM      5  H   UNL     1      -7.930  14.712  -1.857  0.00  0.00    +0.163 HD
ATOM      6  H   UNL     1      -7.610  11.300  -2.608  0.00  0.00    +0.159 HD
ATOM      7  H   UNL     1      -8.703  12.551  -2.151  0.00  0.00    +0.159 HD
ATOM      8  H   UNL     1      -4.709  13.304  -2.648  0.00  0.00    +0.159 HD
ATOM      9  H   UNL     1      -5.352  11.727  -2.888  0.00  0.00    +0.159 HD
ENDROOT
BRANCH   1  10
ATOM     10  C   UNL     1      -5.931  15.446  -1.930  0.00  0.00    +0.151 C 
BRANCH  10  11
ATOM     11  C   UNL     1      -5.538  15.593  -0.486  0.00  0.00    -0.028 A 
ATOM     12  C   UNL     1      -4.300  16.154  -0.139  0.00  0.00    +0.005 A 
ATOM     13  C   UNL     1      -6.401  15.180   0.540  0.00  0.00    +0.005 A 
ATOM     14  C   UNL     1      -3.947  16.319   1.202  0.00  0.00    +0.000 A 
ATOM     15  C   UNL     1      -6.045  15.346   1.878  0.00  0.00    +0.000 A 
ATOM     16  C   UNL     1      -4.818  15.918   2.209  0.00  0.00    +0.000 A 
ENDBRANCH  10  11
ENDBRANCH   1  10
TORSDOF 2
ENDMDL
MODEL 5
REMARK VINA RESULT:    -4.398     34.454     35.412
REMARK INTER + INTRA:          -5.055
REMARK INTER:                  -4.909
REMARK INTRA:                  -0.145
REMARK UNBOUND:                -0.142
REMARK  Name = 1550473
REMARK  2 active torsions:
REMARK  status: ('A' for Active; 'I' for Inactive)
REMARK    1  A    between atoms: N_1  and  C_4
REMARK    2  A    between atoms: C_4  and  C_5
REMARK                            x       y       z     vdW  Elec       q    Type
REMARK                         _______ _______ _______ _____ _____    ______ ____
ROOT
ATOM      1  N   UNL     1      10.586  -7.460  -5.990  0.00  0.00    -0.354 N 
ATOM      2  N   UNL     1       8.973  -8.324  -7.410  0.00  0.00    -0.372 N 
ATOM      3  N   UNL     1      10.991  -7.674  -8.288  0.00  0.00    -0.372 N 
ATOM      4  C   UNL     1      10.196  -7.813  -7.222  0.00  0.00    +0.166 C 
ATOM      5  H   UNL     1       9.926  -7.562  -5.228  0.00  0.00    +0.163 HD
ATOM      6  H   UNL     1       8.652  -8.602  -8.327  0.00  0.00    +0.159 HD
ATOM      7  H   UNL     1       8.332  -8.467  -6.639  0.00  0.00    +0.159 HD
ATOM      8  H   UNL     1      11.923  -7.289  -8.215  0.00  0.00    +0.159 HD
ATOM      9  H   UNL     1      10.683  -7.936  -9.216  0.00  0.00    +0.159 HD
ENDROOT
BRANCH   1  10
ATOM     10  C   UNL     1      11.916  -6.944  -5.670  0.00  0.00    +0.151 C 
BRANCH  10  11
ATOM     11  C   UNL     1      12.539  -7.815  -4.614  0.00  0.00    -0.028 A 
ATOM     12  C   UNL     1      13.869  -7.612  -4.217  0.00  0.00    +0.005 A 
ATOM     13  C   UNL     1      11.803  -8.840  -4.001  0.00  0.00    +0.005 A 
ATOM     14  C   UNL     1      14.439  -8.400  -3.215  0.00  0.00    +0.000 A 
ATOM     15  C   UNL     1      12.376  -9.626  -3.001  0.00  0.00    +0.000 A 
ATOM     16  C   UNL     1      13.693  -9.404  -2.607  0.00  0.00    +0.000 A 
ENDBRANCH  10  11
ENDBRANCH   1  10
TORSDOF 2
ENDMDL
MODEL 6
REMARK VINA RESULT:    -4.385     35.235     36.255
REMARK INTER + INTRA:          -5.040
REMARK INTER:                  -4.889
REMARK INTRA:                  -0.152
REMARK UNBOUND:                -0.142
REMARK  Name = 1550473
REMARK  2 active torsions:
REMARK  status: ('A' for Active; 'I' for Inactive)
REMARK    1  A    between atoms: N_1  and  C_4
REMARK    2  A    between atoms: C_4  and  C_5
REMARK                            x       y       z     vdW  Elec       q    Type
REMARK                         _______ _______ _______ _____ _____    ______ ____
ROOT
ATOM      1  N   UNL     1      10.578  -6.881  -8.024  0.00  0.00    -0.354 N 
ATOM      2  N   UNL     1      10.632  -7.708 -10.187  0.00  0.00    -0.372 N 
ATOM      3  N   UNL     1      11.526  -5.636  -9.769  0.00  0.00    -0.372 N 
ATOM      4  C   UNL     1      10.913  -6.733  -9.313  0.00  0.00    +0.166 C 
ATOM      5  H   UNL     1      10.088  -7.723  -7.747  0.00  0.00    +0.163 HD
ATOM      6  H   UNL     1      10.876  -7.626 -11.165  0.00  0.00    +0.159 HD
ATOM      7  H   UNL     1      10.183  -8.569  -9.899  0.00  0.00    +0.159 HD
ATOM      8  H   UNL     1      11.760  -4.862  -9.162  0.00  0.00    +0.159 HD
ATOM      9  H   UNL     1      11.767  -5.531 -10.747  0.00  0.00    +0.159 HD
ENDROOT
BRANCH   1  10
ATOM     10  C   UNL     1      10.887  -5.903  -6.983  0.00  0.00    +0.151 C 
BRANCH  10  11
ATOM     11  C   UNL     1      11.891  -6.497  -6.033  0.00  0.00    -0.028 A 
ATOM     12  C   UNL     1      11.629  -7.716  -5.391  0.00  0.00    +0.005 A 
ATOM     13  C   UNL     1      13.108  -5.848  -5.776  0.00  0.00    +0.005 A 
ATOM     14  C   UNL     1      12.573  -8.283  -4.532  0.00  0.00    +0.000 A 
ATOM     15  C   UNL     1      14.049  -6.417  -4.917  0.00  0.00    +0.000 A 
ATOM     16  C   UNL     1      13.782  -7.635  -4.297  0.00  0.00    +0.000 A 
ENDBRANCH  10  11
ENDBRANCH   1  10
TORSDOF 2
ENDMDL
MODEL 7
REMARK VINA RESULT:    -4.377     27.808     28.625
REMARK INTER + INTRA:          -5.031
REMARK INTER:                  -4.926
REMARK INTRA:                  -0.105
REMARK UNBOUND:                -0.142
REMARK  Name = 1550473
REMARK  2 active torsions:
REMARK  status: ('A' for Active; 'I' for Inactive)
REMARK    1  A    between atoms: N_1  and  C_4
REMARK    2  A    between atoms: C_4  and  C_5
REMARK                            x       y       z     vdW  Elec       q    Type
REMARK                         _______ _______ _______ _____ _____    ______ ____
ROOT
ATOM      1  N   UNL     1      -8.360 -11.318  15.501  0.00  0.00    -0.354 N 
ATOM      2  N   UNL     1      -7.764 -12.771  17.204  0.00  0.00    -0.372 N 
ATOM      3  N   UNL     1      -7.704 -13.519  15.036  0.00  0.00    -0.372 N 
ATOM      4  C   UNL     1      -7.946 -12.528  15.900  0.00  0.00    +0.166 C 
ATOM      5  H   UNL     1      -8.555 -10.619  16.208  0.00  0.00    +0.163 HD
ATOM      6  H   UNL     1      -7.449 -13.673  17.535  0.00  0.00    +0.159 HD
ATOM      7  H   UNL     1      -7.916 -12.056  17.905  0.00  0.00    +0.159 HD
ATOM      8  H   UNL     1      -7.828 -13.403  14.039  0.00  0.00    +0.159 HD
ATOM      9  H   UNL     1      -7.400 -14.433  15.348  0.00  0.00    +0.159 HD
ENDROOT
BRANCH   1  10
ATOM     10  C   UNL     1      -8.537 -10.935  14.102  0.00  0.00    +0.151 C 
BRANCH  10  11
ATOM     11  C   UNL     1      -8.947  -9.490  14.036  0.00  0.00    -0.028 A 
ATOM     12  C   UNL     1      -8.294  -8.603  13.167  0.00  0.00    +0.005 A 
ATOM     13  C   UNL     1      -9.992  -9.002  14.836  0.00  0.00    +0.005 A 
ATOM     14  C   UNL     1      -8.694  -7.267  13.084  0.00  0.00    +0.000 A 
ATOM     15  C   UNL     1     -10.387  -7.667  14.750  0.00  0.00    +0.000 A 
ATOM     16  C   UNL     1      -9.740  -6.801  13.873  0.00  0.00    +0.000 A 
ENDBRANCH  10  11
ENDBRANCH   1  10
TORSDOF 2
ENDMDL
MODEL 8
REMARK VINA RESULT:    -4.348     20.285     22.033
REMARK INTER + INTRA:          -4.999
REMARK INTER:                  -4.936
REMARK INTRA:                  -0.063
REMARK UNBOUND:                -0.142
REMARK  Name = 1550473
REMARK  2 active torsions:
REMARK  status: ('A' for Active; 'I' for Inactive)
REMARK    1  A    between atoms: N_1  and  C_4
REMARK    2  A    between atoms: C_4  and  C_5
REMARK                            x       y       z     vdW  Elec       q    Type
REMARK                         _______ _______ _______ _____ _____    ______ ____
ROOT
ATOM      1  N   UNL     1      -8.865   1.586  23.096  0.00  0.00    -0.354 N 
ATOM      2  N   UNL     1      -8.787   3.029  21.286  0.00  0.00    -0.372 N 
ATOM      3  N   UNL     1      -9.039   0.781  20.902  0.00  0.00    -0.372 N 
ATOM      4  C   UNL     1      -8.898   1.787  21.772  0.00  0.00    +0.166 C 
ATOM      5  H   UNL     1      -8.725   2.388  23.701  0.00  0.00    +0.163 HD
ATOM      6  H   UNL     1      -8.812   3.211  20.291  0.00  0.00    +0.159 HD
ATOM      7  H   UNL     1      -8.694   3.833  21.894  0.00  0.00    +0.159 HD
ATOM      8  H   UNL     1      -9.121  -0.181  21.205  0.00  0.00    +0.159 HD
ATOM      9  H   UNL     1      -9.054   0.942  19.903  0.00  0.00    +0.159 HD
ENDROOT
BRANCH   1  10
ATOM     10  C   UNL     1      -9.031   0.280  23.730  0.00  0.00    +0.151 C 
BRANCH  10  11
ATOM     11  C   UNL     1     -10.385   0.217  24.381  0.00  0.00    -0.028 A 
ATOM     12  C   UNL     1     -11.355   1.190  24.100  0.00  0.00    +0.005 A 
ATOM     13  C   UNL     1     -10.706  -0.815  25.275  0.00  0.00    +0.005 A 
ATOM     14  C   UNL     1     -12.623   1.116  24.681  0.00  0.00    +0.000 A 
ATOM     15  C   UNL     1     -11.973  -0.885  25.854  0.00  0.00    +0.000 A 
ATOM     16  C   UNL     1     -12.932   0.079  25.555  0.00  0.00    +0.000 A 
ENDBRANCH  10  11
ENDBRANCH   1  10
TORSDOF 2
ENDMDL
MODEL 9
REMARK VINA RESULT:    -4.254     38.432     39.437
REMARK INTER + INTRA:          -4.893
REMARK INTER:                  -4.757
REMARK INTRA:                  -0.137
REMARK UNBOUND:                -0.142
REMARK  Name = 1550473
REMARK  2 active torsions:
REMARK  status: ('A' for Active; 'I' for Inactive)
REMARK    1  A    between atoms: N_1  and  C_4
REMARK    2  A    between atoms: C_4  and  C_5
REMARK                            x       y       z     vdW  Elec       q    Type
REMARK                         _______ _______ _______ _____ _____    ______ ____
ROOT
ATOM      1  N   UNL     1       8.744 -13.954  -7.482  0.00  0.00    -0.354 N 
ATOM      2  N   UNL     1       9.197 -14.843  -9.572  0.00  0.00    -0.372 N 
ATOM      3  N   UNL     1      10.181 -15.789  -7.727  0.00  0.00    -0.372 N 
ATOM      4  C   UNL     1       9.373 -14.858  -8.245  0.00  0.00    +0.166 C 
ATOM      5  H   UNL     1       8.169 -13.255  -7.938  0.00  0.00    +0.163 HD
ATOM      6  H   UNL     1       9.656 -15.515 -10.173  0.00  0.00    +0.159 HD
ATOM      7  H   UNL     1       8.586 -14.172 -10.021  0.00  0.00    +0.159 HD
ATOM      8  H   UNL     1      10.360 -15.850  -6.734  0.00  0.00    +0.159 HD
ATOM      9  H   UNL     1      10.658 -16.462  -8.313  0.00  0.00    +0.159 HD
ENDROOT
BRANCH   1  10
ATOM     10  C   UNL     1       8.825 -13.918  -6.023  0.00  0.00    +0.151 C 
BRANCH  10  11
ATOM     11  C   UNL     1       7.453 -13.663  -5.461  0.00  0.00    -0.028 A 
ATOM     12  C   UNL     1       6.313 -14.148  -6.118  0.00  0.00    +0.005 A 
ATOM     13  C   UNL     1       7.288 -12.943  -4.268  0.00  0.00    +0.005 A 
ATOM     14  C   UNL     1       5.041 -13.938  -5.581  0.00  0.00    +0.000 A 
ATOM     15  C   UNL     1       6.016 -12.735  -3.735  0.00  0.00    +0.000 A 
ATOM     16  C   UNL     1       4.893 -13.234  -4.390  0.00  0.00    +0.000 A 
ENDBRANCH  10  11
ENDBRANCH   1  10
TORSDOF 2
ENDMDL
