MODEL 1
REMARK VINA RESULT:    -5.125      0.000      0.000
REMARK INTER + INTRA:          -5.862
REMARK INTER:                  -5.724
REMARK INTRA:                  -0.138
REMARK UNBOUND:                -0.138
REMARK  Name = 1550473
REMARK  2 active torsions:
REMARK  status: ('A' for Active; 'I' for Inactive)
REMARK    1  A    between atoms: N_1  and  C_4
REMARK    2  A    between atoms: C_4  and  C_5
REMARK                            x       y       z     vdW  Elec       q    Type
REMARK                         _______ _______ _______ _____ _____    ______ ____
ROOT
ATOM      1  N   UNL     1       5.844   5.816  21.333  0.00  0.00    -0.354 N 
ATOM      2  N   UNL     1       7.239   5.786  19.484  0.00  0.00    -0.372 N 
ATOM      3  N   UNL     1       7.608   4.280  21.176  0.00  0.00    -0.372 N 
ATOM      4  C   UNL     1       6.889   5.292  20.678  0.00  0.00    +0.166 C 
ATOM      5  H   UNL     1       5.359   6.601  20.915  0.00  0.00    +0.163 HD
ATOM      6  H   UNL     1       8.021   5.409  18.965  0.00  0.00    +0.159 HD
ATOM      7  H   UNL     1       6.725   6.541  19.048  0.00  0.00    +0.159 HD
ATOM      8  H   UNL     1       7.399   3.867  22.075  0.00  0.00    +0.159 HD
ATOM      9  H   UNL     1       8.401   3.897  20.677  0.00  0.00    +0.159 HD
ENDROOT
BRANCH   1  10
ATOM     10  C   UNL     1       5.348   5.316  22.614  0.00  0.00    +0.151 C 
BRANCH  10  11
ATOM     11  C   UNL     1       4.975   6.483  23.485  0.00  0.00    -0.028 A 
ATOM     12  C   UNL     1       5.206   7.797  23.053  0.00  0.00    +0.005 A 
ATOM     13  C   UNL     1       4.386   6.282  24.743  0.00  0.00    +0.005 A 
ATOM     14  C   UNL     1       4.833   8.882  23.849  0.00  0.00    +0.000 A 
ATOM     15  C   UNL     1       4.016   7.368  25.536  0.00  0.00    +0.000 A 
ATOM     16  C   UNL     1       4.237   8.668  25.088  0.00  0.00    +0.000 A 
ENDBRANCH  10  11
ENDBRANCH   1  10
TORSDOF 2
ENDMDL
MODEL 2
REMARK VINA RESULT:    -4.819     21.214     22.415
REMARK INTER + INTRA:          -5.521
REMARK INTER:                  -5.380
REMARK INTRA:                  -0.141
REMARK UNBOUND:                -0.138
REMARK  Name = 1550473
REMARK  2 active torsions:
REMARK  status: ('A' for Active; 'I' for Inactive)
REMARK    1  A    between atoms: N_1  and  C_4
REMARK    2  A    between atoms: C_4  and  C_5
REMARK                            x       y       z     vdW  Elec       q    Type
REMARK                         _______ _______ _______ _____ _____    ______ ____
ROOT
ATOM      1  N   UNL     1      20.440  11.817   7.510  0.00  0.00    -0.354 N 
ATOM      2  N   UNL     1      19.690   9.626   7.472  0.00  0.00    -0.372 N 
ATOM      3  N   UNL     1      20.483  10.560   5.532  0.00  0.00    -0.372 N 
ATOM      4  C   UNL     1      20.210  10.683   6.835  0.00  0.00    +0.166 C 
ATOM      5  H   UNL     1      20.183  11.856   8.489  0.00  0.00    +0.163 HD
ATOM      6  H   UNL     1      19.508   8.756   6.991  0.00  0.00    +0.159 HD
ATOM      7  H   UNL     1      19.477   9.653   8.462  0.00  0.00    +0.159 HD
ATOM      8  H   UNL     1      20.871  11.323   4.992  0.00  0.00    +0.159 HD
ATOM      9  H   UNL     1      20.297   9.701   5.030  0.00  0.00    +0.159 HD
ENDROOT
BRANCH   1  10
ATOM     10  C   UNL     1      21.053  13.007   6.922  0.00  0.00    +0.151 C 
BRANCH  10  11
ATOM     11  C   UNL     1      20.155  14.190   7.159  0.00  0.00    -0.028 A 
ATOM     12  C   UNL     1      20.163  15.279   6.274  0.00  0.00    +0.005 A 
ATOM     13  C   UNL     1      19.289  14.226   8.263  0.00  0.00    +0.005 A 
ATOM     14  C   UNL     1      19.308  16.364   6.477  0.00  0.00    +0.000 A 
ATOM     15  C   UNL     1      18.437  15.312   8.462  0.00  0.00    +0.000 A 
ATOM     16  C   UNL     1      18.445  16.380   7.568  0.00  0.00    +0.000 A 
ENDBRANCH  10  11
ENDBRANCH   1  10
TORSDOF 2
ENDMDL
MODEL 3
REMARK VINA RESULT:    -4.713      1.910      2.218
REMARK INTER + INTRA:          -5.402
REMARK INTER:                  -5.242
REMARK INTRA:                  -0.160
REMARK UNBOUND:                -0.138
REMARK  Name = 1550473
REMARK  2 active torsions:
REMARK  status: ('A' for Active; 'I' for Inactive)
REMARK    1  A    between atoms: N_1  and  C_4
REMARK    2  A    between atoms: C_4  and  C_5
REMARK                            x       y       z     vdW  Elec       q    Type
REMARK                         _______ _______ _______ _____ _____    ______ ____
ROOT
ATOM      1  N   UNL     1       6.240   6.261  21.377  0.00  0.00    -0.354 N 
ATOM      2  N   UNL     1       7.152   5.642  19.340  0.00  0.00    -0.372 N 
ATOM      3  N   UNL     1       7.530   4.316  21.174  0.00  0.00    -0.372 N 
ATOM      4  C   UNL     1       6.969   5.408  20.646  0.00  0.00    +0.166 C 
ATOM      5  H   UNL     1       5.867   7.087  20.924  0.00  0.00    +0.163 HD
ATOM      6  H   UNL     1       7.694   5.015  18.762  0.00  0.00    +0.159 HD
ATOM      7  H   UNL     1       6.739   6.444  18.880  0.00  0.00    +0.159 HD
ATOM      8  H   UNL     1       7.435   4.085  22.154  0.00  0.00    +0.159 HD
ATOM      9  H   UNL     1       8.086   3.682  20.614  0.00  0.00    +0.159 HD
ENDROOT
BRANCH   1  10
ATOM     10  C   UNL     1       5.936   6.070  22.794  0.00  0.00    +0.151 C 
BRANCH  10  11
ATOM     11  C   UNL     1       6.556   7.189  23.585  0.00  0.00    -0.028 A 
ATOM     12  C   UNL     1       7.950   7.295  23.697  0.00  0.00    +0.005 A 
ATOM     13  C   UNL     1       5.754   8.150  24.220  0.00  0.00    +0.005 A 
ATOM     14  C   UNL     1       8.526   8.351  24.406  0.00  0.00    +0.000 A 
ATOM     15  C   UNL     1       6.334   9.203  24.928  0.00  0.00    +0.000 A 
ATOM     16  C   UNL     1       7.720   9.305  25.019  0.00  0.00    +0.000 A 
ENDBRANCH  10  11
ENDBRANCH   1  10
TORSDOF 2
ENDMDL
MODEL 4
REMARK VINA RESULT:    -4.651      1.507      2.620
REMARK INTER + INTRA:          -5.333
REMARK INTER:                  -5.169
REMARK INTRA:                  -0.164
REMARK UNBOUND:                -0.138
REMARK  Name = 1550473
REMARK  2 active torsions:
REMARK  status: ('A' for Active; 'I' for Inactive)
REMARK    1  A    between atoms: N_1  and  C_4
REMARK    2  A    between atoms: C_4  and  C_5
REMARK                            x       y       z     vdW  Elec       q    Type
REMARK                         _______ _______ _______ _____ _____    ______ ____
ROOT
ATOM      1  N   UNL     1       7.672   6.347  20.475  0.00  0.00    -0.354 N 
ATOM      2  N   UNL     1       7.383   5.325  18.416  0.00  0.00    -0.372 N 
ATOM      3  N   UNL     1       6.179   7.220  18.893  0.00  0.00    -0.372 N 
ATOM      4  C   UNL     1       7.078   6.306  19.275  0.00  0.00    +0.166 C 
ATOM      5  H   UNL     1       8.323   5.607  20.715  0.00  0.00    +0.163 HD
ATOM      6  H   UNL     1       6.954   5.270  17.502  0.00  0.00    +0.159 HD
ATOM      7  H   UNL     1       8.068   4.614  18.641  0.00  0.00    +0.159 HD
ATOM      8  H   UNL     1       5.901   7.982  19.497  0.00  0.00    +0.159 HD
ATOM      9  H   UNL     1       5.730   7.175  17.987  0.00  0.00    +0.159 HD
ENDROOT
BRANCH   1  10
ATOM     10  C   UNL     1       7.451   7.402  21.461  0.00  0.00    +0.151 C 
BRANCH  10  11
ATOM     11  C   UNL     1       6.421   6.938  22.454  0.00  0.00    -0.028 A 
ATOM     12  C   UNL     1       6.448   5.625  22.946  0.00  0.00    +0.005 A 
ATOM     13  C   UNL     1       5.420   7.808  22.911  0.00  0.00    +0.005 A 
ATOM     14  C   UNL     1       5.510   5.202  23.891  0.00  0.00    +0.000 A 
ATOM     15  C   UNL     1       4.485   7.382  23.854  0.00  0.00    +0.000 A 
ATOM     16  C   UNL     1       4.531   6.080  24.346  0.00  0.00    +0.000 A 
ENDBRANCH  10  11
ENDBRANCH   1  10
TORSDOF 2
ENDMDL
MODEL 5
REMARK VINA RESULT:    -4.591      3.579      4.332
REMARK INTER + INTRA:          -5.266
REMARK INTER:                  -5.092
REMARK INTRA:                  -0.175
REMARK UNBOUND:                -0.138
REMARK  Name = 1550473
REMARK  2 active torsions:
REMARK  status: ('A' for Active; 'I' for Inactive)
REMARK    1  A    between atoms: N_1  and  C_4
REMARK    2  A    between atoms: C_4  and  C_5
REMARK                            x       y       z     vdW  Elec       q    Type
REMARK                         _______ _______ _______ _____ _____    ______ ____
ROOT
ATOM      1  N   UNL     1       7.016   6.362  21.862  0.00  0.00    -0.354 N 
ATOM      2  N   UNL     1       5.457   4.650  21.880  0.00  0.00    -0.372 N 
ATOM      3  N   UNL     1       7.581   4.207  21.135  0.00  0.00    -0.372 N 
ATOM      4  C   UNL     1       6.697   5.083  21.624  0.00  0.00    +0.166 C 
ATOM      5  H   UNL     1       6.292   6.983  22.205  0.00  0.00    +0.163 HD
ATOM      6  H   UNL     1       5.188   3.689  21.715  0.00  0.00    +0.159 HD
ATOM      7  H   UNL     1       4.748   5.261  22.266  0.00  0.00    +0.159 HD
ATOM      8  H   UNL     1       8.532   4.472  20.915  0.00  0.00    +0.159 HD
ATOM      9  H   UNL     1       7.328   3.244  20.951  0.00  0.00    +0.159 HD
ENDROOT
BRANCH   1  10
ATOM     10  C   UNL     1       8.353   6.921  21.668  0.00  0.00    +0.151 C 
BRANCH  10  11
ATOM     11  C   UNL     1       9.051   6.998  22.997  0.00  0.00    -0.028 A 
ATOM     12  C   UNL     1       9.854   5.938  23.442  0.00  0.00    +0.005 A 
ATOM     13  C   UNL     1       8.917   8.131  23.815  0.00  0.00    +0.005 A 
ATOM     14  C   UNL     1      10.527   6.021  24.664  0.00  0.00    +0.000 A 
ATOM     15  C   UNL     1       9.590   8.210  25.034  0.00  0.00    +0.000 A 
ATOM     16  C   UNL     1      10.396   7.156  25.457  0.00  0.00    +0.000 A 
ENDBRANCH  10  11
ENDBRANCH   1  10
TORSDOF 2
ENDMDL
MODEL 6
REMARK VINA RESULT:    -4.410     21.989     23.259
REMARK INTER + INTRA:          -5.063
REMARK INTER:                  -4.957
REMARK INTRA:                  -0.107
REMARK UNBOUND:                -0.138
REMARK  Name = 1550473
REMARK  2 active torsions:
REMARK  status: ('A' for Active; 'I' for Inactive)
REMARK    1  A    between atoms: N_1  and  C_4
REMARK    2  A    between atoms: C_4  and  C_5
REMARK                            x       y       z     vdW  Elec       q    Type
REMARK                         _______ _______ _______ _____ _____    ______ ____
ROOT
ATOM      1  N   UNL     1      -2.256  -4.368   3.248  0.00  0.00    -0.354 N 
ATOM      2  N   UNL     1      -4.278  -5.091   4.116  0.00  0.00    -0.372 N 
ATOM      3  N   UNL     1      -3.969  -2.848   3.744  0.00  0.00    -0.372 N 
ATOM      4  C   UNL     1      -3.488  -4.095   3.697  0.00  0.00    +0.166 C 
ATOM      5  H   UNL     1      -1.939  -5.330   3.266  0.00  0.00    +0.163 HD
ATOM      6  H   UNL     1      -5.213  -4.916   4.457  0.00  0.00    +0.159 HD
ATOM      7  H   UNL     1      -3.975  -6.057   4.090  0.00  0.00    +0.159 HD
ATOM      8  H   UNL     1      -3.422  -2.051   3.448  0.00  0.00    +0.159 HD
ATOM      9  H   UNL     1      -4.899  -2.651   4.093  0.00  0.00    +0.159 HD
ENDROOT
BRANCH   1  10
ATOM     10  C   UNL     1      -1.337  -3.361   2.719  0.00  0.00    +0.151 C 
BRANCH  10  11
ATOM     11  C   UNL     1       0.063  -3.696   3.156  0.00  0.00    -0.028 A 
ATOM     12  C   UNL     1       0.660  -4.904   2.768  0.00  0.00    +0.005 A 
ATOM     13  C   UNL     1       0.798  -2.806   3.954  0.00  0.00    +0.005 A 
ATOM     14  C   UNL     1       1.971  -5.202   3.149  0.00  0.00    +0.000 A 
ATOM     15  C   UNL     1       2.106  -3.108   4.333  0.00  0.00    +0.000 A 
ATOM     16  C   UNL     1       2.693  -4.304   3.929  0.00  0.00    +0.000 A 
ENDBRANCH  10  11
ENDBRANCH   1  10
TORSDOF 2
ENDMDL
MODEL 7
REMARK VINA RESULT:    -4.360     13.389     14.135
REMARK INTER + INTRA:          -5.008
REMARK INTER:                  -4.899
REMARK INTRA:                  -0.108
REMARK UNBOUND:                -0.138
REMARK  Name = 1550473
REMARK  2 active torsions:
REMARK  status: ('A' for Active; 'I' for Inactive)
REMARK    1  A    between atoms: N_1  and  C_4
REMARK    2  A    between atoms: C_4  and  C_5
REMARK                            x       y       z     vdW  Elec       q    Type
REMARK                         _______ _______ _______ _____ _____    ______ ____
ROOT
ATOM      1  N   UNL     1      -5.428  -3.934  22.385  0.00  0.00    -0.354 N 
ATOM      2  N   UNL     1      -5.723  -4.507  20.161  0.00  0.00    -0.372 N 
ATOM      3  N   UNL     1      -3.932  -5.377  21.302  0.00  0.00    -0.372 N 
ATOM      4  C   UNL     1      -5.023  -4.603  21.298  0.00  0.00    +0.166 C 
ATOM      5  H   UNL     1      -6.246  -3.341  22.308  0.00  0.00    +0.163 HD
ATOM      6  H   UNL     1      -5.444  -5.004  19.325  0.00  0.00    +0.159 HD
ATOM      7  H   UNL     1      -6.566  -3.950  20.100  0.00  0.00    +0.159 HD
ATOM      8  H   UNL     1      -3.357  -5.487  22.126  0.00  0.00    +0.159 HD
ATOM      9  H   UNL     1      -3.630  -5.872  20.472  0.00  0.00    +0.159 HD
ENDROOT
BRANCH   1  10
ATOM     10  C   UNL     1      -4.767  -4.013  23.687  0.00  0.00    +0.151 C 
BRANCH  10  11
ATOM     11  C   UNL     1      -4.856  -2.673  24.365  0.00  0.00    -0.028 A 
ATOM     12  C   UNL     1      -3.697  -2.029  24.822  0.00  0.00    +0.005 A 
ATOM     13  C   UNL     1      -6.095  -2.041  24.548  0.00  0.00    +0.005 A 
ATOM     14  C   UNL     1      -3.776  -0.771  25.425  0.00  0.00    +0.000 A 
ATOM     15  C   UNL     1      -6.169  -0.786  25.152  0.00  0.00    +0.000 A 
ATOM     16  C   UNL     1      -5.009  -0.150  25.587  0.00  0.00    +0.000 A 
ENDBRANCH  10  11
ENDBRANCH   1  10
TORSDOF 2
ENDMDL
MODEL 8
REMARK VINA RESULT:    -4.327     19.413     20.506
REMARK INTER + INTRA:          -4.971
REMARK INTER:                  -4.879
REMARK INTRA:                  -0.092
REMARK UNBOUND:                -0.138
REMARK  Name = 1550473
REMARK  2 active torsions:
REMARK  status: ('A' for Active; 'I' for Inactive)
REMARK    1  A    between atoms: N_1  and  C_4
REMARK    2  A    between atoms: C_4  and  C_5
REMARK                            x       y       z     vdW  Elec       q    Type
REMARK                         _______ _______ _______ _____ _____    ______ ____
ROOT
ATOM      1  N   UNL     1      -1.374  17.312   8.339  0.00  0.00    -0.354 N 
ATOM      2  N   UNL     1      -2.964  16.003   9.398  0.00  0.00    -0.372 N 
ATOM      3  N   UNL     1      -2.516  18.094  10.230  0.00  0.00    -0.372 N 
ATOM      4  C   UNL     1      -2.274  17.147   9.317  0.00  0.00    +0.166 C 
ATOM      5  H   UNL     1      -1.215  16.544   7.697  0.00  0.00    +0.163 HD
ATOM      6  H   UNL     1      -3.653  15.852  10.123  0.00  0.00    +0.159 HD
ATOM      7  H   UNL     1      -2.837  15.256   8.727  0.00  0.00    +0.159 HD
ATOM      8  H   UNL     1      -2.024  18.978  10.228  0.00  0.00    +0.159 HD
ATOM      9  H   UNL     1      -3.192  17.957  10.971  0.00  0.00    +0.159 HD
ENDROOT
BRANCH   1  10
ATOM     10  C   UNL     1      -0.608  18.540   8.131  0.00  0.00    +0.151 C 
BRANCH  10  11
ATOM     11  C   UNL     1       0.380  18.319   7.019  0.00  0.00    -0.028 A 
ATOM     12  C   UNL     1      -0.038  18.337   5.680  0.00  0.00    +0.005 A 
ATOM     13  C   UNL     1       1.738  18.098   7.298  0.00  0.00    +0.005 A 
ATOM     14  C   UNL     1       0.885  18.162   4.646  0.00  0.00    +0.000 A 
ATOM     15  C   UNL     1       2.656  17.923   6.262  0.00  0.00    +0.000 A 
ATOM     16  C   UNL     1       2.230  17.958   4.937  0.00  0.00    +0.000 A 
ENDBRANCH  10  11
ENDBRANCH   1  10
TORSDOF 2
ENDMDL
MODEL 9
REMARK VINA RESULT:    -4.303     20.926     22.224
REMARK INTER + INTRA:          -4.944
REMARK INTER:                  -4.842
REMARK INTRA:                  -0.102
REMARK UNBOUND:                -0.138
REMARK  Name = 1550473
REMARK  2 active torsions:
REMARK  status: ('A' for Active; 'I' for Inactive)
REMARK    1  A    between atoms: N_1  and  C_4
REMARK    2  A    between atoms: C_4  and  C_5
REMARK                            x       y       z     vdW  Elec       q    Type
REMARK                         _______ _______ _______ _____ _____    ______ ____
ROOT
ATOM      1  N   UNL     1      16.841  21.039  10.102  0.00  0.00    -0.354 N 
ATOM      2  N   UNL     1      16.775  22.465  11.926  0.00  0.00    -0.372 N 
ATOM      3  N   UNL     1      15.129  22.623  10.335  0.00  0.00    -0.372 N 
ATOM      4  C   UNL     1      16.247  22.034  10.774  0.00  0.00    +0.166 C 
ATOM      5  H   UNL     1      17.703  20.655  10.473  0.00  0.00    +0.163 HD
ATOM      6  H   UNL     1      16.347  23.211  12.457  0.00  0.00    +0.159 HD
ATOM      7  H   UNL     1      17.611  22.048  12.318  0.00  0.00    +0.159 HD
ATOM      8  H   UNL     1      14.684  22.348   9.470  0.00  0.00    +0.159 HD
ATOM      9  H   UNL     1      14.692  23.379  10.847  0.00  0.00    +0.159 HD
ENDROOT
BRANCH   1  10
ATOM     10  C   UNL     1      16.317  20.460   8.866  0.00  0.00    +0.151 C 
BRANCH  10  11
ATOM     11  C   UNL     1      16.702  19.008   8.802  0.00  0.00    -0.028 A 
ATOM     12  C   UNL     1      17.899  18.615   8.184  0.00  0.00    +0.005 A 
ATOM     13  C   UNL     1      15.878  18.020   9.363  0.00  0.00    +0.005 A 
ATOM     14  C   UNL     1      18.271  17.269   8.150  0.00  0.00    +0.000 A 
ATOM     15  C   UNL     1      16.254  16.677   9.326  0.00  0.00    +0.000 A 
ATOM     16  C   UNL     1      17.451  16.303   8.723  0.00  0.00    +0.000 A 
ENDBRANCH  10  11
ENDBRANCH   1  10
TORSDOF 2
ENDMDL
