MODEL 1
REMARK VINA RESULT:    -4.357      0.000      0.000
REMARK INTER + INTRA:          -5.008
REMARK INTER:                  -4.866
REMARK INTRA:                  -0.142
REMARK UNBOUND:                -0.142
REMARK  Name = 1550473
REMARK  2 active torsions:
REMARK  status: ('A' for Active; 'I' for Inactive)
REMARK    1  A    between atoms: N_1  and  C_4
REMARK    2  A    between atoms: C_4  and  C_5
REMARK                            x       y       z     vdW  Elec       q    Type
REMARK                         _______ _______ _______ _____ _____    ______ ____
ROOT
ATOM      1  N   UNL     1       2.507  -5.792  11.077  0.00  0.00    -0.354 N 
ATOM      2  N   UNL     1       1.049  -7.506  10.526  0.00  0.00    -0.372 N 
ATOM      3  N   UNL     1       2.398  -6.628   8.890  0.00  0.00    -0.372 N 
ATOM      4  C   UNL     1       1.995  -6.630  10.165  0.00  0.00    +0.166 C 
ATOM      5  H   UNL     1       2.138  -5.823  12.020  0.00  0.00    +0.163 HD
ATOM      6  H   UNL     1       0.647  -8.152   9.861  0.00  0.00    +0.159 HD
ATOM      7  H   UNL     1       0.715  -7.566  11.480  0.00  0.00    +0.159 HD
ATOM      8  H   UNL     1       3.105  -5.988   8.553  0.00  0.00    +0.159 HD
ATOM      9  H   UNL     1       1.999  -7.260   8.207  0.00  0.00    +0.159 HD
ENDROOT
BRANCH   1  10
ATOM     10  C   UNL     1       3.579  -4.838  10.800  0.00  0.00    +0.151 C 
BRANCH  10  11
ATOM     11  C   UNL     1       3.170  -3.480  11.301  0.00  0.00    -0.028 A 
ATOM     12  C   UNL     1       3.898  -2.338  10.938  0.00  0.00    +0.005 A 
ATOM     13  C   UNL     1       2.052  -3.329  12.136  0.00  0.00    +0.005 A 
ATOM     14  C   UNL     1       3.500  -1.073  11.379  0.00  0.00    +0.000 A 
ATOM     15  C   UNL     1       1.659  -2.065  12.575  0.00  0.00    +0.000 A 
ATOM     16  C   UNL     1       2.382  -0.937  12.195  0.00  0.00    +0.000 A 
ENDBRANCH  10  11
ENDBRANCH   1  10
TORSDOF 2
ENDMDL
MODEL 2
REMARK VINA RESULT:    -3.961     24.357     25.064
REMARK INTER + INTRA:          -4.566
REMARK INTER:                  -4.457
REMARK INTRA:                  -0.109
REMARK UNBOUND:                -0.142
REMARK  Name = 1550473
REMARK  2 active torsions:
REMARK  status: ('A' for Active; 'I' for Inactive)
REMARK    1  A    between atoms: N_1  and  C_4
REMARK    2  A    between atoms: C_4  and  C_5
REMARK                            x       y       z     vdW  Elec       q    Type
REMARK                         _______ _______ _______ _____ _____    ______ ____
ROOT
ATOM      1  N   UNL     1     -17.118   2.289  -4.120  0.00  0.00    -0.354 N 
ATOM      2  N   UNL     1     -17.200   3.544  -6.065  0.00  0.00    -0.372 N 
ATOM      3  N   UNL     1     -18.578   4.111  -4.320  0.00  0.00    -0.372 N 
ATOM      4  C   UNL     1     -17.634   3.308  -4.821  0.00  0.00    +0.166 C 
ATOM      5  H   UNL     1     -16.427   1.698  -4.567  0.00  0.00    +0.163 HD
ATOM      6  H   UNL     1     -17.568   4.307  -6.617  0.00  0.00    +0.159 HD
ATOM      7  H   UNL     1     -16.476   2.979  -6.493  0.00  0.00    +0.159 HD
ATOM      8  H   UNL     1     -18.952   3.983  -3.390  0.00  0.00    +0.159 HD
ATOM      9  H   UNL     1     -18.967   4.874  -4.861  0.00  0.00    +0.159 HD
ENDROOT
BRANCH   1  10
ATOM     10  C   UNL     1     -17.483   1.980  -2.739  0.00  0.00    +0.151 C 
BRANCH  10  11
ATOM     11  C   UNL     1     -16.880   0.656  -2.356  0.00  0.00    -0.028 A 
ATOM     12  C   UNL     1     -17.619  -0.273  -1.609  0.00  0.00    +0.005 A 
ATOM     13  C   UNL     1     -15.573   0.323  -2.743  0.00  0.00    +0.005 A 
ATOM     14  C   UNL     1     -17.070  -1.515  -1.279  0.00  0.00    +0.000 A 
ATOM     15  C   UNL     1     -15.029  -0.918  -2.411  0.00  0.00    +0.000 A 
ATOM     16  C   UNL     1     -15.779  -1.837  -1.681  0.00  0.00    +0.000 A 
ENDBRANCH  10  11
ENDBRANCH   1  10
TORSDOF 2
ENDMDL
MODEL 3
REMARK VINA RESULT:    -3.508      2.041      2.443
REMARK INTER + INTRA:          -4.061
REMARK INTER:                  -3.953
REMARK INTRA:                  -0.108
REMARK UNBOUND:                -0.142
REMARK  Name = 1550473
REMARK  2 active torsions:
REMARK  status: ('A' for Active; 'I' for Inactive)
REMARK    1  A    between atoms: N_1  and  C_4
REMARK    2  A    between atoms: C_4  and  C_5
REMARK                            x       y       z     vdW  Elec       q    Type
REMARK                         _______ _______ _______ _____ _____    ______ ____
ROOT
ATOM      1  N   UNL     1       4.053  -4.682   9.185  0.00  0.00    -0.354 N 
ATOM      2  N   UNL     1       3.288  -6.853   8.930  0.00  0.00    -0.372 N 
ATOM      3  N   UNL     1       2.113  -5.141   7.954  0.00  0.00    -0.372 N 
ATOM      4  C   UNL     1       3.154  -5.543   8.690  0.00  0.00    +0.166 C 
ATOM      5  H   UNL     1       4.803  -5.047   9.761  0.00  0.00    +0.163 HD
ATOM      6  H   UNL     1       2.627  -7.527   8.567  0.00  0.00    +0.159 HD
ATOM      7  H   UNL     1       4.064  -7.220   9.467  0.00  0.00    +0.159 HD
ATOM      8  H   UNL     1       1.952  -4.165   7.742  0.00  0.00    +0.159 HD
ATOM      9  H   UNL     1       1.434  -5.799   7.591  0.00  0.00    +0.159 HD
ENDROOT
BRANCH   1  10
ATOM     10  C   UNL     1       4.028  -3.241   8.938  0.00  0.00    +0.151 C 
BRANCH  10  11
ATOM     11  C   UNL     1       4.421  -2.519  10.197  0.00  0.00    -0.028 A 
ATOM     12  C   UNL     1       5.687  -2.719  10.767  0.00  0.00    +0.005 A 
ATOM     13  C   UNL     1       3.534  -1.630  10.822  0.00  0.00    +0.005 A 
ATOM     14  C   UNL     1       6.064  -2.026  11.920  0.00  0.00    +0.000 A 
ATOM     15  C   UNL     1       3.913  -0.941  11.974  0.00  0.00    +0.000 A 
ATOM     16  C   UNL     1       5.179  -1.137  12.521  0.00  0.00    +0.000 A 
ENDBRANCH  10  11
ENDBRANCH   1  10
TORSDOF 2
ENDMDL
MODEL 4
REMARK VINA RESULT:    -3.433     15.376     16.696
REMARK INTER + INTRA:          -3.977
REMARK INTER:                  -3.824
REMARK INTRA:                  -0.153
REMARK UNBOUND:                -0.142
REMARK  Name = 1550473
REMARK  2 active torsions:
REMARK  status: ('A' for Active; 'I' for Inactive)
REMARK    1  A    between atoms: N_1  and  C_4
REMARK    2  A    between atoms: C_4  and  C_5
REMARK                            x       y       z     vdW  Elec       q    Type
REMARK                         _______ _______ _______ _____ _____    ______ ____
ROOT
ATOM      1  N   UNL     1       6.161   7.558  -2.342  0.00  0.00    -0.354 N 
ATOM      2  N   UNL     1       4.548   9.217  -2.432  0.00  0.00    -0.372 N 
ATOM      3  N   UNL     1       3.880   7.028  -2.266  0.00  0.00    -0.372 N 
ATOM      4  C   UNL     1       4.872   7.921  -2.346  0.00  0.00    +0.166 C 
ATOM      5  H   UNL     1       6.865   8.281  -2.436  0.00  0.00    +0.163 HD
ATOM      6  H   UNL     1       3.583   9.521  -2.434  0.00  0.00    +0.159 HD
ATOM      7  H   UNL     1       5.254   9.941  -2.480  0.00  0.00    +0.159 HD
ATOM      8  H   UNL     1       4.058   6.034  -2.204  0.00  0.00    +0.159 HD
ATOM      9  H   UNL     1       2.908   7.312  -2.278  0.00  0.00    +0.159 HD
ENDROOT
BRANCH   1  10
ATOM     10  C   UNL     1       6.622   6.178  -2.198  0.00  0.00    +0.151 C 
BRANCH  10  11
ATOM     11  C   UNL     1       6.816   5.875  -0.738  0.00  0.00    -0.028 A 
ATOM     12  C   UNL     1       5.933   5.018  -0.065  0.00  0.00    +0.005 A 
ATOM     13  C   UNL     1       7.885   6.437  -0.023  0.00  0.00    +0.005 A 
ATOM     14  C   UNL     1       6.131   4.712   1.284  0.00  0.00    +0.000 A 
ATOM     15  C   UNL     1       8.079   6.130   1.324  0.00  0.00    +0.000 A 
ATOM     16  C   UNL     1       7.203   5.265   1.976  0.00  0.00    +0.000 A 
ENDBRANCH  10  11
ENDBRANCH   1  10
TORSDOF 2
ENDMDL
MODEL 5
REMARK VINA RESULT:    -3.372     13.863     15.152
REMARK INTER + INTRA:          -3.909
REMARK INTER:                  -3.773
REMARK INTRA:                  -0.135
REMARK UNBOUND:                -0.142
REMARK  Name = 1550473
REMARK  2 active torsions:
REMARK  status: ('A' for Active; 'I' for Inactive)
REMARK    1  A    between atoms: N_1  and  C_4
REMARK    2  A    between atoms: C_4  and  C_5
REMARK                            x       y       z     vdW  Elec       q    Type
REMARK                         _______ _______ _______ _____ _____    ______ ____
ROOT
ATOM      1  N   UNL     1      -3.357 -10.715  -0.205  0.00  0.00    -0.354 N 
ATOM      2  N   UNL     1      -4.226  -9.904   1.783  0.00  0.00    -0.372 N 
ATOM      3  N   UNL     1      -5.069  -9.114  -0.200  0.00  0.00    -0.372 N 
ATOM      4  C   UNL     1      -4.213  -9.915   0.444  0.00  0.00    +0.166 C 
ATOM      5  H   UNL     1      -2.713 -11.275   0.341  0.00  0.00    +0.163 HD
ATOM      6  H   UNL     1      -4.863  -9.313   2.300  0.00  0.00    +0.159 HD
ATOM      7  H   UNL     1      -3.613 -10.499   2.326  0.00  0.00    +0.159 HD
ATOM      8  H   UNL     1      -5.105  -9.071  -1.210  0.00  0.00    +0.159 HD
ATOM      9  H   UNL     1      -5.706  -8.507   0.300  0.00  0.00    +0.159 HD
ENDROOT
BRANCH   1  10
ATOM     10  C   UNL     1      -3.300 -10.842  -1.660  0.00  0.00    +0.151 C 
BRANCH  10  11
ATOM     11  C   UNL     1      -1.916 -10.486  -2.130  0.00  0.00    -0.028 A 
ATOM     12  C   UNL     1      -1.547 -10.681  -3.469  0.00  0.00    +0.005 A 
ATOM     13  C   UNL     1      -0.972  -9.949  -1.242  0.00  0.00    +0.005 A 
ATOM     14  C   UNL     1      -0.272 -10.323  -3.913  0.00  0.00    +0.000 A 
ATOM     15  C   UNL     1       0.301  -9.594  -1.689  0.00  0.00    +0.000 A 
ATOM     16  C   UNL     1       0.650  -9.778  -3.025  0.00  0.00    +0.000 A 
ENDBRANCH  10  11
ENDBRANCH   1  10
TORSDOF 2
ENDMDL
MODEL 6
REMARK VINA RESULT:    -3.364     23.860     24.517
REMARK INTER + INTRA:          -3.900
REMARK INTER:                  -3.785
REMARK INTRA:                  -0.115
REMARK UNBOUND:                -0.142
REMARK  Name = 1550473
REMARK  2 active torsions:
REMARK  status: ('A' for Active; 'I' for Inactive)
REMARK    1  A    between atoms: N_1  and  C_4
REMARK    2  A    between atoms: C_4  and  C_5
REMARK                            x       y       z     vdW  Elec       q    Type
REMARK                         _______ _______ _______ _____ _____    ______ ____
ROOT
ATOM      1  N   UNL     1     -19.328   2.149   0.597  0.00  0.00    -0.354 N 
ATOM      2  N   UNL     1     -20.038   4.312   1.022  0.00  0.00    -0.372 N 
ATOM      3  N   UNL     1     -18.437   3.383   2.379  0.00  0.00    -0.372 N 
ATOM      4  C   UNL     1     -19.261   3.267   1.332  0.00  0.00    +0.166 C 
ATOM      5  H   UNL     1     -19.995   2.113  -0.165  0.00  0.00    +0.163 HD
ATOM      6  H   UNL     1     -20.007   5.170   1.557  0.00  0.00    +0.159 HD
ATOM      7  H   UNL     1     -20.670   4.290   0.232  0.00  0.00    +0.159 HD
ATOM      8  H   UNL     1     -17.829   2.629   2.669  0.00  0.00    +0.159 HD
ATOM      9  H   UNL     1     -18.400   4.230   2.933  0.00  0.00    +0.159 HD
ENDROOT
BRANCH   1  10
ATOM     10  C   UNL     1     -18.487   0.974   0.818  0.00  0.00    +0.151 C 
BRANCH  10  11
ATOM     11  C   UNL     1     -17.650   0.731  -0.408  0.00  0.00    -0.028 A 
ATOM     12  C   UNL     1     -17.153  -0.550  -0.688  0.00  0.00    +0.005 A 
ATOM     13  C   UNL     1     -17.356   1.777  -1.296  0.00  0.00    +0.005 A 
ATOM     14  C   UNL     1     -16.401  -0.783  -1.843  0.00  0.00    +0.000 A 
ATOM     15  C   UNL     1     -16.605   1.541  -2.448  0.00  0.00    +0.000 A 
ATOM     16  C   UNL     1     -16.130   0.261  -2.722  0.00  0.00    +0.000 A 
ENDBRANCH  10  11
ENDBRANCH   1  10
TORSDOF 2
ENDMDL
MODEL 7
REMARK VINA RESULT:    -3.325     11.823     13.035
REMARK INTER + INTRA:          -3.855
REMARK INTER:                  -3.732
REMARK INTRA:                  -0.123
REMARK UNBOUND:                -0.142
REMARK  Name = 1550473
REMARK  2 active torsions:
REMARK  status: ('A' for Active; 'I' for Inactive)
REMARK    1  A    between atoms: N_1  and  C_4
REMARK    2  A    between atoms: C_4  and  C_5
REMARK                            x       y       z     vdW  Elec       q    Type
REMARK                         _______ _______ _______ _____ _____    ______ ____
ROOT
ATOM      1  N   UNL     1       8.397   2.908   4.088  0.00  0.00    -0.354 N 
ATOM      2  N   UNL     1       8.256   1.511   5.929  0.00  0.00    -0.372 N 
ATOM      3  N   UNL     1      10.322   1.976   5.046  0.00  0.00    -0.372 N 
ATOM      4  C   UNL     1       8.996   2.141   5.008  0.00  0.00    +0.166 C 
ATOM      5  H   UNL     1       7.386   2.968   4.094  0.00  0.00    +0.163 HD
ATOM      6  H   UNL     1       8.679   0.928   6.639  0.00  0.00    +0.159 HD
ATOM      7  H   UNL     1       7.249   1.610   5.962  0.00  0.00    +0.159 HD
ATOM      8  H   UNL     1      10.936   2.419   4.376  0.00  0.00    +0.159 HD
ATOM      9  H   UNL     1      10.764   1.387   5.741  0.00  0.00    +0.159 HD
ENDROOT
BRANCH   1  10
ATOM     10  C   UNL     1       9.116   3.679   3.074  0.00  0.00    +0.151 C 
BRANCH  10  11
ATOM     11  C   UNL     1       8.120   4.301   2.134  0.00  0.00    -0.028 A 
ATOM     12  C   UNL     1       8.548   5.161   1.111  0.00  0.00    +0.005 A 
ATOM     13  C   UNL     1       6.749   4.030   2.256  0.00  0.00    +0.005 A 
ATOM     14  C   UNL     1       7.627   5.715   0.219  0.00  0.00    +0.000 A 
ATOM     15  C   UNL     1       5.833   4.585   1.363  0.00  0.00    +0.000 A 
ATOM     16  C   UNL     1       6.273   5.426   0.343  0.00  0.00    +0.000 A 
ENDBRANCH  10  11
ENDBRANCH   1  10
TORSDOF 2
ENDMDL
MODEL 8
REMARK VINA RESULT:    -3.318     22.642     23.333
REMARK INTER + INTRA:          -3.848
REMARK INTER:                  -3.689
REMARK INTRA:                  -0.159
REMARK UNBOUND:                -0.142
REMARK  Name = 1550473
REMARK  2 active torsions:
REMARK  status: ('A' for Active; 'I' for Inactive)
REMARK    1  A    between atoms: N_1  and  C_4
REMARK    2  A    between atoms: C_4  and  C_5
REMARK                            x       y       z     vdW  Elec       q    Type
REMARK                         _______ _______ _______ _____ _____    ______ ____
ROOT
ATOM      1  N   UNL     1      -3.534   4.258  -9.087  0.00  0.00    -0.354 N 
ATOM      2  N   UNL     1      -1.402   3.530  -8.553  0.00  0.00    -0.372 N 
ATOM      3  N   UNL     1      -3.022   3.506  -6.928  0.00  0.00    -0.372 N 
ATOM      4  C   UNL     1      -2.668   3.769  -8.190  0.00  0.00    +0.166 C 
ATOM      5  H   UNL     1      -3.196   4.465 -10.020  0.00  0.00    +0.163 HD
ATOM      6  H   UNL     1      -0.726   3.159  -7.898  0.00  0.00    +0.159 HD
ATOM      7  H   UNL     1      -1.078   3.695  -9.498  0.00  0.00    +0.159 HD
ATOM      8  H   UNL     1      -3.961   3.670  -6.590  0.00  0.00    +0.159 HD
ATOM      9  H   UNL     1      -2.357   3.144  -6.255  0.00  0.00    +0.159 HD
ENDROOT
BRANCH   1  10
ATOM     10  C   UNL     1      -4.949   4.503  -8.809  0.00  0.00    +0.151 C 
BRANCH  10  11
ATOM     11  C   UNL     1      -5.773   3.445  -9.490  0.00  0.00    -0.028 A 
ATOM     12  C   UNL     1      -5.882   2.161  -8.937  0.00  0.00    +0.005 A 
ATOM     13  C   UNL     1      -6.453   3.723 -10.686  0.00  0.00    +0.005 A 
ATOM     14  C   UNL     1      -6.672   1.188  -9.553  0.00  0.00    +0.000 A 
ATOM     15  C   UNL     1      -7.240   2.748 -11.298  0.00  0.00    +0.000 A 
ATOM     16  C   UNL     1      -7.351   1.481 -10.730  0.00  0.00    +0.000 A 
ENDBRANCH  10  11
ENDBRANCH   1  10
TORSDOF 2
ENDMDL
MODEL 9
REMARK VINA RESULT:    -3.307     17.413     18.766
REMARK INTER + INTRA:          -3.836
REMARK INTER:                  -3.711
REMARK INTRA:                  -0.125
REMARK UNBOUND:                -0.142
REMARK  Name = 1550473
REMARK  2 active torsions:
REMARK  status: ('A' for Active; 'I' for Inactive)
REMARK    1  A    between atoms: N_1  and  C_4
REMARK    2  A    between atoms: C_4  and  C_5
REMARK                            x       y       z     vdW  Elec       q    Type
REMARK                         _______ _______ _______ _____ _____    ______ ____
ROOT
ATOM      1  N   UNL     1       8.089   9.514  -1.360  0.00  0.00    -0.354 N 
ATOM      2  N   UNL     1       9.034  10.949  -2.913  0.00  0.00    -0.372 N 
ATOM      3  N   UNL     1       9.941   8.859  -2.638  0.00  0.00    -0.372 N 
ATOM      4  C   UNL     1       9.017   9.762  -2.294  0.00  0.00    +0.166 C 
ATOM      5  H   UNL     1       7.435  10.252  -1.123  0.00  0.00    +0.163 HD
ATOM      6  H   UNL     1       9.720  11.164  -3.625  0.00  0.00    +0.159 HD
ATOM      7  H   UNL     1       8.351  11.667  -2.708  0.00  0.00    +0.159 HD
ATOM      8  H   UNL     1       9.986   7.947  -2.203  0.00  0.00    +0.159 HD
ATOM      9  H   UNL     1      10.644   9.060  -3.339  0.00  0.00    +0.159 HD
ENDROOT
BRANCH   1  10
ATOM     10  C   UNL     1       7.951   8.236  -0.664  0.00  0.00    +0.151 C 
BRANCH  10  11
ATOM     11  C   UNL     1       6.714   7.538  -1.160  0.00  0.00    -0.028 A 
ATOM     12  C   UNL     1       6.450   6.211  -0.793  0.00  0.00    +0.005 A 
ATOM     13  C   UNL     1       5.800   8.202  -1.993  0.00  0.00    +0.005 A 
ATOM     14  C   UNL     1       5.286   5.572  -1.229  0.00  0.00    +0.000 A 
ATOM     15  C   UNL     1       4.639   7.560  -2.427  0.00  0.00    +0.000 A 
ATOM     16  C   UNL     1       4.382   6.247  -2.043  0.00  0.00    +0.000 A 
ENDBRANCH  10  11
ENDBRANCH   1  10
TORSDOF 2
ENDMDL
