MODEL 1
REMARK VINA RESULT:    -4.649      0.000      0.000
REMARK INTER + INTRA:          -5.301
REMARK INTER:                  -5.193
REMARK INTRA:                  -0.108
REMARK UNBOUND:                -0.108
REMARK  Name = 1550473
REMARK  2 active torsions:
REMARK  status: ('A' for Active; 'I' for Inactive)
REMARK    1  A    between atoms: N_1  and  C_4
REMARK    2  A    between atoms: C_4  and  C_5
REMARK                            x       y       z     vdW  Elec       q    Type
REMARK                         _______ _______ _______ _____ _____    ______ ____
ROOT
ATOM      1  N   UNL     1      -8.310  18.226   8.798  0.00  0.00    -0.354 N 
ATOM      2  N   UNL     1      -8.747  16.643   7.165  0.00  0.00    -0.372 N 
ATOM      3  N   UNL     1     -10.508  17.741   8.145  0.00  0.00    -0.372 N 
ATOM      4  C   UNL     1      -9.188  17.547   8.047  0.00  0.00    +0.166 C 
ATOM      5  H   UNL     1      -7.324  18.011   8.698  0.00  0.00    +0.163 HD
ATOM      6  H   UNL     1      -9.386  16.119   6.582  0.00  0.00    +0.159 HD
ATOM      7  H   UNL     1      -7.759  16.463   7.034  0.00  0.00    +0.159 HD
ATOM      8  H   UNL     1     -10.905  18.405   8.796  0.00  0.00    +0.159 HD
ATOM      9  H   UNL     1     -11.163  17.217   7.579  0.00  0.00    +0.159 HD
ENDROOT
BRANCH   1  10
ATOM     10  C   UNL     1      -8.683  19.270   9.750  0.00  0.00    +0.151 C 
BRANCH  10  11
ATOM     11  C   UNL     1      -7.435  19.845  10.363  0.00  0.00    -0.028 A 
ATOM     12  C   UNL     1      -6.411  19.001  10.816  0.00  0.00    +0.005 A 
ATOM     13  C   UNL     1      -7.269  21.233  10.487  0.00  0.00    +0.005 A 
ATOM     14  C   UNL     1      -5.239  19.535  11.358  0.00  0.00    +0.000 A 
ATOM     15  C   UNL     1      -6.098  21.762  11.030  0.00  0.00    +0.000 A 
ATOM     16  C   UNL     1      -5.083  20.913  11.462  0.00  0.00    +0.000 A 
ENDBRANCH  10  11
ENDBRANCH   1  10
TORSDOF 2
ENDMDL
MODEL 2
REMARK VINA RESULT:    -4.640     15.163     16.279
REMARK INTER + INTRA:          -5.291
REMARK INTER:                  -5.167
REMARK INTRA:                  -0.124
REMARK UNBOUND:                -0.108
REMARK  Name = 1550473
REMARK  2 active torsions:
REMARK  status: ('A' for Active; 'I' for Inactive)
REMARK    1  A    between atoms: N_1  and  C_4
REMARK    2  A    between atoms: C_4  and  C_5
REMARK                            x       y       z     vdW  Elec       q    Type
REMARK                         _______ _______ _______ _____ _____    ______ ____
ROOT
ATOM      1  N   UNL     1      -2.932   5.994  11.405  0.00  0.00    -0.354 N 
ATOM      2  N   UNL     1      -4.020   7.483  12.807  0.00  0.00    -0.372 N 
ATOM      3  N   UNL     1      -1.989   8.077  11.919  0.00  0.00    -0.372 N 
ATOM      4  C   UNL     1      -2.971   7.176  12.034  0.00  0.00    +0.166 C 
ATOM      5  H   UNL     1      -3.694   5.343  11.558  0.00  0.00    +0.163 HD
ATOM      6  H   UNL     1      -4.078   8.369  13.291  0.00  0.00    +0.159 HD
ATOM      7  H   UNL     1      -4.801   6.849  12.921  0.00  0.00    +0.159 HD
ATOM      8  H   UNL     1      -1.167   7.904  11.356  0.00  0.00    +0.159 HD
ATOM      9  H   UNL     1      -2.024   8.964  12.406  0.00  0.00    +0.159 HD
ENDROOT
BRANCH   1  10
ATOM     10  C   UNL     1      -1.861   5.585  10.498  0.00  0.00    +0.151 C 
BRANCH  10  11
ATOM     11  C   UNL     1      -1.343   4.239  10.926  0.00  0.00    -0.028 A 
ATOM     12  C   UNL     1      -0.002   4.081  11.307  0.00  0.00    +0.005 A 
ATOM     13  C   UNL     1      -2.189   3.120  10.958  0.00  0.00    +0.005 A 
ATOM     14  C   UNL     1       0.472   2.838  11.733  0.00  0.00    +0.000 A 
ATOM     15  C   UNL     1      -1.711   1.881  11.383  0.00  0.00    +0.000 A 
ATOM     16  C   UNL     1      -0.381   1.741  11.773  0.00  0.00    +0.000 A 
ENDBRANCH  10  11
ENDBRANCH   1  10
TORSDOF 2
ENDMDL
MODEL 3
REMARK VINA RESULT:    -4.422     30.863     32.549
REMARK INTER + INTRA:          -5.047
REMARK INTER:                  -4.923
REMARK INTRA:                  -0.124
REMARK UNBOUND:                -0.108
REMARK  Name = 1550473
REMARK  2 active torsions:
REMARK  status: ('A' for Active; 'I' for Inactive)
REMARK    1  A    between atoms: N_1  and  C_4
REMARK    2  A    between atoms: C_4  and  C_5
REMARK                            x       y       z     vdW  Elec       q    Type
REMARK                         _______ _______ _______ _____ _____    ______ ____
ROOT
ATOM      1  N   UNL     1      20.830   9.139  24.757  0.00  0.00    -0.354 N 
ATOM      2  N   UNL     1      22.542   8.097  25.918  0.00  0.00    -0.372 N 
ATOM      3  N   UNL     1      20.616   6.924  25.494  0.00  0.00    -0.372 N 
ATOM      4  C   UNL     1      21.316   8.058  25.382  0.00  0.00    +0.166 C 
ATOM      5  H   UNL     1      21.398   9.977  24.733  0.00  0.00    +0.163 HD
ATOM      6  H   UNL     1      22.937   7.296  26.393  0.00  0.00    +0.159 HD
ATOM      7  H   UNL     1      23.126   8.922  25.852  0.00  0.00    +0.159 HD
ATOM      8  H   UNL     1      19.682   6.832  25.116  0.00  0.00    +0.159 HD
ATOM      9  H   UNL     1      20.989   6.116  25.975  0.00  0.00    +0.159 HD
ENDROOT
BRANCH   1  10
ATOM     10  C   UNL     1      19.528   9.183  24.094  0.00  0.00    +0.151 C 
BRANCH  10  11
ATOM     11  C   UNL     1      19.507  10.336  23.129  0.00  0.00    -0.028 A 
ATOM     12  C   UNL     1      18.291  10.923  22.748  0.00  0.00    +0.005 A 
ATOM     13  C   UNL     1      20.699  10.851  22.598  0.00  0.00    +0.005 A 
ATOM     14  C   UNL     1      18.273  12.014  21.875  0.00  0.00    +0.000 A 
ATOM     15  C   UNL     1      20.677  11.940  21.727  0.00  0.00    +0.000 A 
ATOM     16  C   UNL     1      19.464  12.523  21.368  0.00  0.00    +0.000 A 
ENDBRANCH  10  11
ENDBRANCH   1  10
TORSDOF 2
ENDMDL
MODEL 4
REMARK VINA RESULT:    -4.420     28.825     30.207
REMARK INTER + INTRA:          -5.045
REMARK INTER:                  -4.885
REMARK INTRA:                  -0.160
REMARK UNBOUND:                -0.108
REMARK  Name = 1550473
REMARK  2 active torsions:
REMARK  status: ('A' for Active; 'I' for Inactive)
REMARK    1  A    between atoms: N_1  and  C_4
REMARK    2  A    between atoms: C_4  and  C_5
REMARK                            x       y       z     vdW  Elec       q    Type
REMARK                         _______ _______ _______ _____ _____    ______ ____
ROOT
ATOM      1  N   UNL     1      19.514  16.983  22.192  0.00  0.00    -0.354 N 
ATOM      2  N   UNL     1      17.965  18.576  21.536  0.00  0.00    -0.372 N 
ATOM      3  N   UNL     1      17.746  17.600  23.602  0.00  0.00    -0.372 N 
ATOM      4  C   UNL     1      18.417  17.708  22.450  0.00  0.00    +0.166 C 
ATOM      5  H   UNL     1      19.959  17.090  21.288  0.00  0.00    +0.163 HD
ATOM      6  H   UNL     1      17.142  19.139  21.704  0.00  0.00    +0.159 HD
ATOM      7  H   UNL     1      18.438  18.714  20.652  0.00  0.00    +0.159 HD
ATOM      8  H   UNL     1      18.033  16.959  24.330  0.00  0.00    +0.159 HD
ATOM      9  H   UNL     1      16.914  18.147  23.784  0.00  0.00    +0.159 HD
ENDROOT
BRANCH   1  10
ATOM     10  C   UNL     1      20.119  16.050  23.140  0.00  0.00    +0.151 C 
BRANCH  10  11
ATOM     11  C   UNL     1      19.901  14.644  22.654  0.00  0.00    -0.028 A 
ATOM     12  C   UNL     1      18.634  14.049  22.743  0.00  0.00    +0.005 A 
ATOM     13  C   UNL     1      20.956  13.904  22.098  0.00  0.00    +0.005 A 
ATOM     14  C   UNL     1      18.424  12.754  22.263  0.00  0.00    +0.000 A 
ATOM     15  C   UNL     1      20.742  12.611  21.622  0.00  0.00    +0.000 A 
ATOM     16  C   UNL     1      19.475  12.037  21.702  0.00  0.00    +0.000 A 
ENDBRANCH  10  11
ENDBRANCH   1  10
TORSDOF 2
ENDMDL
MODEL 5
REMARK VINA RESULT:    -4.367     31.503     33.279
REMARK INTER + INTRA:          -4.985
REMARK INTER:                  -4.870
REMARK INTRA:                  -0.115
REMARK UNBOUND:                -0.108
REMARK  Name = 1550473
REMARK  2 active torsions:
REMARK  status: ('A' for Active; 'I' for Inactive)
REMARK    1  A    between atoms: N_1  and  C_4
REMARK    2  A    between atoms: C_4  and  C_5
REMARK                            x       y       z     vdW  Elec       q    Type
REMARK                         _______ _______ _______ _____ _____    ______ ____
ROOT
ATOM      1  N   UNL     1      22.413  11.962  24.873  0.00  0.00    -0.354 N 
ATOM      2  N   UNL     1      24.135  13.159  25.854  0.00  0.00    -0.372 N 
ATOM      3  N   UNL     1      24.471  10.946  25.347  0.00  0.00    -0.372 N 
ATOM      4  C   UNL     1      23.663  12.012  25.352  0.00  0.00    +0.166 C 
ATOM      5  H   UNL     1      21.840  12.796  24.933  0.00  0.00    +0.163 HD
ATOM      6  H   UNL     1      25.075  13.228  26.220  0.00  0.00    +0.159 HD
ATOM      7  H   UNL     1      23.577  14.003  25.871  0.00  0.00    +0.159 HD
ATOM      8  H   UNL     1      24.172  10.050  24.987  0.00  0.00    +0.159 HD
ATOM      9  H   UNL     1      25.411  10.993  25.719  0.00  0.00    +0.159 HD
ENDROOT
BRANCH   1  10
ATOM     10  C   UNL     1      21.821  10.776  24.255  0.00  0.00    +0.151 C 
BRANCH  10  11
ATOM     11  C   UNL     1      20.669  11.199  23.385  0.00  0.00    -0.028 A 
ATOM     12  C   UNL     1      19.420  10.572  23.503  0.00  0.00    +0.005 A 
ATOM     13  C   UNL     1      20.819  12.230  22.445  0.00  0.00    +0.005 A 
ATOM     14  C   UNL     1      18.342  10.985  22.716  0.00  0.00    +0.000 A 
ATOM     15  C   UNL     1      19.741  12.638  21.660  0.00  0.00    +0.000 A 
ATOM     16  C   UNL     1      18.502  12.017  21.798  0.00  0.00    +0.000 A 
ENDBRANCH  10  11
ENDBRANCH   1  10
TORSDOF 2
ENDMDL
MODEL 6
REMARK VINA RESULT:    -4.229     30.210     31.490
REMARK INTER + INTRA:          -4.832
REMARK INTER:                  -4.727
REMARK INTRA:                  -0.105
REMARK UNBOUND:                -0.108
REMARK  Name = 1550473
REMARK  2 active torsions:
REMARK  status: ('A' for Active; 'I' for Inactive)
REMARK    1  A    between atoms: N_1  and  C_4
REMARK    2  A    between atoms: C_4  and  C_5
REMARK                            x       y       z     vdW  Elec       q    Type
REMARK                         _______ _______ _______ _____ _____    ______ ____
ROOT
ATOM      1  N   UNL     1      18.126   2.555  14.692  0.00  0.00    -0.354 N 
ATOM      2  N   UNL     1      16.756   3.049  12.891  0.00  0.00    -0.372 N 
ATOM      3  N   UNL     1      16.817   0.895  13.680  0.00  0.00    -0.372 N 
ATOM      4  C   UNL     1      17.242   2.160  13.766  0.00  0.00    +0.166 C 
ATOM      5  H   UNL     1      18.431   3.522  14.686  0.00  0.00    +0.163 HD
ATOM      6  H   UNL     1      16.085   2.782  12.184  0.00  0.00    +0.159 HD
ATOM      7  H   UNL     1      17.027   4.025  12.916  0.00  0.00    +0.159 HD
ATOM      8  H   UNL     1      17.150   0.175  14.307  0.00  0.00    +0.159 HD
ATOM      9  H   UNL     1      16.155   0.606  12.971  0.00  0.00    +0.159 HD
ENDROOT
BRANCH   1  10
ATOM     10  C   UNL     1      18.675   1.678  15.725  0.00  0.00    +0.151 C 
BRANCH  10  11
ATOM     11  C   UNL     1      18.864   2.468  16.990  0.00  0.00    -0.028 A 
ATOM     12  C   UNL     1      19.747   3.557  17.024  0.00  0.00    +0.005 A 
ATOM     13  C   UNL     1      18.159   2.135  18.157  0.00  0.00    +0.005 A 
ATOM     14  C   UNL     1      19.900   4.309  18.191  0.00  0.00    +0.000 A 
ATOM     15  C   UNL     1      18.316   2.888  19.321  0.00  0.00    +0.000 A 
ATOM     16  C   UNL     1      19.185   3.977  19.337  0.00  0.00    +0.000 A 
ENDBRANCH  10  11
ENDBRANCH   1  10
TORSDOF 2
ENDMDL
MODEL 7
REMARK VINA RESULT:    -4.192     14.555     15.589
REMARK INTER + INTRA:          -4.790
REMARK INTER:                  -4.666
REMARK INTRA:                  -0.124
REMARK UNBOUND:                -0.108
REMARK  Name = 1550473
REMARK  2 active torsions:
REMARK  status: ('A' for Active; 'I' for Inactive)
REMARK    1  A    between atoms: N_1  and  C_4
REMARK    2  A    between atoms: C_4  and  C_5
REMARK                            x       y       z     vdW  Elec       q    Type
REMARK                         _______ _______ _______ _____ _____    ______ ____
ROOT
ATOM      1  N   UNL     1      -3.574   5.870  12.181  0.00  0.00    -0.354 N 
ATOM      2  N   UNL     1      -5.391   6.597  10.942  0.00  0.00    -0.372 N 
ATOM      3  N   UNL     1      -4.242   8.116  12.222  0.00  0.00    -0.372 N 
ATOM      4  C   UNL     1      -4.390   6.859  11.791  0.00  0.00    +0.166 C 
ATOM      5  H   UNL     1      -3.757   4.933  11.841  0.00  0.00    +0.163 HD
ATOM      6  H   UNL     1      -6.021   7.323  10.628  0.00  0.00    +0.159 HD
ATOM      7  H   UNL     1      -5.544   5.668  10.569  0.00  0.00    +0.159 HD
ATOM      8  H   UNL     1      -3.510   8.378  12.869  0.00  0.00    +0.159 HD
ATOM      9  H   UNL     1      -4.869   8.854  11.928  0.00  0.00    +0.159 HD
ENDROOT
BRANCH   1  10
ATOM     10  C   UNL     1      -2.421   6.060  13.060  0.00  0.00    +0.151 C 
BRANCH  10  11
ATOM     11  C   UNL     1      -1.370   5.040  12.718  0.00  0.00    -0.028 A 
ATOM     12  C   UNL     1      -1.081   4.737  11.379  0.00  0.00    +0.005 A 
ATOM     13  C   UNL     1      -0.655   4.378  13.727  0.00  0.00    +0.005 A 
ATOM     14  C   UNL     1      -0.083   3.813  11.060  0.00  0.00    +0.000 A 
ATOM     15  C   UNL     1       0.340   3.455  13.405  0.00  0.00    +0.000 A 
ATOM     16  C   UNL     1       0.627   3.174  12.072  0.00  0.00    +0.000 A 
ENDBRANCH  10  11
ENDBRANCH   1  10
TORSDOF 2
ENDMDL
MODEL 8
REMARK VINA RESULT:    -4.172      3.311      5.271
REMARK INTER + INTRA:          -4.768
REMARK INTER:                  -4.625
REMARK INTRA:                  -0.144
REMARK UNBOUND:                -0.108
REMARK  Name = 1550473
REMARK  2 active torsions:
REMARK  status: ('A' for Active; 'I' for Inactive)
REMARK    1  A    between atoms: N_1  and  C_4
REMARK    2  A    between atoms: C_4  and  C_5
REMARK                            x       y       z     vdW  Elec       q    Type
REMARK                         _______ _______ _______ _____ _____    ______ ____
ROOT
ATOM      1  N   UNL     1      -6.664  21.124  11.978  0.00  0.00    -0.354 N 
ATOM      2  N   UNL     1      -5.169  20.624  13.675  0.00  0.00    -0.372 N 
ATOM      3  N   UNL     1      -4.358  21.043  11.569  0.00  0.00    -0.372 N 
ATOM      4  C   UNL     1      -5.405  20.934  12.394  0.00  0.00    +0.166 C 
ATOM      5  H   UNL     1      -7.416  20.998  12.646  0.00  0.00    +0.163 HD
ATOM      6  H   UNL     1      -4.229  20.478  14.018  0.00  0.00    +0.159 HD
ATOM      7  H   UNL     1      -5.919  20.544  14.350  0.00  0.00    +0.159 HD
ATOM      8  H   UNL     1      -4.469  21.268  10.590  0.00  0.00    +0.159 HD
ATOM      9  H   UNL     1      -3.411  20.888  11.892  0.00  0.00    +0.159 HD
ENDROOT
BRANCH   1  10
ATOM     10  C   UNL     1      -7.025  21.517  10.617  0.00  0.00    +0.151 C 
BRANCH  10  11
ATOM     11  C   UNL     1      -7.905  20.456  10.016  0.00  0.00    -0.028 A 
ATOM     12  C   UNL     1      -9.130  20.797   9.426  0.00  0.00    +0.005 A 
ATOM     13  C   UNL     1      -7.516  19.108  10.030  0.00  0.00    +0.005 A 
ATOM     14  C   UNL     1      -9.934  19.815   8.841  0.00  0.00    +0.000 A 
ATOM     15  C   UNL     1      -8.321  18.130   9.446  0.00  0.00    +0.000 A 
ATOM     16  C   UNL     1      -9.529  18.485   8.849  0.00  0.00    +0.000 A 
ENDBRANCH  10  11
ENDBRANCH   1  10
TORSDOF 2
ENDMDL
MODEL 9
REMARK VINA RESULT:    -3.808     15.935     17.044
REMARK INTER + INTRA:          -4.361
REMARK INTER:                  -4.227
REMARK INTRA:                  -0.134
REMARK UNBOUND:                -0.108
REMARK  Name = 1550473
REMARK  2 active torsions:
REMARK  status: ('A' for Active; 'I' for Inactive)
REMARK    1  A    between atoms: N_1  and  C_4
REMARK    2  A    between atoms: C_4  and  C_5
REMARK                            x       y       z     vdW  Elec       q    Type
REMARK                         _______ _______ _______ _____ _____    ______ ____
ROOT
ATOM      1  N   UNL     1      -0.604   4.942  15.011  0.00  0.00    -0.354 N 
ATOM      2  N   UNL     1       1.272   4.997  16.368  0.00  0.00    -0.372 N 
ATOM      3  N   UNL     1       0.091   3.038  16.188  0.00  0.00    -0.372 N 
ATOM      4  C   UNL     1       0.240   4.323  15.847  0.00  0.00    +0.166 C 
ATOM      5  H   UNL     1      -0.453   5.925  14.816  0.00  0.00    +0.163 HD
ATOM      6  H   UNL     1       1.927   4.556  17.000  0.00  0.00    +0.159 HD
ATOM      7  H   UNL     1       1.446   5.967  16.136  0.00  0.00    +0.159 HD
ATOM      8  H   UNL     1      -0.671   2.475  15.834  0.00  0.00    +0.159 HD
ATOM      9  H   UNL     1       0.729   2.582  16.828  0.00  0.00    +0.159 HD
ENDROOT
BRANCH   1  10
ATOM     10  C   UNL     1      -1.728   4.283  14.347  0.00  0.00    +0.151 C 
BRANCH  10  11
ATOM     11  C   UNL     1      -1.705   4.628  12.884  0.00  0.00    -0.028 A 
ATOM     12  C   UNL     1      -2.730   5.401  12.319  0.00  0.00    +0.005 A 
ATOM     13  C   UNL     1      -0.658   4.191  12.058  0.00  0.00    +0.005 A 
ATOM     14  C   UNL     1      -2.694   5.747  10.966  0.00  0.00    +0.000 A 
ATOM     15  C   UNL     1      -0.626   4.538  10.707  0.00  0.00    +0.000 A 
ATOM     16  C   UNL     1      -1.643   5.318  10.162  0.00  0.00    +0.000 A 
ENDBRANCH  10  11
ENDBRANCH   1  10
TORSDOF 2
ENDMDL
