MODEL 1
REMARK VINA RESULT:    -5.498      0.000      0.000
REMARK INTER + INTRA:          -6.268
REMARK INTER:                  -6.141
REMARK INTRA:                  -0.126
REMARK UNBOUND:                -0.126
REMARK  Name = 1550473
REMARK  2 active torsions:
REMARK  status: ('A' for Active; 'I' for Inactive)
REMARK    1  A    between atoms: N_1  and  C_4
REMARK    2  A    between atoms: C_4  and  C_5
REMARK                            x       y       z     vdW  Elec       q    Type
REMARK                         _______ _______ _______ _____ _____    ______ ____
ROOT
ATOM      1  N   UNL     1      11.515  -9.890  12.670  0.00  0.00    -0.354 N 
ATOM      2  N   UNL     1       9.290  -9.568  12.112  0.00  0.00    -0.372 N 
ATOM      3  N   UNL     1       9.831 -10.037  14.292  0.00  0.00    -0.372 N 
ATOM      4  C   UNL     1      10.226  -9.834  13.031  0.00  0.00    +0.166 C 
ATOM      5  H   UNL     1      11.747  -9.757  11.692  0.00  0.00    +0.163 HD
ATOM      6  H   UNL     1       8.310  -9.516  12.356  0.00  0.00    +0.159 HD
ATOM      7  H   UNL     1       9.529  -9.390  11.144  0.00  0.00    +0.159 HD
ATOM      8  H   UNL     1      10.487 -10.248  15.032  0.00  0.00    +0.159 HD
ATOM      9  H   UNL     1       8.853 -10.000  14.553  0.00  0.00    +0.159 HD
ENDROOT
BRANCH   1  10
ATOM     10  C   UNL     1      12.617 -10.120  13.603  0.00  0.00    +0.151 C 
BRANCH  10  11
ATOM     11  C   UNL     1      13.817 -10.603  12.836  0.00  0.00    -0.028 A 
ATOM     12  C   UNL     1      15.000 -10.946  13.507  0.00  0.00    +0.005 A 
ATOM     13  C   UNL     1      13.776 -10.725  11.438  0.00  0.00    +0.005 A 
ATOM     14  C   UNL     1      16.105 -11.423  12.798  0.00  0.00    +0.000 A 
ATOM     15  C   UNL     1      14.882 -11.201  10.734  0.00  0.00    +0.000 A 
ATOM     16  C   UNL     1      16.045 -11.552  11.415  0.00  0.00    +0.000 A 
ENDBRANCH  10  11
ENDBRANCH   1  10
TORSDOF 2
ENDMDL
MODEL 2
REMARK VINA RESULT:    -5.395      2.824      4.971
REMARK INTER + INTRA:          -6.152
REMARK INTER:                  -6.045
REMARK INTRA:                  -0.107
REMARK UNBOUND:                -0.126
REMARK  Name = 1550473
REMARK  2 active torsions:
REMARK  status: ('A' for Active; 'I' for Inactive)
REMARK    1  A    between atoms: N_1  and  C_4
REMARK    2  A    between atoms: C_4  and  C_5
REMARK                            x       y       z     vdW  Elec       q    Type
REMARK                         _______ _______ _______ _____ _____    ______ ____
ROOT
ATOM      1  N   UNL     1      14.542 -10.880  12.175  0.00  0.00    -0.354 N 
ATOM      2  N   UNL     1      15.357 -11.107  10.019  0.00  0.00    -0.372 N 
ATOM      3  N   UNL     1      16.698 -11.710  11.781  0.00  0.00    -0.372 N 
ATOM      4  C   UNL     1      15.529 -11.231  11.340  0.00  0.00    +0.166 C 
ATOM      5  H   UNL     1      13.692 -10.496  11.779  0.00  0.00    +0.163 HD
ATOM      6  H   UNL     1      16.083 -11.367   9.365  0.00  0.00    +0.159 HD
ATOM      7  H   UNL     1      14.489 -10.765   9.624  0.00  0.00    +0.159 HD
ATOM      8  H   UNL     1      16.893 -11.823  12.767  0.00  0.00    +0.159 HD
ATOM      9  H   UNL     1      17.441 -11.965  11.142  0.00  0.00    +0.159 HD
ENDROOT
BRANCH   1  10
ATOM     10  C   UNL     1      14.608 -11.027  13.628  0.00  0.00    +0.151 C 
BRANCH  10  11
ATOM     11  C   UNL     1      13.237 -10.809  14.206  0.00  0.00    -0.028 A 
ATOM     12  C   UNL     1      12.739 -11.666  15.198  0.00  0.00    +0.005 A 
ATOM     13  C   UNL     1      12.434  -9.744  13.771  0.00  0.00    +0.005 A 
ATOM     14  C   UNL     1      11.477 -11.447  15.758  0.00  0.00    +0.000 A 
ATOM     15  C   UNL     1      11.175  -9.529  14.331  0.00  0.00    +0.000 A 
ATOM     16  C   UNL     1      10.698 -10.379  15.326  0.00  0.00    +0.000 A 
ENDBRANCH  10  11
ENDBRANCH   1  10
TORSDOF 2
ENDMDL
MODEL 3
REMARK VINA RESULT:    -5.147      3.003      5.271
REMARK INTER + INTRA:          -5.875
REMARK INTER:                  -5.754
REMARK INTRA:                  -0.121
REMARK UNBOUND:                -0.126
REMARK  Name = 1550473
REMARK  2 active torsions:
REMARK  status: ('A' for Active; 'I' for Inactive)
REMARK    1  A    between atoms: N_1  and  C_4
REMARK    2  A    between atoms: C_4  and  C_5
REMARK                            x       y       z     vdW  Elec       q    Type
REMARK                         _______ _______ _______ _____ _____    ______ ____
ROOT
ATOM      1  N   UNL     1      15.090 -11.518  12.950  0.00  0.00    -0.354 N 
ATOM      2  N   UNL     1      17.347 -11.000  12.974  0.00  0.00    -0.372 N 
ATOM      3  N   UNL     1      16.098 -10.433  11.134  0.00  0.00    -0.372 N 
ATOM      4  C   UNL     1      16.163 -10.986  12.350  0.00  0.00    +0.166 C 
ATOM      5  H   UNL     1      15.211 -11.949  13.860  0.00  0.00    +0.163 HD
ATOM      6  H   UNL     1      18.174 -10.603  12.548  0.00  0.00    +0.159 HD
ATOM      7  H   UNL     1      17.456 -11.390  13.902  0.00  0.00    +0.159 HD
ATOM      8  H   UNL     1      15.236 -10.397  10.608  0.00  0.00    +0.159 HD
ATOM      9  H   UNL     1      16.917 -10.041  10.686  0.00  0.00    +0.159 HD
ENDROOT
BRANCH   1  10
ATOM     10  C   UNL     1      13.744 -11.507  12.380  0.00  0.00    +0.151 C 
BRANCH  10  11
ATOM     11  C   UNL     1      12.784 -10.952  13.396  0.00  0.00    -0.028 A 
ATOM     12  C   UNL     1      12.101  -9.752  13.150  0.00  0.00    +0.005 A 
ATOM     13  C   UNL     1      12.549 -11.625  14.605  0.00  0.00    +0.005 A 
ATOM     14  C   UNL     1      11.187  -9.253  14.081  0.00  0.00    +0.000 A 
ATOM     15  C   UNL     1      11.637 -11.123  15.532  0.00  0.00    +0.000 A 
ATOM     16  C   UNL     1      10.954  -9.938  15.269  0.00  0.00    +0.000 A 
ENDBRANCH  10  11
ENDBRANCH   1  10
TORSDOF 2
ENDMDL
MODEL 4
REMARK VINA RESULT:    -5.135     11.755     13.864
REMARK INTER + INTRA:          -5.862
REMARK INTER:                  -5.745
REMARK INTRA:                  -0.117
REMARK UNBOUND:                -0.126
REMARK  Name = 1550473
REMARK  2 active torsions:
REMARK  status: ('A' for Active; 'I' for Inactive)
REMARK    1  A    between atoms: N_1  and  C_4
REMARK    2  A    between atoms: C_4  and  C_5
REMARK                            x       y       z     vdW  Elec       q    Type
REMARK                         _______ _______ _______ _____ _____    ______ ____
ROOT
ATOM      1  N   UNL     1       5.800  -3.817  20.884  0.00  0.00    -0.354 N 
ATOM      2  N   UNL     1       5.753  -3.849  18.568  0.00  0.00    -0.372 N 
ATOM      3  N   UNL     1       7.117  -5.329  19.670  0.00  0.00    -0.372 N 
ATOM      4  C   UNL     1       6.225  -4.333  19.723  0.00  0.00    +0.166 C 
ATOM      5  H   UNL     1       5.146  -3.043  20.855  0.00  0.00    +0.163 HD
ATOM      6  H   UNL     1       6.053  -4.221  17.677  0.00  0.00    +0.159 HD
ATOM      7  H   UNL     1       5.064  -3.106  18.544  0.00  0.00    +0.159 HD
ATOM      8  H   UNL     1       7.516  -5.735  20.506  0.00  0.00    +0.159 HD
ATOM      9  H   UNL     1       7.438  -5.707  18.788  0.00  0.00    +0.159 HD
ENDROOT
BRANCH   1  10
ATOM     10  C   UNL     1       6.211  -4.309  22.197  0.00  0.00    +0.151 C 
BRANCH  10  11
ATOM     11  C   UNL     1       6.960  -3.221  22.917  0.00  0.00    -0.028 A 
ATOM     12  C   UNL     1       7.246  -3.338  24.285  0.00  0.00    +0.005 A 
ATOM     13  C   UNL     1       7.390  -2.072  22.235  0.00  0.00    +0.005 A 
ATOM     14  C   UNL     1       7.968  -2.342  24.947  0.00  0.00    +0.000 A 
ATOM     15  C   UNL     1       8.109  -1.079  22.900  0.00  0.00    +0.000 A 
ATOM     16  C   UNL     1       8.400  -1.215  24.255  0.00  0.00    +0.000 A 
ENDBRANCH  10  11
ENDBRANCH   1  10
TORSDOF 2
ENDMDL
MODEL 5
REMARK VINA RESULT:    -5.013     21.611     24.165
REMARK INTER + INTRA:          -5.726
REMARK INTER:                  -5.612
REMARK INTRA:                  -0.113
REMARK UNBOUND:                -0.126
REMARK  Name = 1550473
REMARK  2 active torsions:
REMARK  status: ('A' for Active; 'I' for Inactive)
REMARK    1  A    between atoms: N_1  and  C_4
REMARK    2  A    between atoms: C_4  and  C_5
REMARK                            x       y       z     vdW  Elec       q    Type
REMARK                         _______ _______ _______ _____ _____    ______ ____
ROOT
ATOM      1  N   UNL     1      -4.656   2.063  19.654  0.00  0.00    -0.354 N 
ATOM      2  N   UNL     1      -4.646   0.993  17.600  0.00  0.00    -0.372 N 
ATOM      3  N   UNL     1      -2.644   1.437  18.629  0.00  0.00    -0.372 N 
ATOM      4  C   UNL     1      -3.979   1.505  18.642  0.00  0.00    +0.166 C 
ATOM      5  H   UNL     1      -5.666   2.110  19.590  0.00  0.00    +0.163 HD
ATOM      6  H   UNL     1      -4.163   0.563  16.823  0.00  0.00    +0.159 HD
ATOM      7  H   UNL     1      -5.658   1.000  17.560  0.00  0.00    +0.159 HD
ATOM      8  H   UNL     1      -2.081   1.811  19.382  0.00  0.00    +0.159 HD
ATOM      9  H   UNL     1      -2.141   1.021  17.855  0.00  0.00    +0.159 HD
ENDROOT
BRANCH   1  10
ATOM     10  C   UNL     1      -4.027   2.601  20.860  0.00  0.00    +0.151 C 
BRANCH  10  11
ATOM     11  C   UNL     1      -5.010   2.536  21.996  0.00  0.00    -0.028 A 
ATOM     12  C   UNL     1      -6.363   2.839  21.786  0.00  0.00    +0.005 A 
ATOM     13  C   UNL     1      -4.595   2.167  23.285  0.00  0.00    +0.005 A 
ATOM     14  C   UNL     1      -7.281   2.750  22.835  0.00  0.00    +0.000 A 
ATOM     15  C   UNL     1      -5.514   2.080  24.330  0.00  0.00    +0.000 A 
ATOM     16  C   UNL     1      -6.858   2.370  24.104  0.00  0.00    +0.000 A 
ENDBRANCH  10  11
ENDBRANCH   1  10
TORSDOF 2
ENDMDL
MODEL 6
REMARK VINA RESULT:    -4.943     22.908     24.579
REMARK INTER + INTRA:          -5.647
REMARK INTER:                  -5.480
REMARK INTRA:                  -0.168
REMARK UNBOUND:                -0.126
REMARK  Name = 1550473
REMARK  2 active torsions:
REMARK  status: ('A' for Active; 'I' for Inactive)
REMARK    1  A    between atoms: N_1  and  C_4
REMARK    2  A    between atoms: C_4  and  C_5
REMARK                            x       y       z     vdW  Elec       q    Type
REMARK                         _______ _______ _______ _____ _____    ______ ____
ROOT
ATOM      1  N   UNL     1      -7.248   1.601  22.761  0.00  0.00    -0.354 N 
ATOM      2  N   UNL     1      -7.726   1.244  24.999  0.00  0.00    -0.372 N 
ATOM      3  N   UNL     1      -7.377   3.391  24.267  0.00  0.00    -0.372 N 
ATOM      4  C   UNL     1      -7.447   2.084  23.994  0.00  0.00    +0.166 C 
ATOM      5  H   UNL     1      -7.285   0.597  22.625  0.00  0.00    +0.163 HD
ATOM      6  H   UNL     1      -7.884   1.580  25.939  0.00  0.00    +0.159 HD
ATOM      7  H   UNL     1      -7.807   0.246  24.852  0.00  0.00    +0.159 HD
ATOM      8  H   UNL     1      -7.165   4.076  23.554  0.00  0.00    +0.159 HD
ATOM      9  H   UNL     1      -7.521   3.745  25.204  0.00  0.00    +0.159 HD
ENDROOT
BRANCH   1  10
ATOM     10  C   UNL     1      -6.992   2.434  21.587  0.00  0.00    +0.151 C 
BRANCH  10  11
ATOM     11  C   UNL     1      -5.542   2.317  21.209  0.00  0.00    -0.028 A 
ATOM     12  C   UNL     1      -5.143   1.457  20.175  0.00  0.00    +0.005 A 
ATOM     13  C   UNL     1      -4.562   3.068  21.877  0.00  0.00    +0.005 A 
ATOM     14  C   UNL     1      -3.799   1.371  19.803  0.00  0.00    +0.000 A 
ATOM     15  C   UNL     1      -3.221   2.978  21.503  0.00  0.00    +0.000 A 
ATOM     16  C   UNL     1      -2.840   2.131  20.465  0.00  0.00    +0.000 A 
ENDBRANCH  10  11
ENDBRANCH   1  10
TORSDOF 2
ENDMDL
MODEL 7
REMARK VINA RESULT:    -4.804     21.414     22.587
REMARK INTER + INTRA:          -5.492
REMARK INTER:                  -5.359
REMARK INTRA:                  -0.133
REMARK UNBOUND:                -0.126
REMARK  Name = 1550473
REMARK  2 active torsions:
REMARK  status: ('A' for Active; 'I' for Inactive)
REMARK    1  A    between atoms: N_1  and  C_4
REMARK    2  A    between atoms: C_4  and  C_5
REMARK                            x       y       z     vdW  Elec       q    Type
REMARK                         _______ _______ _______ _____ _____    ______ ____
ROOT
ATOM      1  N   UNL     1      -4.755   0.775  17.636  0.00  0.00    -0.354 N 
ATOM      2  N   UNL     1      -6.210   0.082  15.973  0.00  0.00    -0.372 N 
ATOM      3  N   UNL     1      -4.483   1.488  15.421  0.00  0.00    -0.372 N 
ATOM      4  C   UNL     1      -5.138   0.788  16.353  0.00  0.00    +0.166 C 
ATOM      5  H   UNL     1      -5.312   0.248  18.299  0.00  0.00    +0.163 HD
ATOM      6  H   UNL     1      -6.521   0.070  15.011  0.00  0.00    +0.159 HD
ATOM      7  H   UNL     1      -6.738  -0.480  16.629  0.00  0.00    +0.159 HD
ATOM      8  H   UNL     1      -3.670   2.047  15.643  0.00  0.00    +0.159 HD
ATOM      9  H   UNL     1      -4.786   1.498  14.455  0.00  0.00    +0.159 HD
ENDROOT
BRANCH   1  10
ATOM     10  C   UNL     1      -3.571   1.466  18.143  0.00  0.00    +0.151 C 
BRANCH  10  11
ATOM     11  C   UNL     1      -3.834   1.923  19.552  0.00  0.00    -0.028 A 
ATOM     12  C   UNL     1      -5.055   1.633  20.178  0.00  0.00    +0.005 A 
ATOM     13  C   UNL     1      -2.864   2.641  20.267  0.00  0.00    +0.005 A 
ATOM     14  C   UNL     1      -5.289   2.030  21.496  0.00  0.00    +0.000 A 
ATOM     15  C   UNL     1      -3.101   3.037  21.584  0.00  0.00    +0.000 A 
ATOM     16  C   UNL     1      -4.312   2.729  22.198  0.00  0.00    +0.000 A 
ENDBRANCH  10  11
ENDBRANCH   1  10
TORSDOF 2
ENDMDL
MODEL 8
REMARK VINA RESULT:    -4.709     12.025     13.446
REMARK INTER + INTRA:          -5.386
REMARK INTER:                  -5.221
REMARK INTRA:                  -0.165
REMARK UNBOUND:                -0.126
REMARK  Name = 1550473
REMARK  2 active torsions:
REMARK  status: ('A' for Active; 'I' for Inactive)
REMARK    1  A    between atoms: N_1  and  C_4
REMARK    2  A    between atoms: C_4  and  C_5
REMARK                            x       y       z     vdW  Elec       q    Type
REMARK                         _______ _______ _______ _____ _____    ______ ____
ROOT
ATOM      1  N   UNL     1       6.837  -4.197  23.713  0.00  0.00    -0.354 N 
ATOM      2  N   UNL     1       8.785  -4.152  24.966  0.00  0.00    -0.372 N 
ATOM      3  N   UNL     1       8.218  -6.085  23.867  0.00  0.00    -0.372 N 
ATOM      4  C   UNL     1       7.934  -4.814  24.173  0.00  0.00    +0.166 C 
ATOM      5  H   UNL     1       6.664  -3.243  24.007  0.00  0.00    +0.163 HD
ATOM      6  H   UNL     1       9.622  -4.590  25.326  0.00  0.00    +0.159 HD
ATOM      7  H   UNL     1       8.632  -3.184  25.220  0.00  0.00    +0.159 HD
ATOM      8  H   UNL     1       7.613  -6.641  23.278  0.00  0.00    +0.159 HD
ATOM      9  H   UNL     1       9.045  -6.545  24.226  0.00  0.00    +0.159 HD
ENDROOT
BRANCH   1  10
ATOM     10  C   UNL     1       5.875  -4.812  22.800  0.00  0.00    +0.151 C 
BRANCH  10  11
ATOM     11  C   UNL     1       6.050  -4.218  21.430  0.00  0.00    -0.028 A 
ATOM     12  C   UNL     1       6.235  -5.047  20.313  0.00  0.00    +0.005 A 
ATOM     13  C   UNL     1       6.027  -2.828  21.240  0.00  0.00    +0.005 A 
ATOM     14  C   UNL     1       6.367  -4.497  19.036  0.00  0.00    +0.000 A 
ATOM     15  C   UNL     1       6.160  -2.283  19.963  0.00  0.00    +0.000 A 
ATOM     16  C   UNL     1       6.328  -3.118  18.861  0.00  0.00    +0.000 A 
ENDBRANCH  10  11
ENDBRANCH   1  10
TORSDOF 2
ENDMDL
MODEL 9
REMARK VINA RESULT:    -4.668     18.726     19.711
REMARK INTER + INTRA:          -5.340
REMARK INTER:                  -5.173
REMARK INTRA:                  -0.168
REMARK UNBOUND:                -0.126
REMARK  Name = 1550473
REMARK  2 active torsions:
REMARK  status: ('A' for Active; 'I' for Inactive)
REMARK    1  A    between atoms: N_1  and  C_4
REMARK    2  A    between atoms: C_4  and  C_5
REMARK                            x       y       z     vdW  Elec       q    Type
REMARK                         _______ _______ _______ _____ _____    ______ ____
ROOT
ATOM      1  N   UNL     1      14.405   9.128   8.581  0.00  0.00    -0.354 N 
ATOM      2  N   UNL     1      16.350   8.225   9.454  0.00  0.00    -0.372 N 
ATOM      3  N   UNL     1      15.207   7.052   7.847  0.00  0.00    -0.372 N 
ATOM      4  C   UNL     1      15.307   8.139   8.620  0.00  0.00    +0.166 C 
ATOM      5  H   UNL     1      14.521   9.911   9.214  0.00  0.00    +0.163 HD
ATOM      6  H   UNL     1      17.049   7.496   9.503  0.00  0.00    +0.159 HD
ATOM      7  H   UNL     1      16.489   9.030  10.053  0.00  0.00    +0.159 HD
ATOM      8  H   UNL     1      14.440   6.924   7.201  0.00  0.00    +0.159 HD
ATOM      9  H   UNL     1      15.890   6.306   7.890  0.00  0.00    +0.159 HD
ENDROOT
BRANCH   1  10
ATOM     10  C   UNL     1      13.262   9.157   7.670  0.00  0.00    +0.151 C 
BRANCH  10  11
ATOM     11  C   UNL     1      12.064   8.570   8.365  0.00  0.00    -0.028 A 
ATOM     12  C   UNL     1      11.443   7.418   7.862  0.00  0.00    +0.005 A 
ATOM     13  C   UNL     1      11.550   9.157   9.532  0.00  0.00    +0.005 A 
ATOM     14  C   UNL     1      10.349   6.854   8.524  0.00  0.00    +0.000 A 
ATOM     15  C   UNL     1      10.458   8.593  10.189  0.00  0.00    +0.000 A 
ATOM     16  C   UNL     1       9.859   7.440   9.687  0.00  0.00    +0.000 A 
ENDBRANCH  10  11
ENDBRANCH   1  10
TORSDOF 2
ENDMDL
