MODEL 1
REMARK VINA RESULT:    -5.406      0.000      0.000
REMARK INTER + INTRA:          -6.179
REMARK INTER:                  -6.038
REMARK INTRA:                  -0.141
REMARK UNBOUND:                -0.141
REMARK  Name = 1550473
REMARK  2 active torsions:
REMARK  status: ('A' for Active; 'I' for Inactive)
REMARK    1  A    between atoms: N_1  and  C_4
REMARK    2  A    between atoms: C_4  and  C_5
REMARK                            x       y       z     vdW  Elec       q    Type
REMARK                         _______ _______ _______ _____ _____    ______ ____
ROOT
ATOM      1  N   UNL     1      -3.898   6.023  13.046  0.00  0.00    -0.354 N 
ATOM      2  N   UNL     1      -2.594   4.720  14.448  0.00  0.00    -0.372 N 
ATOM      3  N   UNL     1      -4.804   4.173  14.163  0.00  0.00    -0.372 N 
ATOM      4  C   UNL     1      -3.777   4.979  13.877  0.00  0.00    +0.166 C 
ATOM      5  H   UNL     1      -3.089   6.614  12.894  0.00  0.00    +0.163 HD
ATOM      6  H   UNL     1      -2.471   3.937  15.076  0.00  0.00    +0.159 HD
ATOM      7  H   UNL     1      -1.775   5.285  14.258  0.00  0.00    +0.159 HD
ATOM      8  H   UNL     1      -5.725   4.318  13.770  0.00  0.00    +0.159 HD
ATOM      9  H   UNL     1      -4.704   3.391  14.799  0.00  0.00    +0.159 HD
ENDROOT
BRANCH   1  10
ATOM     10  C   UNL     1      -5.128   6.360  12.332  0.00  0.00    +0.151 C 
BRANCH  10  11
ATOM     11  C   UNL     1      -5.903   7.368  13.135  0.00  0.00    -0.028 A 
ATOM     12  C   UNL     1      -7.305   7.339  13.153  0.00  0.00    +0.005 A 
ATOM     13  C   UNL     1      -5.240   8.352  13.886  0.00  0.00    +0.005 A 
ATOM     14  C   UNL     1      -8.024   8.256  13.923  0.00  0.00    +0.000 A 
ATOM     15  C   UNL     1      -5.962   9.266  14.652  0.00  0.00    +0.000 A 
ATOM     16  C   UNL     1      -7.353   9.217  14.673  0.00  0.00    +0.000 A 
ENDBRANCH  10  11
ENDBRANCH   1  10
TORSDOF 2
ENDMDL
MODEL 2
REMARK VINA RESULT:    -5.388      3.003      3.691
REMARK INTER + INTRA:          -6.159
REMARK INTER:                  -6.024
REMARK INTRA:                  -0.135
REMARK UNBOUND:                -0.141
REMARK  Name = 1550473
REMARK  2 active torsions:
REMARK  status: ('A' for Active; 'I' for Inactive)
REMARK    1  A    between atoms: N_1  and  C_4
REMARK    2  A    between atoms: C_4  and  C_5
REMARK                            x       y       z     vdW  Elec       q    Type
REMARK                         _______ _______ _______ _____ _____    ______ ____
ROOT
ATOM      1  N   UNL     1      -5.176   4.845  13.663  0.00  0.00    -0.354 N 
ATOM      2  N   UNL     1      -2.975   4.869  14.385  0.00  0.00    -0.372 N 
ATOM      3  N   UNL     1      -4.099   2.870  14.321  0.00  0.00    -0.372 N 
ATOM      4  C   UNL     1      -4.098   4.192  14.119  0.00  0.00    +0.166 C 
ATOM      5  H   UNL     1      -5.120   5.851  13.559  0.00  0.00    +0.163 HD
ATOM      6  H   UNL     1      -2.145   4.403  14.727  0.00  0.00    +0.159 HD
ATOM      7  H   UNL     1      -2.908   5.869  14.237  0.00  0.00    +0.159 HD
ATOM      8  H   UNL     1      -4.917   2.302  14.146  0.00  0.00    +0.159 HD
ATOM      9  H   UNL     1      -3.282   2.387  14.674  0.00  0.00    +0.159 HD
ENDROOT
BRANCH   1  10
ATOM     10  C   UNL     1      -6.430   4.193  13.292  0.00  0.00    +0.151 C 
BRANCH  10  11
ATOM     11  C   UNL     1      -7.013   4.893  12.095  0.00  0.00    -0.028 A 
ATOM     12  C   UNL     1      -6.220   5.746  11.314  0.00  0.00    +0.005 A 
ATOM     13  C   UNL     1      -8.355   4.703  11.734  0.00  0.00    +0.005 A 
ATOM     14  C   UNL     1      -6.752   6.374  10.185  0.00  0.00    +0.000 A 
ATOM     15  C   UNL     1      -8.883   5.332  10.606  0.00  0.00    +0.000 A 
ATOM     16  C   UNL     1      -8.080   6.165   9.831  0.00  0.00    +0.000 A 
ENDBRANCH  10  11
ENDBRANCH   1  10
TORSDOF 2
ENDMDL
MODEL 3
REMARK VINA RESULT:    -5.302      2.859      3.919
REMARK INTER + INTRA:          -6.063
REMARK INTER:                  -5.922
REMARK INTRA:                  -0.141
REMARK UNBOUND:                -0.141
REMARK  Name = 1550473
REMARK  2 active torsions:
REMARK  status: ('A' for Active; 'I' for Inactive)
REMARK    1  A    between atoms: N_1  and  C_4
REMARK    2  A    between atoms: C_4  and  C_5
REMARK                            x       y       z     vdW  Elec       q    Type
REMARK                         _______ _______ _______ _____ _____    ______ ____
ROOT
ATOM      1  N   UNL     1      -6.342   2.653  13.553  0.00  0.00    -0.354 N 
ATOM      2  N   UNL     1      -5.598   2.044  15.660  0.00  0.00    -0.372 N 
ATOM      3  N   UNL     1      -4.124   3.032  14.206  0.00  0.00    -0.372 N 
ATOM      4  C   UNL     1      -5.357   2.581  14.458  0.00  0.00    +0.166 C 
ATOM      5  H   UNL     1      -7.247   2.266  13.795  0.00  0.00    +0.163 HD
ATOM      6  H   UNL     1      -4.876   1.979  16.364  0.00  0.00    +0.159 HD
ATOM      7  H   UNL     1      -6.516   1.699  15.915  0.00  0.00    +0.159 HD
ATOM      8  H   UNL     1      -3.876   3.443  13.316  0.00  0.00    +0.159 HD
ATOM      9  H   UNL     1      -3.384   2.966  14.894  0.00  0.00    +0.159 HD
ENDROOT
BRANCH   1  10
ATOM     10  C   UNL     1      -6.198   3.268  12.235  0.00  0.00    +0.151 C 
BRANCH  10  11
ATOM     11  C   UNL     1      -7.241   4.340  12.076  0.00  0.00    -0.028 A 
ATOM     12  C   UNL     1      -7.391   5.337  13.052  0.00  0.00    +0.005 A 
ATOM     13  C   UNL     1      -8.078   4.368  10.950  0.00  0.00    +0.005 A 
ATOM     14  C   UNL     1      -8.339   6.350  12.890  0.00  0.00    +0.000 A 
ATOM     15  C   UNL     1      -9.024   5.381  10.793  0.00  0.00    +0.000 A 
ATOM     16  C   UNL     1      -9.152   6.373  11.762  0.00  0.00    +0.000 A 
ENDBRANCH  10  11
ENDBRANCH   1  10
TORSDOF 2
ENDMDL
MODEL 4
REMARK VINA RESULT:    -5.232      2.585      4.680
REMARK INTER + INTRA:          -5.985
REMARK INTER:                  -5.873
REMARK INTRA:                  -0.112
REMARK UNBOUND:                -0.141
REMARK  Name = 1550473
REMARK  2 active torsions:
REMARK  status: ('A' for Active; 'I' for Inactive)
REMARK    1  A    between atoms: N_1  and  C_4
REMARK    2  A    between atoms: C_4  and  C_5
REMARK                            x       y       z     vdW  Elec       q    Type
REMARK                         _______ _______ _______ _____ _____    ______ ____
ROOT
ATOM      1  N   UNL     1      -5.047   6.951  13.884  0.00  0.00    -0.354 N 
ATOM      2  N   UNL     1      -5.859   8.676  15.199  0.00  0.00    -0.372 N 
ATOM      3  N   UNL     1      -4.731   9.190  13.268  0.00  0.00    -0.372 N 
ATOM      4  C   UNL     1      -5.206   8.263  14.106  0.00  0.00    +0.166 C 
ATOM      5  H   UNL     1      -5.404   6.299  14.573  0.00  0.00    +0.163 HD
ATOM      6  H   UNL     1      -5.997   9.659  15.392  0.00  0.00    +0.159 HD
ATOM      7  H   UNL     1      -6.255   8.021  15.863  0.00  0.00    +0.159 HD
ATOM      8  H   UNL     1      -4.224   8.944  12.429  0.00  0.00    +0.159 HD
ATOM      9  H   UNL     1      -4.849  10.179  13.450  0.00  0.00    +0.159 HD
ENDROOT
BRANCH   1  10
ATOM     10  C   UNL     1      -4.398   6.396  12.697  0.00  0.00    +0.151 C 
BRANCH  10  11
ATOM     11  C   UNL     1      -5.156   5.178  12.248  0.00  0.00    -0.028 A 
ATOM     12  C   UNL     1      -4.759   3.898  12.664  0.00  0.00    +0.005 A 
ATOM     13  C   UNL     1      -6.276   5.296  11.410  0.00  0.00    +0.005 A 
ATOM     14  C   UNL     1      -5.481   2.769  12.271  0.00  0.00    +0.000 A 
ATOM     15  C   UNL     1      -6.993   4.166  11.019  0.00  0.00    +0.000 A 
ATOM     16  C   UNL     1      -6.597   2.902  11.452  0.00  0.00    +0.000 A 
ENDBRANCH  10  11
ENDBRANCH   1  10
TORSDOF 2
ENDMDL
MODEL 5
REMARK VINA RESULT:    -5.114     25.275     26.572
REMARK INTER + INTRA:          -5.853
REMARK INTER:                  -5.703
REMARK INTRA:                  -0.150
REMARK UNBOUND:                -0.141
REMARK  Name = 1550473
REMARK  2 active torsions:
REMARK  status: ('A' for Active; 'I' for Inactive)
REMARK    1  A    between atoms: N_1  and  C_4
REMARK    2  A    between atoms: C_4  and  C_5
REMARK                            x       y       z     vdW  Elec       q    Type
REMARK                         _______ _______ _______ _____ _____    ______ ____
ROOT
ATOM      1  N   UNL     1      14.737  -5.459   0.102  0.00  0.00    -0.354 N 
ATOM      2  N   UNL     1      16.075  -3.799   1.007  0.00  0.00    -0.372 N 
ATOM      3  N   UNL     1      16.366  -5.964   1.708  0.00  0.00    -0.372 N 
ATOM      4  C   UNL     1      15.718  -5.087   0.935  0.00  0.00    +0.166 C 
ATOM      5  H   UNL     1      14.265  -4.741  -0.436  0.00  0.00    +0.163 HD
ATOM      6  H   UNL     1      16.814  -3.489   1.624  0.00  0.00    +0.159 HD
ATOM      7  H   UNL     1      15.632  -3.091   0.435  0.00  0.00    +0.159 HD
ATOM      8  H   UNL     1      16.141  -6.950   1.705  0.00  0.00    +0.159 HD
ATOM      9  H   UNL     1      17.101  -5.672   2.341  0.00  0.00    +0.159 HD
ENDROOT
BRANCH   1  10
ATOM     10  C   UNL     1      14.310  -6.843  -0.092  0.00  0.00    +0.151 C 
BRANCH  10  11
ATOM     11  C   UNL     1      12.864  -6.971   0.302  0.00  0.00    -0.028 A 
ATOM     12  C   UNL     1      12.327  -8.220   0.647  0.00  0.00    +0.005 A 
ATOM     13  C   UNL     1      12.027  -5.845   0.339  0.00  0.00    +0.005 A 
ATOM     14  C   UNL     1      10.992  -8.334   1.042  0.00  0.00    +0.000 A 
ATOM     15  C   UNL     1      10.694  -5.963   0.733  0.00  0.00    +0.000 A 
ATOM     16  C   UNL     1      10.178  -7.207   1.087  0.00  0.00    +0.000 A 
ENDBRANCH  10  11
ENDBRANCH   1  10
TORSDOF 2
ENDMDL
MODEL 6
REMARK VINA RESULT:    -5.040      3.887      5.143
REMARK INTER + INTRA:          -5.770
REMARK INTER:                  -5.685
REMARK INTRA:                  -0.085
REMARK UNBOUND:                -0.141
REMARK  Name = 1550473
REMARK  2 active torsions:
REMARK  status: ('A' for Active; 'I' for Inactive)
REMARK    1  A    between atoms: N_1  and  C_4
REMARK    2  A    between atoms: C_4  and  C_5
REMARK                            x       y       z     vdW  Elec       q    Type
REMARK                         _______ _______ _______ _____ _____    ______ ____
ROOT
ATOM      1  N   UNL     1      -7.631   4.549  10.891  0.00  0.00    -0.354 N 
ATOM      2  N   UNL     1      -9.625   5.555  11.503  0.00  0.00    -0.372 N 
ATOM      3  N   UNL     1      -9.037   3.568  12.488  0.00  0.00    -0.372 N 
ATOM      4  C   UNL     1      -8.752   4.548  11.625  0.00  0.00    +0.166 C 
ATOM      5  H   UNL     1      -7.487   5.306  10.232  0.00  0.00    +0.163 HD
ATOM      6  H   UNL     1     -10.478   5.583  12.046  0.00  0.00    +0.159 HD
ATOM      7  H   UNL     1      -9.457   6.334  10.877  0.00  0.00    +0.159 HD
ATOM      8  H   UNL     1      -8.422   2.776  12.622  0.00  0.00    +0.159 HD
ATOM      9  H   UNL     1      -9.891   3.572  13.031  0.00  0.00    +0.159 HD
ENDROOT
BRANCH   1  10
ATOM     10  C   UNL     1      -6.589   3.528  10.988  0.00  0.00    +0.151 C 
BRANCH  10  11
ATOM     11  C   UNL     1      -5.697   3.845  12.156  0.00  0.00    -0.028 A 
ATOM     12  C   UNL     1      -5.248   5.156  12.373  0.00  0.00    +0.005 A 
ATOM     13  C   UNL     1      -5.301   2.841  13.052  0.00  0.00    +0.005 A 
ATOM     14  C   UNL     1      -4.443   5.457  13.474  0.00  0.00    +0.000 A 
ATOM     15  C   UNL     1      -4.497   3.145  14.151  0.00  0.00    +0.000 A 
ATOM     16  C   UNL     1      -4.071   4.454  14.363  0.00  0.00    +0.000 A 
ENDBRANCH  10  11
ENDBRANCH   1  10
TORSDOF 2
ENDMDL
MODEL 7
REMARK VINA RESULT:    -5.025     25.246     26.835
REMARK INTER + INTRA:          -5.754
REMARK INTER:                  -5.611
REMARK INTRA:                  -0.143
REMARK UNBOUND:                -0.141
REMARK  Name = 1550473
REMARK  2 active torsions:
REMARK  status: ('A' for Active; 'I' for Inactive)
REMARK    1  A    between atoms: N_1  and  C_4
REMARK    2  A    between atoms: C_4  and  C_5
REMARK                            x       y       z     vdW  Elec       q    Type
REMARK                         _______ _______ _______ _____ _____    ______ ____
ROOT
ATOM      1  N   UNL     1      13.911  -9.455   0.914  0.00  0.00    -0.354 N 
ATOM      2  N   UNL     1      14.899 -11.131   2.169  0.00  0.00    -0.372 N 
ATOM      3  N   UNL     1      15.876  -9.055   2.127  0.00  0.00    -0.372 N 
ATOM      4  C   UNL     1      14.891  -9.867   1.729  0.00  0.00    +0.166 C 
ATOM      5  H   UNL     1      13.211 -10.128   0.624  0.00  0.00    +0.163 HD
ATOM      6  H   UNL     1      15.624 -11.470   2.788  0.00  0.00    +0.159 HD
ATOM      7  H   UNL     1      14.173 -11.789   1.915  0.00  0.00    +0.159 HD
ATOM      8  H   UNL     1      15.930  -8.091   1.826  0.00  0.00    +0.159 HD
ATOM      9  H   UNL     1      16.616  -9.379   2.737  0.00  0.00    +0.159 HD
ENDROOT
BRANCH   1  10
ATOM     10  C   UNL     1      13.780  -8.085   0.421  0.00  0.00    +0.151 C 
BRANCH  10  11
ATOM     11  C   UNL     1      12.388  -7.591   0.705  0.00  0.00    -0.028 A 
ATOM     12  C   UNL     1      12.080  -6.227   0.597  0.00  0.00    +0.005 A 
ATOM     13  C   UNL     1      11.371  -8.484   1.078  0.00  0.00    +0.005 A 
ATOM     14  C   UNL     1      10.780  -5.773   0.832  0.00  0.00    +0.000 A 
ATOM     15  C   UNL     1      10.075  -8.026   1.313  0.00  0.00    +0.000 A 
ATOM     16  C   UNL     1       9.779  -6.670   1.187  0.00  0.00    +0.000 A 
ENDBRANCH  10  11
ENDBRANCH   1  10
TORSDOF 2
ENDMDL
MODEL 8
REMARK VINA RESULT:    -5.007      4.098      4.809
REMARK INTER + INTRA:          -5.733
REMARK INTER:                  -5.595
REMARK INTRA:                  -0.137
REMARK UNBOUND:                -0.141
REMARK  Name = 1550473
REMARK  2 active torsions:
REMARK  status: ('A' for Active; 'I' for Inactive)
REMARK    1  A    between atoms: N_1  and  C_4
REMARK    2  A    between atoms: C_4  and  C_5
REMARK                            x       y       z     vdW  Elec       q    Type
REMARK                         _______ _______ _______ _____ _____    ______ ____
ROOT
ATOM      1  N   UNL     1      -7.507   4.324  12.943  0.00  0.00    -0.354 N 
ATOM      2  N   UNL     1      -5.935   3.439  14.395  0.00  0.00    -0.372 N 
ATOM      3  N   UNL     1      -7.377   2.014  13.320  0.00  0.00    -0.372 N 
ATOM      4  C   UNL     1      -6.952   3.262  13.543  0.00  0.00    +0.166 C 
ATOM      5  H   UNL     1      -7.159   5.246  13.177  0.00  0.00    +0.163 HD
ATOM      6  H   UNL     1      -5.494   2.657  14.860  0.00  0.00    +0.159 HD
ATOM      7  H   UNL     1      -5.559   4.358  14.593  0.00  0.00    +0.159 HD
ATOM      8  H   UNL     1      -8.145   1.814  12.692  0.00  0.00    +0.159 HD
ATOM      9  H   UNL     1      -6.956   1.220  13.785  0.00  0.00    +0.159 HD
ENDROOT
BRANCH   1  10
ATOM     10  C   UNL     1      -8.583   4.235  11.957  0.00  0.00    +0.151 C 
BRANCH  10  11
ATOM     11  C   UNL     1      -8.261   5.135  10.796  0.00  0.00    -0.028 A 
ATOM     12  C   UNL     1      -6.935   5.298  10.370  0.00  0.00    +0.005 A 
ATOM     13  C   UNL     1      -9.277   5.821  10.114  0.00  0.00    +0.005 A 
ATOM     14  C   UNL     1      -6.637   6.110   9.272  0.00  0.00    +0.000 A 
ATOM     15  C   UNL     1      -8.976   6.631   9.019  0.00  0.00    +0.000 A 
ATOM     16  C   UNL     1      -7.657   6.773   8.597  0.00  0.00    +0.000 A 
ENDBRANCH  10  11
ENDBRANCH   1  10
TORSDOF 2
ENDMDL
MODEL 9
REMARK VINA RESULT:    -5.003      5.220      6.784
REMARK INTER + INTRA:          -5.729
REMARK INTER:                  -5.594
REMARK INTRA:                  -0.135
REMARK UNBOUND:                -0.141
REMARK  Name = 1550473
REMARK  2 active torsions:
REMARK  status: ('A' for Active; 'I' for Inactive)
REMARK    1  A    between atoms: N_1  and  C_4
REMARK    2  A    between atoms: C_4  and  C_5
REMARK                            x       y       z     vdW  Elec       q    Type
REMARK                         _______ _______ _______ _____ _____    ______ ____
ROOT
ATOM      1  N   UNL     1      -8.595  12.507  13.205  0.00  0.00    -0.354 N 
ATOM      2  N   UNL     1     -10.009  13.779  11.884  0.00  0.00    -0.372 N 
ATOM      3  N   UNL     1     -10.923  12.319  13.401  0.00  0.00    -0.372 N 
ATOM      4  C   UNL     1      -9.835  12.858  12.840  0.00  0.00    +0.166 C 
ATOM      5  H   UNL     1      -7.812  12.930  12.721  0.00  0.00    +0.163 HD
ATOM      6  H   UNL     1     -10.933  14.067  11.590  0.00  0.00    +0.159 HD
ATOM      7  H   UNL     1      -9.225  14.234  11.434  0.00  0.00    +0.159 HD
ATOM      8  H   UNL     1     -10.860  11.615  14.123  0.00  0.00    +0.159 HD
ATOM      9  H   UNL     1     -11.856  12.586  13.112  0.00  0.00    +0.159 HD
ENDROOT
BRANCH   1  10
ATOM     10  C   UNL     1      -8.297  11.553  14.273  0.00  0.00    +0.151 C 
BRANCH  10  11
ATOM     11  C   UNL     1      -7.103  10.729  13.875  0.00  0.00    -0.028 A 
ATOM     12  C   UNL     1      -6.639   9.701  14.709  0.00  0.00    +0.005 A 
ATOM     13  C   UNL     1      -6.436  10.967  12.664  0.00  0.00    +0.005 A 
ATOM     14  C   UNL     1      -5.549   8.915  14.326  0.00  0.00    +0.000 A 
ATOM     15  C   UNL     1      -5.348  10.181  12.286  0.00  0.00    +0.000 A 
ATOM     16  C   UNL     1      -4.906   9.153  13.116  0.00  0.00    +0.000 A 
ENDBRANCH  10  11
ENDBRANCH   1  10
TORSDOF 2
ENDMDL
