MODEL 1
REMARK VINA RESULT:    -5.254      0.000      0.000
REMARK INTER + INTRA:          -5.973
REMARK INTER:                  -5.868
REMARK INTRA:                  -0.105
REMARK UNBOUND:                -0.105
REMARK  Name = 1550473
REMARK  2 active torsions:
REMARK  status: ('A' for Active; 'I' for Inactive)
REMARK    1  A    between atoms: N_1  and  C_4
REMARK    2  A    between atoms: C_4  and  C_5
REMARK                            x       y       z     vdW  Elec       q    Type
REMARK                         _______ _______ _______ _____ _____    ______ ____
ROOT
ATOM      1  N   UNL     1       7.690  11.022  30.569  0.00  0.00    -0.354 N 
ATOM      2  N   UNL     1       7.430   9.201  29.163  0.00  0.00    -0.372 N 
ATOM      3  N   UNL     1       6.519  11.215  28.548  0.00  0.00    -0.372 N 
ATOM      4  C   UNL     1       7.213  10.493  29.435  0.00  0.00    +0.166 C 
ATOM      5  H   UNL     1       8.182  10.415  31.214  0.00  0.00    +0.163 HD
ATOM      6  H   UNL     1       7.086   8.774  28.313  0.00  0.00    +0.159 HD
ATOM      7  H   UNL     1       7.962   8.607  29.787  0.00  0.00    +0.159 HD
ATOM      8  H   UNL     1       6.316  12.194  28.697  0.00  0.00    +0.159 HD
ATOM      9  H   UNL     1       6.156  10.803  27.698  0.00  0.00    +0.159 HD
ENDROOT
BRANCH   1  10
ATOM     10  C   UNL     1       7.555  12.431  30.934  0.00  0.00    +0.151 C 
BRANCH  10  11
ATOM     11  C   UNL     1       8.190  12.653  32.279  0.00  0.00    -0.028 A 
ATOM     12  C   UNL     1       7.841  11.848  33.373  0.00  0.00    +0.005 A 
ATOM     13  C   UNL     1       9.146  13.664  32.464  0.00  0.00    +0.005 A 
ATOM     14  C   UNL     1       8.453  12.035  34.615  0.00  0.00    +0.000 A 
ATOM     15  C   UNL     1       9.754  13.847  33.706  0.00  0.00    +0.000 A 
ATOM     16  C   UNL     1       9.409  13.031  34.781  0.00  0.00    +0.000 A 
ENDBRANCH  10  11
ENDBRANCH   1  10
TORSDOF 2
ENDMDL
MODEL 2
REMARK VINA RESULT:    -5.235     17.641     18.170
REMARK INTER + INTRA:          -5.952
REMARK INTER:                  -5.833
REMARK INTRA:                  -0.119
REMARK UNBOUND:                -0.105
REMARK  Name = 1550473
REMARK  2 active torsions:
REMARK  status: ('A' for Active; 'I' for Inactive)
REMARK    1  A    between atoms: N_1  and  C_4
REMARK    2  A    between atoms: C_4  and  C_5
REMARK                            x       y       z     vdW  Elec       q    Type
REMARK                         _______ _______ _______ _____ _____    ______ ____
ROOT
ATOM      1  N   UNL     1      24.150   4.185  27.286  0.00  0.00    -0.354 N 
ATOM      2  N   UNL     1      24.178   2.098  26.283  0.00  0.00    -0.372 N 
ATOM      3  N   UNL     1      22.741   2.469  28.033  0.00  0.00    -0.372 N 
ATOM      4  C   UNL     1      23.688   2.931  27.209  0.00  0.00    +0.166 C 
ATOM      5  H   UNL     1      24.890   4.465  26.653  0.00  0.00    +0.163 HD
ATOM      6  H   UNL     1      23.846   1.147  26.198  0.00  0.00    +0.159 HD
ATOM      7  H   UNL     1      24.885   2.395  25.621  0.00  0.00    +0.159 HD
ATOM      8  H   UNL     1      22.334   3.044  28.757  0.00  0.00    +0.159 HD
ATOM      9  H   UNL     1      22.404   1.516  27.971  0.00  0.00    +0.159 HD
ENDROOT
BRANCH   1  10
ATOM     10  C   UNL     1      23.645   5.187  28.224  0.00  0.00    +0.151 C 
BRANCH  10  11
ATOM     11  C   UNL     1      24.407   6.469  28.031  0.00  0.00    -0.028 A 
ATOM     12  C   UNL     1      23.864   7.691  28.453  0.00  0.00    +0.005 A 
ATOM     13  C   UNL     1      25.676   6.467  27.431  0.00  0.00    +0.005 A 
ATOM     14  C   UNL     1      24.585   8.878  28.301  0.00  0.00    +0.000 A 
ATOM     15  C   UNL     1      26.392   7.655  27.281  0.00  0.00    +0.000 A 
ATOM     16  C   UNL     1      25.847   8.860  27.718  0.00  0.00    +0.000 A 
ENDBRANCH  10  11
ENDBRANCH   1  10
TORSDOF 2
ENDMDL
MODEL 3
REMARK VINA RESULT:    -5.056      1.272      2.052
REMARK INTER + INTRA:          -5.752
REMARK INTER:                  -5.611
REMARK INTRA:                  -0.141
REMARK UNBOUND:                -0.105
REMARK  Name = 1550473
REMARK  2 active torsions:
REMARK  status: ('A' for Active; 'I' for Inactive)
REMARK    1  A    between atoms: N_1  and  C_4
REMARK    2  A    between atoms: C_4  and  C_5
REMARK                            x       y       z     vdW  Elec       q    Type
REMARK                         _______ _______ _______ _____ _____    ______ ____
ROOT
ATOM      1  N   UNL     1       7.436  12.350  30.714  0.00  0.00    -0.354 N 
ATOM      2  N   UNL     1       6.857  10.292  29.824  0.00  0.00    -0.372 N 
ATOM      3  N   UNL     1       5.562  11.181  31.497  0.00  0.00    -0.372 N 
ATOM      4  C   UNL     1       6.620  11.288  30.686  0.00  0.00    +0.166 C 
ATOM      5  H   UNL     1       8.239  12.357  30.095  0.00  0.00    +0.163 HD
ATOM      6  H   UNL     1       6.256   9.480  29.778  0.00  0.00    +0.159 HD
ATOM      7  H   UNL     1       7.633  10.323  29.174  0.00  0.00    +0.159 HD
ATOM      8  H   UNL     1       5.332  11.896  32.174  0.00  0.00    +0.159 HD
ATOM      9  H   UNL     1       4.956  10.371  31.473  0.00  0.00    +0.159 HD
ENDROOT
BRANCH   1  10
ATOM     10  C   UNL     1       7.236  13.513  31.577  0.00  0.00    +0.151 C 
BRANCH  10  11
ATOM     11  C   UNL     1       8.324  13.546  32.616  0.00  0.00    -0.028 A 
ATOM     12  C   UNL     1       9.223  14.622  32.670  0.00  0.00    +0.005 A 
ATOM     13  C   UNL     1       8.457  12.509  33.551  0.00  0.00    +0.005 A 
ATOM     14  C   UNL     1      10.214  14.668  33.653  0.00  0.00    +0.000 A 
ATOM     15  C   UNL     1       9.449  12.558  34.530  0.00  0.00    +0.000 A 
ATOM     16  C   UNL     1      10.326  13.639  34.583  0.00  0.00    +0.000 A 
ENDBRANCH  10  11
ENDBRANCH   1  10
TORSDOF 2
ENDMDL
MODEL 4
REMARK VINA RESULT:    -4.798      9.162      9.896
REMARK INTER + INTRA:          -5.464
REMARK INTER:                  -5.354
REMARK INTRA:                  -0.109
REMARK UNBOUND:                -0.105
REMARK  Name = 1550473
REMARK  2 active torsions:
REMARK  status: ('A' for Active; 'I' for Inactive)
REMARK    1  A    between atoms: N_1  and  C_4
REMARK    2  A    between atoms: C_4  and  C_5
REMARK                            x       y       z     vdW  Elec       q    Type
REMARK                         _______ _______ _______ _____ _____    ______ ____
ROOT
ATOM      1  N   UNL     1      13.318   8.529  38.510  0.00  0.00    -0.354 N 
ATOM      2  N   UNL     1      11.108   8.192  39.116  0.00  0.00    -0.372 N 
ATOM      3  N   UNL     1      12.296   9.867  40.140  0.00  0.00    -0.372 N 
ATOM      4  C   UNL     1      12.256   8.867  39.253  0.00  0.00    +0.166 C 
ATOM      5  H   UNL     1      13.232   7.741  37.878  0.00  0.00    +0.163 HD
ATOM      6  H   UNL     1      10.289   8.426  39.660  0.00  0.00    +0.159 HD
ATOM      7  H   UNL     1      11.012   7.435  38.450  0.00  0.00    +0.159 HD
ATOM      8  H   UNL     1      13.134  10.411  40.296  0.00  0.00    +0.159 HD
ATOM      9  H   UNL     1      11.490  10.109  40.703  0.00  0.00    +0.159 HD
ENDROOT
BRANCH   1  10
ATOM     10  C   UNL     1      14.598   9.234  38.545  0.00  0.00    +0.151 C 
BRANCH  10  11
ATOM     11  C   UNL     1      15.218   9.195  37.175  0.00  0.00    -0.028 A 
ATOM     12  C   UNL     1      15.722  10.365  36.588  0.00  0.00    +0.005 A 
ATOM     13  C   UNL     1      15.309   7.990  36.461  0.00  0.00    +0.005 A 
ATOM     14  C   UNL     1      16.325  10.323  35.328  0.00  0.00    +0.000 A 
ATOM     15  C   UNL     1      15.910   7.953  35.203  0.00  0.00    +0.000 A 
ATOM     16  C   UNL     1      16.420   9.120  34.638  0.00  0.00    +0.000 A 
ENDBRANCH  10  11
ENDBRANCH   1  10
TORSDOF 2
ENDMDL
MODEL 5
REMARK VINA RESULT:    -4.781      1.943      3.272
REMARK INTER + INTRA:          -5.445
REMARK INTER:                  -5.343
REMARK INTRA:                  -0.102
REMARK UNBOUND:                -0.105
REMARK  Name = 1550473
REMARK  2 active torsions:
REMARK  status: ('A' for Active; 'I' for Inactive)
REMARK    1  A    between atoms: N_1  and  C_4
REMARK    2  A    between atoms: C_4  and  C_5
REMARK                            x       y       z     vdW  Elec       q    Type
REMARK                         _______ _______ _______ _____ _____    ______ ____
ROOT
ATOM      1  N   UNL     1       7.557   9.333  29.076  0.00  0.00    -0.354 N 
ATOM      2  N   UNL     1       8.072   7.095  28.770  0.00  0.00    -0.372 N 
ATOM      3  N   UNL     1       7.640   8.396  26.929  0.00  0.00    -0.372 N 
ATOM      4  C   UNL     1       7.752   8.290  28.258  0.00  0.00    +0.166 C 
ATOM      5  H   UNL     1       7.628   9.180  30.075  0.00  0.00    +0.163 HD
ATOM      6  H   UNL     1       8.228   6.291  28.177  0.00  0.00    +0.159 HD
ATOM      7  H   UNL     1       8.186   6.956  29.766  0.00  0.00    +0.159 HD
ATOM      8  H   UNL     1       7.396   9.268  26.481  0.00  0.00    +0.159 HD
ATOM      9  H   UNL     1       7.782   7.600  26.320  0.00  0.00    +0.159 HD
ENDROOT
BRANCH   1  10
ATOM     10  C   UNL     1       7.259  10.688  28.616  0.00  0.00    +0.151 C 
BRANCH  10  11
ATOM     11  C   UNL     1       7.845  11.676  29.587  0.00  0.00    -0.028 A 
ATOM     12  C   UNL     1       8.811  12.601  29.166  0.00  0.00    +0.005 A 
ATOM     13  C   UNL     1       7.433  11.696  30.929  0.00  0.00    +0.005 A 
ATOM     14  C   UNL     1       9.334  13.538  30.060  0.00  0.00    +0.000 A 
ATOM     15  C   UNL     1       7.958  12.633  31.819  0.00  0.00    +0.000 A 
ATOM     16  C   UNL     1       8.906  13.555  31.383  0.00  0.00    +0.000 A 
ENDBRANCH  10  11
ENDBRANCH   1  10
TORSDOF 2
ENDMDL
MODEL 6
REMARK VINA RESULT:    -4.772     18.715     20.008
REMARK INTER + INTRA:          -5.436
REMARK INTER:                  -5.304
REMARK INTRA:                  -0.132
REMARK UNBOUND:                -0.105
REMARK  Name = 1550473
REMARK  2 active torsions:
REMARK  status: ('A' for Active; 'I' for Inactive)
REMARK    1  A    between atoms: N_1  and  C_4
REMARK    2  A    between atoms: C_4  and  C_5
REMARK                            x       y       z     vdW  Elec       q    Type
REMARK                         _______ _______ _______ _____ _____    ______ ____
ROOT
ATOM      1  N   UNL     1      24.109   3.893  25.680  0.00  0.00    -0.354 N 
ATOM      2  N   UNL     1      25.409   3.750  27.591  0.00  0.00    -0.372 N 
ATOM      3  N   UNL     1      23.139   3.463  27.769  0.00  0.00    -0.372 N 
ATOM      4  C   UNL     1      24.208   3.703  27.002  0.00  0.00    +0.166 C 
ATOM      5  H   UNL     1      24.953   4.101  25.159  0.00  0.00    +0.163 HD
ATOM      6  H   UNL     1      25.515   3.607  28.587  0.00  0.00    +0.159 HD
ATOM      7  H   UNL     1      26.256   3.912  27.061  0.00  0.00    +0.159 HD
ATOM      8  H   UNL     1      22.204   3.420  27.387  0.00  0.00    +0.159 HD
ATOM      9  H   UNL     1      23.224   3.329  28.769  0.00  0.00    +0.159 HD
ENDROOT
BRANCH   1  10
ATOM     10  C   UNL     1      22.855   3.809  24.933  0.00  0.00    +0.151 C 
BRANCH  10  11
ATOM     11  C   UNL     1      23.146   3.334  23.536  0.00  0.00    -0.028 A 
ATOM     12  C   UNL     1      24.425   2.873  23.193  0.00  0.00    +0.005 A 
ATOM     13  C   UNL     1      22.145   3.336  22.553  0.00  0.00    +0.005 A 
ATOM     14  C   UNL     1      24.688   2.403  21.904  0.00  0.00    +0.000 A 
ATOM     15  C   UNL     1      22.411   2.867  21.267  0.00  0.00    +0.000 A 
ATOM     16  C   UNL     1      23.682   2.399  20.943  0.00  0.00    +0.000 A 
ENDBRANCH  10  11
ENDBRANCH   1  10
TORSDOF 2
ENDMDL
MODEL 7
REMARK VINA RESULT:    -4.677      8.475      9.318
REMARK INTER + INTRA:          -5.329
REMARK INTER:                  -5.207
REMARK INTRA:                  -0.123
REMARK UNBOUND:                -0.105
REMARK  Name = 1550473
REMARK  2 active torsions:
REMARK  status: ('A' for Active; 'I' for Inactive)
REMARK    1  A    between atoms: N_1  and  C_4
REMARK    2  A    between atoms: C_4  and  C_5
REMARK                            x       y       z     vdW  Elec       q    Type
REMARK                         _______ _______ _______ _____ _____    ______ ____
ROOT
ATOM      1  N   UNL     1      14.507   7.017  34.082  0.00  0.00    -0.354 N 
ATOM      2  N   UNL     1      13.143   6.745  32.230  0.00  0.00    -0.372 N 
ATOM      3  N   UNL     1      13.298   5.036  33.754  0.00  0.00    -0.372 N 
ATOM      4  C   UNL     1      13.658   6.265  33.368  0.00  0.00    +0.166 C 
ATOM      5  H   UNL     1      14.763   7.929  33.720  0.00  0.00    +0.163 HD
ATOM      6  H   UNL     1      12.498   6.202  31.672  0.00  0.00    +0.159 HD
ATOM      7  H   UNL     1      13.366   7.674  31.894  0.00  0.00    +0.159 HD
ATOM      8  H   UNL     1      13.656   4.615  34.601  0.00  0.00    +0.159 HD
ATOM      9  H   UNL     1      12.663   4.473  33.203  0.00  0.00    +0.159 HD
ENDROOT
BRANCH   1  10
ATOM     10  C   UNL     1      15.081   6.610  35.363  0.00  0.00    +0.151 C 
BRANCH  10  11
ATOM     11  C   UNL     1      15.929   7.730  35.900  0.00  0.00    -0.028 A 
ATOM     12  C   UNL     1      16.677   7.558  37.073  0.00  0.00    +0.005 A 
ATOM     13  C   UNL     1      15.993   8.965  35.236  0.00  0.00    +0.005 A 
ATOM     14  C   UNL     1      17.488   8.588  37.556  0.00  0.00    +0.000 A 
ATOM     15  C   UNL     1      16.803   9.992  35.721  0.00  0.00    +0.000 A 
ATOM     16  C   UNL     1      17.552   9.802  36.879  0.00  0.00    +0.000 A 
ENDBRANCH  10  11
ENDBRANCH   1  10
TORSDOF 2
ENDMDL
MODEL 8
REMARK VINA RESULT:    -4.649      8.236      9.841
REMARK INTER + INTRA:          -5.297
REMARK INTER:                  -5.167
REMARK INTRA:                  -0.131
REMARK UNBOUND:                -0.105
REMARK  Name = 1550473
REMARK  2 active torsions:
REMARK  status: ('A' for Active; 'I' for Inactive)
REMARK    1  A    between atoms: N_1  and  C_4
REMARK    2  A    between atoms: C_4  and  C_5
REMARK                            x       y       z     vdW  Elec       q    Type
REMARK                         _______ _______ _______ _____ _____    ______ ____
ROOT
ATOM      1  N   UNL     1      10.999   9.015  38.974  0.00  0.00    -0.354 N 
ATOM      2  N   UNL     1       9.203  10.328  38.331  0.00  0.00    -0.372 N 
ATOM      3  N   UNL     1       9.424   9.758  40.542  0.00  0.00    -0.372 N 
ATOM      4  C   UNL     1       9.887   9.691  39.289  0.00  0.00    +0.166 C 
ATOM      5  H   UNL     1      11.281   8.977  38.001  0.00  0.00    +0.163 HD
ATOM      6  H   UNL     1       8.362  10.849  38.539  0.00  0.00    +0.159 HD
ATOM      7  H   UNL     1       9.512  10.327  37.366  0.00  0.00    +0.159 HD
ATOM      8  H   UNL     1       9.890   9.294  41.311  0.00  0.00    +0.159 HD
ATOM      9  H   UNL     1       8.578  10.265  40.768  0.00  0.00    +0.159 HD
ENDROOT
BRANCH   1  10
ATOM     10  C   UNL     1      11.846   8.333  39.952  0.00  0.00    +0.151 C 
BRANCH  10  11
ATOM     11  C   UNL     1      13.273   8.378  39.481  0.00  0.00    -0.028 A 
ATOM     12  C   UNL     1      14.201   7.426  39.930  0.00  0.00    +0.005 A 
ATOM     13  C   UNL     1      13.703   9.366  38.583  0.00  0.00    +0.005 A 
ATOM     14  C   UNL     1      15.520   7.450  39.470  0.00  0.00    +0.000 A 
ATOM     15  C   UNL     1      15.021   9.387  38.127  0.00  0.00    +0.000 A 
ATOM     16  C   UNL     1      15.929   8.427  38.569  0.00  0.00    +0.000 A 
ENDBRANCH  10  11
ENDBRANCH   1  10
TORSDOF 2
ENDMDL
MODEL 9
REMARK VINA RESULT:    -4.619      2.938      4.746
REMARK INTER + INTRA:          -5.264
REMARK INTER:                  -5.099
REMARK INTRA:                  -0.165
REMARK UNBOUND:                -0.105
REMARK  Name = 1550473
REMARK  2 active torsions:
REMARK  status: ('A' for Active; 'I' for Inactive)
REMARK    1  A    between atoms: N_1  and  C_4
REMARK    2  A    between atoms: C_4  and  C_5
REMARK                            x       y       z     vdW  Elec       q    Type
REMARK                         _______ _______ _______ _____ _____    ______ ____
ROOT
ATOM      1  N   UNL     1       8.054  12.547  34.015  0.00  0.00    -0.354 N 
ATOM      2  N   UNL     1       9.032  11.449  35.804  0.00  0.00    -0.372 N 
ATOM      3  N   UNL     1      10.296  12.924  34.583  0.00  0.00    -0.372 N 
ATOM      4  C   UNL     1       9.123  12.315  34.788  0.00  0.00    +0.166 C 
ATOM      5  H   UNL     1       7.202  12.031  34.204  0.00  0.00    +0.163 HD
ATOM      6  H   UNL     1       9.821  11.257  36.407  0.00  0.00    +0.159 HD
ATOM      7  H   UNL     1       8.166  10.970  36.019  0.00  0.00    +0.159 HD
ATOM      8  H   UNL     1      10.433  13.584  33.829  0.00  0.00    +0.159 HD
ATOM      9  H   UNL     1      11.101  12.735  35.168  0.00  0.00    +0.159 HD
ENDROOT
BRANCH   1  10
ATOM     10  C   UNL     1       8.033  13.511  32.916  0.00  0.00    +0.151 C 
BRANCH  10  11
ATOM     11  C   UNL     1       8.116  12.769  31.610  0.00  0.00    -0.028 A 
ATOM     12  C   UNL     1       7.411  11.571  31.426  0.00  0.00    +0.005 A 
ATOM     13  C   UNL     1       8.894  13.263  30.551  0.00  0.00    +0.005 A 
ATOM     14  C   UNL     1       7.464  10.897  30.203  0.00  0.00    +0.000 A 
ATOM     15  C   UNL     1       8.945  12.587  29.333  0.00  0.00    +0.000 A 
ATOM     16  C   UNL     1       8.228  11.405  29.158  0.00  0.00    +0.000 A 
ENDBRANCH  10  11
ENDBRANCH   1  10
TORSDOF 2
ENDMDL
