MODEL 1
REMARK VINA RESULT:    -5.513      0.000      0.000
REMARK INTER + INTRA:          -6.302
REMARK INTER:                  -6.158
REMARK INTRA:                  -0.144
REMARK UNBOUND:                -0.144
REMARK  Name = 1550473
REMARK  2 active torsions:
REMARK  status: ('A' for Active; 'I' for Inactive)
REMARK    1  A    between atoms: N_1  and  C_4
REMARK    2  A    between atoms: C_4  and  C_5
REMARK                            x       y       z     vdW  Elec       q    Type
REMARK                         _______ _______ _______ _____ _____    ______ ____
ROOT
ATOM      1  N   UNL     1      11.240   1.216  -4.740  0.00  0.00    -0.354 N 
ATOM      2  N   UNL     1      12.422  -0.763  -4.513  0.00  0.00    -0.372 N 
ATOM      3  N   UNL     1      10.884  -0.577  -6.206  0.00  0.00    -0.372 N 
ATOM      4  C   UNL     1      11.506  -0.029  -5.157  0.00  0.00    +0.166 C 
ATOM      5  H   UNL     1      11.724   1.563  -3.919  0.00  0.00    +0.163 HD
ATOM      6  H   UNL     1      12.646  -1.704  -4.807  0.00  0.00    +0.159 HD
ATOM      7  H   UNL     1      12.937  -0.398  -3.722  0.00  0.00    +0.159 HD
ATOM      8  H   UNL     1      10.178  -0.078  -6.731  0.00  0.00    +0.159 HD
ATOM      9  H   UNL     1      11.086  -1.522  -6.508  0.00  0.00    +0.159 HD
ENDROOT
BRANCH   1  10
ATOM     10  C   UNL     1      10.300   2.117  -5.403  0.00  0.00    +0.151 C 
BRANCH  10  11
ATOM     11  C   UNL     1      11.014   3.389  -5.771  0.00  0.00    -0.028 A 
ATOM     12  C   UNL     1      12.173   3.352  -6.559  0.00  0.00    +0.005 A 
ATOM     13  C   UNL     1      10.533   4.634  -5.338  0.00  0.00    +0.005 A 
ATOM     14  C   UNL     1      12.820   4.535  -6.926  0.00  0.00    +0.000 A 
ATOM     15  C   UNL     1      11.182   5.813  -5.705  0.00  0.00    +0.000 A 
ATOM     16  C   UNL     1      12.324   5.763  -6.501  0.00  0.00    +0.000 A 
ENDBRANCH  10  11
ENDBRANCH   1  10
TORSDOF 2
ENDMDL
MODEL 2
REMARK VINA RESULT:    -5.433      1.846      2.971
REMARK INTER + INTRA:          -6.212
REMARK INTER:                  -6.079
REMARK INTRA:                  -0.134
REMARK UNBOUND:                -0.144
REMARK  Name = 1550473
REMARK  2 active torsions:
REMARK  status: ('A' for Active; 'I' for Inactive)
REMARK    1  A    between atoms: N_1  and  C_4
REMARK    2  A    between atoms: C_4  and  C_5
REMARK                            x       y       z     vdW  Elec       q    Type
REMARK                         _______ _______ _______ _____ _____    ______ ____
ROOT
ATOM      1  N   UNL     1      11.484   2.893  -6.820  0.00  0.00    -0.354 N 
ATOM      2  N   UNL     1       9.902   1.363  -6.096  0.00  0.00    -0.372 N 
ATOM      3  N   UNL     1      11.176   2.463  -4.537  0.00  0.00    -0.372 N 
ATOM      4  C   UNL     1      10.866   2.250  -5.820  0.00  0.00    +0.166 C 
ATOM      5  H   UNL     1      11.223   2.665  -7.772  0.00  0.00    +0.163 HD
ATOM      6  H   UNL     1       9.415   0.866  -5.363  0.00  0.00    +0.159 HD
ATOM      7  H   UNL     1       9.612   1.171  -7.047  0.00  0.00    +0.159 HD
ATOM      8  H   UNL     1      11.898   3.115  -4.261  0.00  0.00    +0.159 HD
ATOM      9  H   UNL     1      10.709   1.966  -3.789  0.00  0.00    +0.159 HD
ENDROOT
BRANCH   1  10
ATOM     10  C   UNL     1      12.509   3.916  -6.624  0.00  0.00    +0.151 C 
BRANCH  10  11
ATOM     11  C   UNL     1      11.949   5.254  -7.020  0.00  0.00    -0.028 A 
ATOM     12  C   UNL     1      10.732   5.340  -7.713  0.00  0.00    +0.005 A 
ATOM     13  C   UNL     1      12.627   6.441  -6.701  0.00  0.00    +0.005 A 
ATOM     14  C   UNL     1      10.197   6.584  -8.055  0.00  0.00    +0.000 A 
ATOM     15  C   UNL     1      12.090   7.681  -7.045  0.00  0.00    +0.000 A 
ATOM     16  C   UNL     1      10.873   7.752  -7.719  0.00  0.00    +0.000 A 
ENDBRANCH  10  11
ENDBRANCH   1  10
TORSDOF 2
ENDMDL
MODEL 3
REMARK VINA RESULT:    -5.257      4.679      5.954
REMARK INTER + INTRA:          -6.015
REMARK INTER:                  -5.878
REMARK INTRA:                  -0.138
REMARK UNBOUND:                -0.144
REMARK  Name = 1550473
REMARK  2 active torsions:
REMARK  status: ('A' for Active; 'I' for Inactive)
REMARK    1  A    between atoms: N_1  and  C_4
REMARK    2  A    between atoms: C_4  and  C_5
REMARK                            x       y       z     vdW  Elec       q    Type
REMARK                         _______ _______ _______ _____ _____    ______ ____
ROOT
ATOM      1  N   UNL     1      10.992   6.039  -7.658  0.00  0.00    -0.354 N 
ATOM      2  N   UNL     1      11.354   3.898  -8.464  0.00  0.00    -0.372 N 
ATOM      3  N   UNL     1      13.097   5.389  -8.456  0.00  0.00    -0.372 N 
ATOM      4  C   UNL     1      11.815   5.124  -8.188  0.00  0.00    +0.166 C 
ATOM      5  H   UNL     1      10.023   5.784  -7.506  0.00  0.00    +0.163 HD
ATOM      6  H   UNL     1      11.952   3.185  -8.861  0.00  0.00    +0.159 HD
ATOM      7  H   UNL     1      10.396   3.632  -8.269  0.00  0.00    +0.159 HD
ATOM      8  H   UNL     1      13.505   6.297  -8.276  0.00  0.00    +0.159 HD
ATOM      9  H   UNL     1      13.709   4.693  -8.864  0.00  0.00    +0.159 HD
ENDROOT
BRANCH   1  10
ATOM     10  C   UNL     1      11.408   7.385  -7.270  0.00  0.00    +0.151 C 
BRANCH  10  11
ATOM     11  C   UNL     1      10.470   8.386  -7.888  0.00  0.00    -0.028 A 
ATOM     12  C   UNL     1       9.756   8.067  -9.053  0.00  0.00    +0.005 A 
ATOM     13  C   UNL     1      10.288   9.652  -7.311  0.00  0.00    +0.005 A 
ATOM     14  C   UNL     1       8.862   8.985  -9.610  0.00  0.00    +0.000 A 
ATOM     15  C   UNL     1       9.395  10.566  -7.871  0.00  0.00    +0.000 A 
ATOM     16  C   UNL     1       8.681  10.231  -9.019  0.00  0.00    +0.000 A 
ENDBRANCH  10  11
ENDBRANCH   1  10
TORSDOF 2
ENDMDL
MODEL 4
REMARK VINA RESULT:    -5.198      2.933      3.604
REMARK INTER + INTRA:          -5.950
REMARK INTER:                  -5.826
REMARK INTRA:                  -0.123
REMARK UNBOUND:                -0.144
REMARK  Name = 1550473
REMARK  2 active torsions:
REMARK  status: ('A' for Active; 'I' for Inactive)
REMARK    1  A    between atoms: N_1  and  C_4
REMARK    2  A    between atoms: C_4  and  C_5
REMARK                            x       y       z     vdW  Elec       q    Type
REMARK                         _______ _______ _______ _____ _____    ______ ____
ROOT
ATOM      1  N   UNL     1      14.022   1.926  -7.783  0.00  0.00    -0.354 N 
ATOM      2  N   UNL     1      14.834  -0.181  -7.266  0.00  0.00    -0.372 N 
ATOM      3  N   UNL     1      15.615   0.878  -9.146  0.00  0.00    -0.372 N 
ATOM      4  C   UNL     1      14.820   0.889  -8.071  0.00  0.00    +0.166 C 
ATOM      5  H   UNL     1      13.421   1.860  -6.970  0.00  0.00    +0.163 HD
ATOM      6  H   UNL     1      15.428  -0.977  -7.455  0.00  0.00    +0.159 HD
ATOM      7  H   UNL     1      14.266  -0.225  -6.429  0.00  0.00    +0.159 HD
ATOM      8  H   UNL     1      15.647   1.651  -9.796  0.00  0.00    +0.159 HD
ATOM      9  H   UNL     1      16.208   0.085  -9.359  0.00  0.00    +0.159 HD
ENDROOT
BRANCH   1  10
ATOM     10  C   UNL     1      13.972   3.160  -8.565  0.00  0.00    +0.151 C 
BRANCH  10  11
ATOM     11  C   UNL     1      13.019   4.119  -7.909  0.00  0.00    -0.028 A 
ATOM     12  C   UNL     1      12.331   3.753  -6.742  0.00  0.00    +0.005 A 
ATOM     13  C   UNL     1      12.802   5.398  -8.444  0.00  0.00    +0.005 A 
ATOM     14  C   UNL     1      11.468   4.655  -6.115  0.00  0.00    +0.000 A 
ATOM     15  C   UNL     1      11.939   6.295  -7.815  0.00  0.00    +0.000 A 
ATOM     16  C   UNL     1      11.274   5.924  -6.649  0.00  0.00    +0.000 A 
ENDBRANCH  10  11
ENDBRANCH   1  10
TORSDOF 2
ENDMDL
MODEL 5
REMARK VINA RESULT:    -4.993      2.651      3.558
REMARK INTER + INTRA:          -5.721
REMARK INTER:                  -5.572
REMARK INTRA:                  -0.150
REMARK UNBOUND:                -0.144
REMARK  Name = 1550473
REMARK  2 active torsions:
REMARK  status: ('A' for Active; 'I' for Inactive)
REMARK    1  A    between atoms: N_1  and  C_4
REMARK    2  A    between atoms: C_4  and  C_5
REMARK                            x       y       z     vdW  Elec       q    Type
REMARK                         _______ _______ _______ _____ _____    ______ ____
ROOT
ATOM      1  N   UNL     1       9.889   3.939  -4.878  0.00  0.00    -0.354 N 
ATOM      2  N   UNL     1       7.614   4.314  -4.658  0.00  0.00    -0.372 N 
ATOM      3  N   UNL     1       8.372   3.127  -6.469  0.00  0.00    -0.372 N 
ATOM      4  C   UNL     1       8.640   3.790  -5.339  0.00  0.00    +0.166 C 
ATOM      5  H   UNL     1      10.028   4.478  -4.031  0.00  0.00    +0.163 HD
ATOM      6  H   UNL     1       6.661   4.215  -4.979  0.00  0.00    +0.159 HD
ATOM      7  H   UNL     1       7.752   4.813  -3.787  0.00  0.00    +0.159 HD
ATOM      8  H   UNL     1       9.103   2.713  -7.033  0.00  0.00    +0.159 HD
ATOM      9  H   UNL     1       7.426   3.027  -6.813  0.00  0.00    +0.159 HD
ENDROOT
BRANCH   1  10
ATOM     10  C   UNL     1      11.071   3.361  -5.515  0.00  0.00    +0.151 C 
BRANCH  10  11
ATOM     11  C   UNL     1      11.700   4.393  -6.410  0.00  0.00    -0.028 A 
ATOM     12  C   UNL     1      11.700   5.747  -6.045  0.00  0.00    +0.005 A 
ATOM     13  C   UNL     1      12.303   4.022  -7.622  0.00  0.00    +0.005 A 
ATOM     14  C   UNL     1      12.311   6.702  -6.862  0.00  0.00    +0.000 A 
ATOM     15  C   UNL     1      12.911   4.978  -8.434  0.00  0.00    +0.000 A 
ATOM     16  C   UNL     1      12.917   6.318  -8.053  0.00  0.00    +0.000 A 
ENDBRANCH  10  11
ENDBRANCH   1  10
TORSDOF 2
ENDMDL
MODEL 6
REMARK VINA RESULT:    -4.943      3.669      4.556
REMARK INTER + INTRA:          -5.665
REMARK INTER:                  -5.489
REMARK INTRA:                  -0.175
REMARK UNBOUND:                -0.144
REMARK  Name = 1550473
REMARK  2 active torsions:
REMARK  status: ('A' for Active; 'I' for Inactive)
REMARK    1  A    between atoms: N_1  and  C_4
REMARK    2  A    between atoms: C_4  and  C_5
REMARK                            x       y       z     vdW  Elec       q    Type
REMARK                         _______ _______ _______ _____ _____    ______ ____
ROOT
ATOM      1  N   UNL     1       7.857   5.350  -6.250  0.00  0.00    -0.354 N 
ATOM      2  N   UNL     1       6.538   5.651  -4.370  0.00  0.00    -0.372 N 
ATOM      3  N   UNL     1       8.179   4.049  -4.328  0.00  0.00    -0.372 N 
ATOM      4  C   UNL     1       7.535   5.012  -4.994  0.00  0.00    +0.166 C 
ATOM      5  H   UNL     1       7.310   6.068  -6.710  0.00  0.00    +0.163 HD
ATOM      6  H   UNL     1       6.274   5.421  -3.421  0.00  0.00    +0.159 HD
ATOM      7  H   UNL     1       6.023   6.400  -4.816  0.00  0.00    +0.159 HD
ATOM      8  H   UNL     1       8.937   3.525  -4.744  0.00  0.00    +0.159 HD
ATOM      9  H   UNL     1       7.923   3.795  -3.382  0.00  0.00    +0.159 HD
ENDROOT
BRANCH   1  10
ATOM     10  C   UNL     1       8.961   4.753  -6.999  0.00  0.00    +0.151 C 
BRANCH  10  11
ATOM     11  C   UNL     1      10.122   5.708  -7.007  0.00  0.00    -0.028 A 
ATOM     12  C   UNL     1      11.367   5.320  -6.490  0.00  0.00    +0.005 A 
ATOM     13  C   UNL     1       9.986   7.001  -7.536  0.00  0.00    +0.005 A 
ATOM     14  C   UNL     1      12.454   6.197  -6.524  0.00  0.00    +0.000 A 
ATOM     15  C   UNL     1      11.074   7.874  -7.568  0.00  0.00    +0.000 A 
ATOM     16  C   UNL     1      12.308   7.470  -7.064  0.00  0.00    +0.000 A 
ENDBRANCH  10  11
ENDBRANCH   1  10
TORSDOF 2
ENDMDL
MODEL 7
REMARK VINA RESULT:    -4.822      3.967      5.535
REMARK INTER + INTRA:          -5.530
REMARK INTER:                  -5.380
REMARK INTRA:                  -0.151
REMARK UNBOUND:                -0.144
REMARK  Name = 1550473
REMARK  2 active torsions:
REMARK  status: ('A' for Active; 'I' for Inactive)
REMARK    1  A    between atoms: N_1  and  C_4
REMARK    2  A    between atoms: C_4  and  C_5
REMARK                            x       y       z     vdW  Elec       q    Type
REMARK                         _______ _______ _______ _____ _____    ______ ____
ROOT
ATOM      1  N   UNL     1      10.864   6.154  -8.048  0.00  0.00    -0.354 N 
ATOM      2  N   UNL     1       9.550   7.881  -8.858  0.00  0.00    -0.372 N 
ATOM      3  N   UNL     1      11.195   8.361  -7.333  0.00  0.00    -0.372 N 
ATOM      4  C   UNL     1      10.547   7.456  -8.073  0.00  0.00    +0.166 C 
ATOM      5  H   UNL     1      10.314   5.514  -8.610  0.00  0.00    +0.163 HD
ATOM      6  H   UNL     1       9.290   8.857  -8.900  0.00  0.00    +0.159 HD
ATOM      7  H   UNL     1       9.032   7.245  -9.453  0.00  0.00    +0.159 HD
ATOM      8  H   UNL     1      11.953   8.104  -6.715  0.00  0.00    +0.159 HD
ATOM      9  H   UNL     1      10.942   9.341  -7.352  0.00  0.00    +0.159 HD
ENDROOT
BRANCH   1  10
ATOM     10  C   UNL     1      11.968   5.596  -7.268  0.00  0.00    +0.151 C 
BRANCH  10  11
ATOM     11  C   UNL     1      11.415   4.631  -6.257  0.00  0.00    -0.028 A 
ATOM     12  C   UNL     1      11.820   3.288  -6.258  0.00  0.00    +0.005 A 
ATOM     13  C   UNL     1      10.490   5.054  -5.290  0.00  0.00    +0.005 A 
ATOM     14  C   UNL     1      11.330   2.398  -5.300  0.00  0.00    +0.000 A 
ATOM     15  C   UNL     1      10.002   4.162  -4.335  0.00  0.00    +0.000 A 
ATOM     16  C   UNL     1      10.424   2.835  -4.339  0.00  0.00    +0.000 A 
ENDBRANCH  10  11
ENDBRANCH   1  10
TORSDOF 2
ENDMDL
MODEL 8
REMARK VINA RESULT:    -4.815      5.007      6.710
REMARK INTER + INTRA:          -5.522
REMARK INTER:                  -5.428
REMARK INTRA:                  -0.094
REMARK UNBOUND:                -0.144
REMARK  Name = 1550473
REMARK  2 active torsions:
REMARK  status: ('A' for Active; 'I' for Inactive)
REMARK    1  A    between atoms: N_1  and  C_4
REMARK    2  A    between atoms: C_4  and  C_5
REMARK                            x       y       z     vdW  Elec       q    Type
REMARK                         _______ _______ _______ _____ _____    ______ ____
ROOT
ATOM      1  N   UNL     1      10.335   7.877  -8.449  0.00  0.00    -0.354 N 
ATOM      2  N   UNL     1       8.727   9.007  -9.675  0.00  0.00    -0.372 N 
ATOM      3  N   UNL     1       9.725  10.073  -7.905  0.00  0.00    -0.372 N 
ATOM      4  C   UNL     1       9.607   8.980  -8.666  0.00  0.00    +0.166 C 
ATOM      5  H   UNL     1      10.177   7.071  -9.043  0.00  0.00    +0.163 HD
ATOM      6  H   UNL     1       8.166   9.826  -9.865  0.00  0.00    +0.159 HD
ATOM      7  H   UNL     1       8.604   8.216 -10.295  0.00  0.00    +0.159 HD
ATOM      8  H   UNL     1      10.366  10.115  -7.124  0.00  0.00    +0.159 HD
ATOM      9  H   UNL     1       9.164  10.899  -8.072  0.00  0.00    +0.159 HD
ENDROOT
BRANCH   1  10
ATOM     10  C   UNL     1      11.358   7.764  -7.411  0.00  0.00    +0.151 C 
BRANCH  10  11
ATOM     11  C   UNL     1      11.758   6.321  -7.270  0.00  0.00    -0.028 A 
ATOM     12  C   UNL     1      11.336   5.570  -6.164  0.00  0.00    +0.005 A 
ATOM     13  C   UNL     1      12.555   5.698  -8.243  0.00  0.00    +0.005 A 
ATOM     14  C   UNL     1      11.682   4.221  -6.048  0.00  0.00    +0.000 A 
ATOM     15  C   UNL     1      12.899   4.352  -8.123  0.00  0.00    +0.000 A 
ATOM     16  C   UNL     1      12.461   3.613  -7.027  0.00  0.00    +0.000 A 
ENDBRANCH  10  11
ENDBRANCH   1  10
TORSDOF 2
ENDMDL
MODEL 9
REMARK VINA RESULT:    -4.762      5.897      7.462
REMARK INTER + INTRA:          -5.463
REMARK INTER:                  -5.299
REMARK INTRA:                  -0.164
REMARK UNBOUND:                -0.144
REMARK  Name = 1550473
REMARK  2 active torsions:
REMARK  status: ('A' for Active; 'I' for Inactive)
REMARK    1  A    between atoms: N_1  and  C_4
REMARK    2  A    between atoms: C_4  and  C_5
REMARK                            x       y       z     vdW  Elec       q    Type
REMARK                         _______ _______ _______ _____ _____    ______ ____
ROOT
ATOM      1  N   UNL     1      10.144   9.881  -7.713  0.00  0.00    -0.354 N 
ATOM      2  N   UNL     1       9.805  11.778  -6.428  0.00  0.00    -0.372 N 
ATOM      3  N   UNL     1       8.072  10.300  -6.702  0.00  0.00    -0.372 N 
ATOM      4  C   UNL     1       9.340  10.640  -6.956  0.00  0.00    +0.166 C 
ATOM      5  H   UNL     1      11.086  10.210  -7.894  0.00  0.00    +0.163 HD
ATOM      6  H   UNL     1       9.223  12.369  -5.850  0.00  0.00    +0.159 HD
ATOM      7  H   UNL     1      10.761  12.081  -6.572  0.00  0.00    +0.159 HD
ATOM      8  H   UNL     1       7.658   9.456  -7.075  0.00  0.00    +0.159 HD
ATOM      9  H   UNL     1       7.470  10.884  -6.135  0.00  0.00    +0.159 HD
ENDROOT
BRANCH   1  10
ATOM     10  C   UNL     1       9.751   8.597  -8.291  0.00  0.00    +0.151 C 
BRANCH  10  11
ATOM     11  C   UNL     1      10.423   7.489  -7.527  0.00  0.00    -0.028 A 
ATOM     12  C   UNL     1       9.674   6.416  -7.022  0.00  0.00    +0.005 A 
ATOM     13  C   UNL     1      11.809   7.504  -7.308  0.00  0.00    +0.005 A 
ATOM     14  C   UNL     1      10.301   5.372  -6.339  0.00  0.00    +0.000 A 
ATOM     15  C   UNL     1      12.432   6.460  -6.624  0.00  0.00    +0.000 A 
ATOM     16  C   UNL     1      11.678   5.393  -6.142  0.00  0.00    +0.000 A 
ENDBRANCH  10  11
ENDBRANCH   1  10
TORSDOF 2
ENDMDL
