MODEL 1
REMARK VINA RESULT:    -5.794      0.000      0.000
REMARK INTER + INTRA:          -6.587
REMARK INTER:                  -6.471
REMARK INTRA:                  -0.115
REMARK UNBOUND:                -0.115
REMARK  Name = 1550473
REMARK  2 active torsions:
REMARK  status: ('A' for Active; 'I' for Inactive)
REMARK    1  A    between atoms: N_1  and  C_4
REMARK    2  A    between atoms: C_4  and  C_5
REMARK                            x       y       z     vdW  Elec       q    Type
REMARK                         _______ _______ _______ _____ _____    ______ ____
ROOT
ATOM      1  N   UNL     1       0.433   0.519 -13.988  0.00  0.00    -0.354 N 
ATOM      2  N   UNL     1       2.523  -0.017 -13.149  0.00  0.00    -0.372 N 
ATOM      3  N   UNL     1       2.275   1.920 -14.352  0.00  0.00    -0.372 N 
ATOM      4  C   UNL     1       1.731   0.813 -13.837  0.00  0.00    +0.166 C 
ATOM      5  H   UNL     1       0.088  -0.351 -13.599  0.00  0.00    +0.163 HD
ATOM      6  H   UNL     1       3.506   0.180 -13.015  0.00  0.00    +0.159 HD
ATOM      7  H   UNL     1       2.166  -0.863 -12.721  0.00  0.00    +0.159 HD
ATOM      8  H   UNL     1       1.732   2.585 -14.887  0.00  0.00    +0.159 HD
ATOM      9  H   UNL     1       3.259   2.129 -14.239  0.00  0.00    +0.159 HD
ENDROOT
BRANCH   1  10
ATOM     10  C   UNL     1      -0.527   1.383 -14.674  0.00  0.00    +0.151 C 
BRANCH  10  11
ATOM     11  C   UNL     1      -1.550   1.863 -13.682  0.00  0.00    -0.028 A 
ATOM     12  C   UNL     1      -1.153   2.355 -12.430  0.00  0.00    +0.005 A 
ATOM     13  C   UNL     1      -2.919   1.836 -13.991  0.00  0.00    +0.005 A 
ATOM     14  C   UNL     1      -2.101   2.829 -11.521  0.00  0.00    +0.000 A 
ATOM     15  C   UNL     1      -3.863   2.310 -13.080  0.00  0.00    +0.000 A 
ATOM     16  C   UNL     1      -3.453   2.809 -11.846  0.00  0.00    +0.000 A 
ENDBRANCH  10  11
ENDBRANCH   1  10
TORSDOF 2
ENDMDL
MODEL 2
REMARK VINA RESULT:    -5.746     21.302     22.733
REMARK INTER + INTRA:          -6.534
REMARK INTER:                  -6.416
REMARK INTRA:                  -0.117
REMARK UNBOUND:                -0.115
REMARK  Name = 1550473
REMARK  2 active torsions:
REMARK  status: ('A' for Active; 'I' for Inactive)
REMARK    1  A    between atoms: N_1  and  C_4
REMARK    2  A    between atoms: C_4  and  C_5
REMARK                            x       y       z     vdW  Elec       q    Type
REMARK                         _______ _______ _______ _____ _____    ______ ____
ROOT
ATOM      1  N   UNL     1      -1.699   5.187   9.826  0.00  0.00    -0.354 N 
ATOM      2  N   UNL     1      -3.154   4.965  11.615  0.00  0.00    -0.372 N 
ATOM      3  N   UNL     1      -2.186   3.081  10.733  0.00  0.00    -0.372 N 
ATOM      4  C   UNL     1      -2.336   4.410  10.712  0.00  0.00    +0.166 C 
ATOM      5  H   UNL     1      -1.879   6.184   9.844  0.00  0.00    +0.163 HD
ATOM      6  H   UNL     1      -3.645   4.404  12.298  0.00  0.00    +0.159 HD
ATOM      7  H   UNL     1      -3.296   5.967  11.659  0.00  0.00    +0.159 HD
ATOM      8  H   UNL     1      -1.587   2.600  10.074  0.00  0.00    +0.159 HD
ATOM      9  H   UNL     1      -2.678   2.502  11.401  0.00  0.00    +0.159 HD
ENDROOT
BRANCH   1  10
ATOM     10  C   UNL     1      -0.746   4.687   8.837  0.00  0.00    +0.151 C 
BRANCH  10  11
ATOM     11  C   UNL     1      -0.298   5.828   7.966  0.00  0.00    -0.028 A 
ATOM     12  C   UNL     1       0.131   5.595   6.651  0.00  0.00    +0.005 A 
ATOM     13  C   UNL     1      -0.306   7.146   8.448  0.00  0.00    +0.005 A 
ATOM     14  C   UNL     1       0.518   6.658   5.832  0.00  0.00    +0.000 A 
ATOM     15  C   UNL     1       0.083   8.205   7.627  0.00  0.00    +0.000 A 
ATOM     16  C   UNL     1       0.493   7.961   6.319  0.00  0.00    +0.000 A 
ENDBRANCH  10  11
ENDBRANCH   1  10
TORSDOF 2
ENDMDL
MODEL 3
REMARK VINA RESULT:    -5.689      0.694      1.608
REMARK INTER + INTRA:          -6.469
REMARK INTER:                  -6.406
REMARK INTRA:                  -0.063
REMARK UNBOUND:                -0.115
REMARK  Name = 1550473
REMARK  2 active torsions:
REMARK  status: ('A' for Active; 'I' for Inactive)
REMARK    1  A    between atoms: N_1  and  C_4
REMARK    2  A    between atoms: C_4  and  C_5
REMARK                            x       y       z     vdW  Elec       q    Type
REMARK                         _______ _______ _______ _____ _____    ______ ____
ROOT
ATOM      1  N   UNL     1       1.033   0.788 -13.927  0.00  0.00    -0.354 N 
ATOM      2  N   UNL     1       3.275   0.988 -13.384  0.00  0.00    -0.372 N 
ATOM      3  N   UNL     1       2.349   2.496 -14.845  0.00  0.00    -0.372 N 
ATOM      4  C   UNL     1       2.204   1.425 -14.058  0.00  0.00    +0.166 C 
ATOM      5  H   UNL     1       0.996  -0.036 -13.338  0.00  0.00    +0.163 HD
ATOM      6  H   UNL     1       4.172   1.450 -13.460  0.00  0.00    +0.159 HD
ATOM      7  H   UNL     1       3.224   0.192 -12.761  0.00  0.00    +0.159 HD
ATOM      8  H   UNL     1       1.581   2.872 -15.385  0.00  0.00    +0.159 HD
ATOM      9  H   UNL     1       3.241   2.965 -14.943  0.00  0.00    +0.159 HD
ENDROOT
BRANCH   1  10
ATOM     10  C   UNL     1      -0.206   1.215 -14.575  0.00  0.00    +0.151 C 
BRANCH  10  11
ATOM     11  C   UNL     1      -1.130   1.789 -13.537  0.00  0.00    -0.028 A 
ATOM     12  C   UNL     1      -2.504   1.907 -13.793  0.00  0.00    +0.005 A 
ATOM     13  C   UNL     1      -0.639   2.213 -12.292  0.00  0.00    +0.005 A 
ATOM     14  C   UNL     1      -3.368   2.412 -12.818  0.00  0.00    +0.000 A 
ATOM     15  C   UNL     1      -1.504   2.718 -11.322  0.00  0.00    +0.000 A 
ATOM     16  C   UNL     1      -2.868   2.816 -11.584  0.00  0.00    +0.000 A 
ENDBRANCH  10  11
ENDBRANCH   1  10
TORSDOF 2
ENDMDL
MODEL 4
REMARK VINA RESULT:    -5.584      3.156      4.061
REMARK INTER + INTRA:          -6.353
REMARK INTER:                  -6.229
REMARK INTRA:                  -0.123
REMARK UNBOUND:                -0.115
REMARK  Name = 1550473
REMARK  2 active torsions:
REMARK  status: ('A' for Active; 'I' for Inactive)
REMARK    1  A    between atoms: N_1  and  C_4
REMARK    2  A    between atoms: C_4  and  C_5
REMARK                            x       y       z     vdW  Elec       q    Type
REMARK                         _______ _______ _______ _____ _____    ______ ____
ROOT
ATOM      1  N   UNL     1      -1.286   3.940 -10.632  0.00  0.00    -0.354 N 
ATOM      2  N   UNL     1      -0.695   5.921  -9.589  0.00  0.00    -0.372 N 
ATOM      3  N   UNL     1       0.918   4.733 -10.707  0.00  0.00    -0.372 N 
ATOM      4  C   UNL     1      -0.355   4.851 -10.317  0.00  0.00    +0.166 C 
ATOM      5  H   UNL     1      -2.227   4.072 -10.281  0.00  0.00    +0.163 HD
ATOM      6  H   UNL     1      -0.015   6.627  -9.338  0.00  0.00    +0.159 HD
ATOM      7  H   UNL     1      -1.646   6.074  -9.278  0.00  0.00    +0.159 HD
ATOM      8  H   UNL     1       1.240   3.945 -11.253  0.00  0.00    +0.159 HD
ATOM      9  H   UNL     1       1.616   5.422 -10.456  0.00  0.00    +0.159 HD
ENDROOT
BRANCH   1  10
ATOM     10  C   UNL     1      -1.032   2.766 -11.466  0.00  0.00    +0.151 C 
BRANCH  10  11
ATOM     11  C   UNL     1      -2.229   2.517 -12.341  0.00  0.00    -0.028 A 
ATOM     12  C   UNL     1      -2.075   1.937 -13.609  0.00  0.00    +0.005 A 
ATOM     13  C   UNL     1      -3.520   2.853 -11.906  0.00  0.00    +0.005 A 
ATOM     14  C   UNL     1      -3.190   1.677 -14.410  0.00  0.00    +0.000 A 
ATOM     15  C   UNL     1      -4.630   2.593 -12.709  0.00  0.00    +0.000 A 
ATOM     16  C   UNL     1      -4.465   2.003 -13.960  0.00  0.00    +0.000 A 
ENDBRANCH  10  11
ENDBRANCH   1  10
TORSDOF 2
ENDMDL
MODEL 5
REMARK VINA RESULT:    -5.540     20.372     21.343
REMARK INTER + INTRA:          -6.304
REMARK INTER:                  -6.176
REMARK INTRA:                  -0.127
REMARK UNBOUND:                -0.115
REMARK  Name = 1550473
REMARK  2 active torsions:
REMARK  status: ('A' for Active; 'I' for Inactive)
REMARK    1  A    between atoms: N_1  and  C_4
REMARK    2  A    between atoms: C_4  and  C_5
REMARK                            x       y       z     vdW  Elec       q    Type
REMARK                         _______ _______ _______ _____ _____    ______ ____
ROOT
ATOM      1  N   UNL     1      -0.641   1.733   6.879  0.00  0.00    -0.354 N 
ATOM      2  N   UNL     1       0.668  -0.098   6.334  0.00  0.00    -0.372 N 
ATOM      3  N   UNL     1      -0.789  -0.263   8.098  0.00  0.00    -0.372 N 
ATOM      4  C   UNL     1      -0.264   0.468   7.110  0.00  0.00    +0.166 C 
ATOM      5  H   UNL     1      -0.183   2.243   6.133  0.00  0.00    +0.163 HD
ATOM      6  H   UNL     1       0.971  -1.051   6.481  0.00  0.00    +0.159 HD
ATOM      7  H   UNL     1       1.091   0.400   5.560  0.00  0.00    +0.159 HD
ATOM      8  H   UNL     1      -1.492   0.107   8.723  0.00  0.00    +0.159 HD
ATOM      9  H   UNL     1      -0.491  -1.215   8.269  0.00  0.00    +0.159 HD
ENDROOT
BRANCH   1  10
ATOM     10  C   UNL     1      -1.687   2.424   7.632  0.00  0.00    +0.151 C 
BRANCH  10  11
ATOM     11  C   UNL     1      -1.227   3.823   7.940  0.00  0.00    -0.028 A 
ATOM     12  C   UNL     1      -1.613   4.453   9.132  0.00  0.00    +0.005 A 
ATOM     13  C   UNL     1      -0.401   4.521   7.045  0.00  0.00    +0.005 A 
ATOM     14  C   UNL     1      -1.161   5.740   9.432  0.00  0.00    +0.000 A 
ATOM     15  C   UNL     1       0.047   5.806   7.348  0.00  0.00    +0.000 A 
ATOM     16  C   UNL     1      -0.332   6.415   8.543  0.00  0.00    +0.000 A 
ENDBRANCH  10  11
ENDBRANCH   1  10
TORSDOF 2
ENDMDL
MODEL 6
REMARK VINA RESULT:    -5.490      2.316      3.020
REMARK INTER + INTRA:          -6.247
REMARK INTER:                  -6.073
REMARK INTRA:                  -0.174
REMARK UNBOUND:                -0.115
REMARK  Name = 1550473
REMARK  2 active torsions:
REMARK  status: ('A' for Active; 'I' for Inactive)
REMARK    1  A    between atoms: N_1  and  C_4
REMARK    2  A    between atoms: C_4  and  C_5
REMARK                            x       y       z     vdW  Elec       q    Type
REMARK                         _______ _______ _______ _____ _____    ______ ____
ROOT
ATOM      1  N   UNL     1       0.515   3.467 -12.690  0.00  0.00    -0.354 N 
ATOM      2  N   UNL     1       1.677   5.467 -12.581  0.00  0.00    -0.372 N 
ATOM      3  N   UNL     1       0.960   4.493 -10.631  0.00  0.00    -0.372 N 
ATOM      4  C   UNL     1       1.043   4.463 -11.965  0.00  0.00    +0.166 C 
ATOM      5  H   UNL     1       0.584   3.518 -13.700  0.00  0.00    +0.163 HD
ATOM      6  H   UNL     1       2.089   6.230 -12.060  0.00  0.00    +0.159 HD
ATOM      7  H   UNL     1       1.786   5.492 -13.588  0.00  0.00    +0.159 HD
ATOM      8  H   UNL     1       0.489   3.768 -10.107  0.00  0.00    +0.159 HD
ATOM      9  H   UNL     1       1.356   5.255 -10.093  0.00  0.00    +0.159 HD
ENDROOT
BRANCH   1  10
ATOM     10  C   UNL     1      -0.150   2.300 -12.114  0.00  0.00    +0.151 C 
BRANCH  10  11
ATOM     11  C   UNL     1      -1.627   2.393 -12.383  0.00  0.00    -0.028 A 
ATOM     12  C   UNL     1      -2.495   2.919 -11.415  0.00  0.00    +0.005 A 
ATOM     13  C   UNL     1      -2.163   1.961 -13.605  0.00  0.00    +0.005 A 
ATOM     14  C   UNL     1      -3.862   3.033 -11.675  0.00  0.00    +0.000 A 
ATOM     15  C   UNL     1      -3.530   2.076 -13.861  0.00  0.00    +0.000 A 
ATOM     16  C   UNL     1      -4.378   2.614 -12.897  0.00  0.00    +0.000 A 
ENDBRANCH  10  11
ENDBRANCH   1  10
TORSDOF 2
ENDMDL
MODEL 7
REMARK VINA RESULT:    -5.447     20.114     21.458
REMARK INTER + INTRA:          -6.199
REMARK INTER:                  -6.086
REMARK INTRA:                  -0.113
REMARK UNBOUND:                -0.115
REMARK  Name = 1550473
REMARK  2 active torsions:
REMARK  status: ('A' for Active; 'I' for Inactive)
REMARK    1  A    between atoms: N_1  and  C_4
REMARK    2  A    between atoms: C_4  and  C_5
REMARK                            x       y       z     vdW  Elec       q    Type
REMARK                         _______ _______ _______ _____ _____    ______ ____
ROOT
ATOM      1  N   UNL     1       0.865   2.401   6.941  0.00  0.00    -0.354 N 
ATOM      2  N   UNL     1       0.367   0.406   5.876  0.00  0.00    -0.372 N 
ATOM      3  N   UNL     1      -0.664   2.329   5.167  0.00  0.00    -0.372 N 
ATOM      4  C   UNL     1       0.191   1.727   6.000  0.00  0.00    +0.166 C 
ATOM      5  H   UNL     1       1.476   1.881   7.561  0.00  0.00    +0.163 HD
ATOM      6  H   UNL     1      -0.126  -0.129   5.173  0.00  0.00    +0.159 HD
ATOM      7  H   UNL     1       1.012  -0.104   6.467  0.00  0.00    +0.159 HD
ATOM      8  H   UNL     1      -0.846   3.323   5.213  0.00  0.00    +0.159 HD
ATOM      9  H   UNL     1      -1.175   1.809   4.465  0.00  0.00    +0.159 HD
ENDROOT
BRANCH   1  10
ATOM     10  C   UNL     1       0.786   3.849   7.125  0.00  0.00    +0.151 C 
BRANCH  10  11
ATOM     11  C   UNL     1      -0.125   4.149   8.283  0.00  0.00    -0.028 A 
ATOM     12  C   UNL     1      -0.627   5.444   8.478  0.00  0.00    +0.005 A 
ATOM     13  C   UNL     1      -0.495   3.140   9.186  0.00  0.00    +0.005 A 
ATOM     14  C   UNL     1      -1.497   5.716   9.536  0.00  0.00    +0.000 A 
ATOM     15  C   UNL     1      -1.364   3.416  10.242  0.00  0.00    +0.000 A 
ATOM     16  C   UNL     1      -1.866   4.703  10.415  0.00  0.00    +0.000 A 
ENDBRANCH  10  11
ENDBRANCH   1  10
TORSDOF 2
ENDMDL
MODEL 8
REMARK VINA RESULT:    -5.242     20.478     21.614
REMARK INTER + INTRA:          -5.970
REMARK INTER:                  -5.814
REMARK INTRA:                  -0.156
REMARK UNBOUND:                -0.115
REMARK  Name = 1550473
REMARK  2 active torsions:
REMARK  status: ('A' for Active; 'I' for Inactive)
REMARK    1  A    between atoms: N_1  and  C_4
REMARK    2  A    between atoms: C_4  and  C_5
REMARK                            x       y       z     vdW  Elec       q    Type
REMARK                         _______ _______ _______ _____ _____    ______ ____
ROOT
ATOM      1  N   UNL     1      -0.230   5.224   8.007  0.00  0.00    -0.354 N 
ATOM      2  N   UNL     1      -1.763   3.677   8.796  0.00  0.00    -0.372 N 
ATOM      3  N   UNL     1      -1.744   4.176   6.556  0.00  0.00    -0.372 N 
ATOM      4  C   UNL     1      -1.236   4.369   7.778  0.00  0.00    +0.166 C 
ATOM      5  H   UNL     1       0.089   5.347   8.961  0.00  0.00    +0.163 HD
ATOM      6  H   UNL     1      -2.521   3.023   8.654  0.00  0.00    +0.159 HD
ATOM      7  H   UNL     1      -1.411   3.769   9.741  0.00  0.00    +0.159 HD
ATOM      8  H   UNL     1      -1.395   4.672   5.747  0.00  0.00    +0.159 HD
ATOM      9  H   UNL     1      -2.510   3.534   6.396  0.00  0.00    +0.159 HD
ENDROOT
BRANCH   1  10
ATOM     10  C   UNL     1       0.449   5.985   6.960  0.00  0.00    +0.151 C 
BRANCH  10  11
ATOM     11  C   UNL     1       0.066   7.434   7.079  0.00  0.00    -0.028 A 
ATOM     12  C   UNL     1      -0.316   7.970   8.318  0.00  0.00    +0.005 A 
ATOM     13  C   UNL     1       0.088   8.279   5.959  0.00  0.00    +0.005 A 
ATOM     14  C   UNL     1      -0.643   9.323   8.436  0.00  0.00    +0.000 A 
ATOM     15  C   UNL     1      -0.240   9.629   6.080  0.00  0.00    +0.000 A 
ATOM     16  C   UNL     1      -0.603  10.151   7.319  0.00  0.00    +0.000 A 
ENDBRANCH  10  11
ENDBRANCH   1  10
TORSDOF 2
ENDMDL
MODEL 9
REMARK VINA RESULT:    -5.218     20.168     21.516
REMARK INTER + INTRA:          -5.943
REMARK INTER:                  -5.824
REMARK INTRA:                  -0.119
REMARK UNBOUND:                -0.115
REMARK  Name = 1550473
REMARK  2 active torsions:
REMARK  status: ('A' for Active; 'I' for Inactive)
REMARK    1  A    between atoms: N_1  and  C_4
REMARK    2  A    between atoms: C_4  and  C_5
REMARK                            x       y       z     vdW  Elec       q    Type
REMARK                         _______ _______ _______ _____ _____    ______ ____
ROOT
ATOM      1  N   UNL     1      -0.814   4.076   8.715  0.00  0.00    -0.354 N 
ATOM      2  N   UNL     1      -2.145   3.064  10.317  0.00  0.00    -0.372 N 
ATOM      3  N   UNL     1      -1.840   2.010   8.301  0.00  0.00    -0.372 N 
ATOM      4  C   UNL     1      -1.591   3.055   9.098  0.00  0.00    +0.166 C 
ATOM      5  H   UNL     1      -0.689   4.853   9.354  0.00  0.00    +0.163 HD
ATOM      6  H   UNL     1      -2.733   2.306  10.635  0.00  0.00    +0.159 HD
ATOM      7  H   UNL     1      -1.981   3.819  10.971  0.00  0.00    +0.159 HD
ATOM      8  H   UNL     1      -1.456   1.946   7.368  0.00  0.00    +0.159 HD
ATOM      9  H   UNL     1      -2.435   1.247   8.598  0.00  0.00    +0.159 HD
ENDROOT
BRANCH   1  10
ATOM     10  C   UNL     1      -0.120   4.138   7.429  0.00  0.00    +0.151 C 
BRANCH  10  11
ATOM     11  C   UNL     1      -0.062   5.569   6.971  0.00  0.00    -0.028 A 
ATOM     12  C   UNL     1       0.097   6.608   7.899  0.00  0.00    +0.005 A 
ATOM     13  C   UNL     1      -0.161   5.892   5.608  0.00  0.00    +0.005 A 
ATOM     14  C   UNL     1       0.181   7.936   7.470  0.00  0.00    +0.000 A 
ATOM     15  C   UNL     1      -0.078   7.218   5.185  0.00  0.00    +0.000 A 
ATOM     16  C   UNL     1       0.096   8.239   6.116  0.00  0.00    +0.000 A 
ENDBRANCH  10  11
ENDBRANCH   1  10
TORSDOF 2
ENDMDL
