MODEL 1
REMARK VINA RESULT:    -6.324      0.000      0.000
REMARK INTER + INTRA:          -7.221
REMARK INTER:                  -7.063
REMARK INTRA:                  -0.158
REMARK UNBOUND:                -0.158
REMARK  Name = 1550473
REMARK  2 active torsions:
REMARK  status: ('A' for Active; 'I' for Inactive)
REMARK    1  A    between atoms: N_1  and  C_4
REMARK    2  A    between atoms: C_4  and  C_5
REMARK                            x       y       z     vdW  Elec       q    Type
REMARK                         _______ _______ _______ _____ _____    ______ ____
ROOT
ATOM      1  N   UNL     1      13.838  14.998   5.266  0.00  0.00    -0.354 N 
ATOM      2  N   UNL     1      13.095  16.131   3.387  0.00  0.00    -0.372 N 
ATOM      3  N   UNL     1      14.137  17.313   5.055  0.00  0.00    -0.372 N 
ATOM      4  C   UNL     1      13.695  16.142   4.583  0.00  0.00    +0.166 C 
ATOM      5  H   UNL     1      13.454  14.149   4.867  0.00  0.00    +0.163 HD
ATOM      6  H   UNL     1      12.976  16.978   2.847  0.00  0.00    +0.159 HD
ATOM      7  H   UNL     1      12.754  15.273   2.970  0.00  0.00    +0.159 HD
ATOM      8  H   UNL     1      14.593  17.390   5.954  0.00  0.00    +0.159 HD
ATOM      9  H   UNL     1      14.017  18.173   4.535  0.00  0.00    +0.159 HD
ENDROOT
BRANCH   1  10
ATOM     10  C   UNL     1      14.524  14.894   6.552  0.00  0.00    +0.151 C 
BRANCH  10  11
ATOM     11  C   UNL     1      13.513  14.605   7.627  0.00  0.00    -0.028 A 
ATOM     12  C   UNL     1      12.646  13.509   7.512  0.00  0.00    +0.005 A 
ATOM     13  C   UNL     1      13.421  15.421   8.765  0.00  0.00    +0.005 A 
ATOM     14  C   UNL     1      11.726  13.223   8.524  0.00  0.00    +0.000 A 
ATOM     15  C   UNL     1      12.501  15.132   9.773  0.00  0.00    +0.000 A 
ATOM     16  C   UNL     1      11.656  14.032   9.653  0.00  0.00    +0.000 A 
ENDBRANCH  10  11
ENDBRANCH   1  10
TORSDOF 2
ENDMDL
MODEL 2
REMARK VINA RESULT:    -6.171      2.599      3.400
REMARK INTER + INTRA:          -7.051
REMARK INTER:                  -6.902
REMARK INTRA:                  -0.149
REMARK UNBOUND:                -0.158
REMARK  Name = 1550473
REMARK  2 active torsions:
REMARK  status: ('A' for Active; 'I' for Inactive)
REMARK    1  A    between atoms: N_1  and  C_4
REMARK    2  A    between atoms: C_4  and  C_5
REMARK                            x       y       z     vdW  Elec       q    Type
REMARK                         _______ _______ _______ _____ _____    ______ ____
ROOT
ATOM      1  N   UNL     1      11.195  12.820   6.189  0.00  0.00    -0.354 N 
ATOM      2  N   UNL     1      10.218  13.621   4.248  0.00  0.00    -0.372 N 
ATOM      3  N   UNL     1       9.188  14.028   6.258  0.00  0.00    -0.372 N 
ATOM      4  C   UNL     1      10.204  13.485   5.580  0.00  0.00    +0.166 C 
ATOM      5  H   UNL     1      11.921  12.406   5.615  0.00  0.00    +0.163 HD
ATOM      6  H   UNL     1       9.486  14.121   3.761  0.00  0.00    +0.159 HD
ATOM      7  H   UNL     1      10.968  13.246   3.682  0.00  0.00    +0.159 HD
ATOM      8  H   UNL     1       9.116  13.956   7.264  0.00  0.00    +0.159 HD
ATOM      9  H   UNL     1       8.440  14.522   5.787  0.00  0.00    +0.159 HD
ENDROOT
BRANCH   1  10
ATOM     10  C   UNL     1      11.303  12.661   7.638  0.00  0.00    +0.151 C 
BRANCH  10  11
ATOM     11  C   UNL     1      12.177  13.754   8.188  0.00  0.00    -0.028 A 
ATOM     12  C   UNL     1      13.278  14.221   7.455  0.00  0.00    +0.005 A 
ATOM     13  C   UNL     1      11.907  14.331   9.439  0.00  0.00    +0.005 A 
ATOM     14  C   UNL     1      14.073  15.257   7.952  0.00  0.00    +0.000 A 
ATOM     15  C   UNL     1      12.704  15.364   9.932  0.00  0.00    +0.000 A 
ATOM     16  C   UNL     1      13.785  15.829   9.187  0.00  0.00    +0.000 A 
ENDBRANCH  10  11
ENDBRANCH   1  10
TORSDOF 2
ENDMDL
MODEL 3
REMARK VINA RESULT:    -6.034      2.263      2.970
REMARK INTER + INTRA:          -6.897
REMARK INTER:                  -6.786
REMARK INTRA:                  -0.111
REMARK UNBOUND:                -0.158
REMARK  Name = 1550473
REMARK  2 active torsions:
REMARK  status: ('A' for Active; 'I' for Inactive)
REMARK    1  A    between atoms: N_1  and  C_4
REMARK    2  A    between atoms: C_4  and  C_5
REMARK                            x       y       z     vdW  Elec       q    Type
REMARK                         _______ _______ _______ _____ _____    ______ ____
ROOT
ATOM      1  N   UNL     1      15.816  15.453   7.456  0.00  0.00    -0.354 N 
ATOM      2  N   UNL     1      18.018  15.526   6.744  0.00  0.00    -0.372 N 
ATOM      3  N   UNL     1      16.683  17.362   6.409  0.00  0.00    -0.372 N 
ATOM      4  C   UNL     1      16.823  16.116   6.873  0.00  0.00    +0.166 C 
ATOM      5  H   UNL     1      15.978  14.500   7.760  0.00  0.00    +0.163 HD
ATOM      6  H   UNL     1      18.798  16.003   6.311  0.00  0.00    +0.159 HD
ATOM      7  H   UNL     1      18.191  14.590   7.090  0.00  0.00    +0.159 HD
ATOM      8  H   UNL     1      15.805  17.861   6.471  0.00  0.00    +0.159 HD
ATOM      9  H   UNL     1      17.448  17.851   5.962  0.00  0.00    +0.159 HD
ENDROOT
BRANCH   1  10
ATOM     10  C   UNL     1      14.491  16.024   7.694  0.00  0.00    +0.151 C 
BRANCH  10  11
ATOM     11  C   UNL     1      13.505  14.908   7.903  0.00  0.00    -0.028 A 
ATOM     12  C   UNL     1      12.709  14.868   9.057  0.00  0.00    +0.005 A 
ATOM     13  C   UNL     1      13.358  13.891   6.948  0.00  0.00    +0.005 A 
ATOM     14  C   UNL     1      11.772  13.847   9.238  0.00  0.00    +0.000 A 
ATOM     15  C   UNL     1      12.422  12.873   7.132  0.00  0.00    +0.000 A 
ATOM     16  C   UNL     1      11.628  12.853   8.276  0.00  0.00    +0.000 A 
ENDBRANCH  10  11
ENDBRANCH   1  10
TORSDOF 2
ENDMDL
MODEL 4
REMARK VINA RESULT:    -5.877      3.394      4.490
REMARK INTER + INTRA:          -6.722
REMARK INTER:                  -6.613
REMARK INTRA:                  -0.109
REMARK UNBOUND:                -0.158
REMARK  Name = 1550473
REMARK  2 active torsions:
REMARK  status: ('A' for Active; 'I' for Inactive)
REMARK    1  A    between atoms: N_1  and  C_4
REMARK    2  A    between atoms: C_4  and  C_5
REMARK                            x       y       z     vdW  Elec       q    Type
REMARK                         _______ _______ _______ _____ _____    ______ ____
ROOT
ATOM      1  N   UNL     1      13.468  17.265   9.861  0.00  0.00    -0.354 N 
ATOM      2  N   UNL     1      13.401  18.181  11.987  0.00  0.00    -0.372 N 
ATOM      3  N   UNL     1      15.264  17.007  11.343  0.00  0.00    -0.372 N 
ATOM      4  C   UNL     1      14.047  17.477  11.050  0.00  0.00    +0.166 C 
ATOM      5  H   UNL     1      12.531  17.622   9.711  0.00  0.00    +0.163 HD
ATOM      6  H   UNL     1      13.814  18.361  12.892  0.00  0.00    +0.159 HD
ATOM      7  H   UNL     1      12.483  18.576  11.818  0.00  0.00    +0.159 HD
ATOM      8  H   UNL     1      15.802  16.463  10.682  0.00  0.00    +0.159 HD
ATOM      9  H   UNL     1      15.690  17.166  12.248  0.00  0.00    +0.159 HD
ENDROOT
BRANCH   1  10
ATOM     10  C   UNL     1      14.108  16.557   8.754  0.00  0.00    +0.151 C 
BRANCH  10  11
ATOM     11  C   UNL     1      13.359  15.280   8.488  0.00  0.00    -0.028 A 
ATOM     12  C   UNL     1      12.375  14.833   9.382  0.00  0.00    +0.005 A 
ATOM     13  C   UNL     1      13.625  14.516   7.342  0.00  0.00    +0.005 A 
ATOM     14  C   UNL     1      11.658  13.663   9.121  0.00  0.00    +0.000 A 
ATOM     15  C   UNL     1      12.907  13.348   7.085  0.00  0.00    +0.000 A 
ATOM     16  C   UNL     1      11.922  12.923   7.973  0.00  0.00    +0.000 A 
ENDBRANCH  10  11
ENDBRANCH   1  10
TORSDOF 2
ENDMDL
MODEL 5
REMARK VINA RESULT:    -5.684     27.271     28.195
REMARK INTER + INTRA:          -6.506
REMARK INTER:                  -6.400
REMARK INTRA:                  -0.107
REMARK UNBOUND:                -0.158
REMARK  Name = 1550473
REMARK  2 active torsions:
REMARK  status: ('A' for Active; 'I' for Inactive)
REMARK    1  A    between atoms: N_1  and  C_4
REMARK    2  A    between atoms: C_4  and  C_5
REMARK                            x       y       z     vdW  Elec       q    Type
REMARK                         _______ _______ _______ _____ _____    ______ ____
ROOT
ATOM      1  N   UNL     1       0.331  -6.691  -3.490  0.00  0.00    -0.354 N 
ATOM      2  N   UNL     1      -0.086  -7.257  -1.283  0.00  0.00    -0.372 N 
ATOM      3  N   UNL     1      -1.539  -5.844  -2.359  0.00  0.00    -0.372 N 
ATOM      4  C   UNL     1      -0.431  -6.592  -2.392  0.00  0.00    +0.166 C 
ATOM      5  H   UNL     1       1.175  -7.250  -3.441  0.00  0.00    +0.163 HD
ATOM      6  H   UNL     1      -0.643  -7.204  -0.440  0.00  0.00    +0.159 HD
ATOM      7  H   UNL     1       0.733  -7.851  -1.251  0.00  0.00    +0.159 HD
ATOM      8  H   UNL     1      -1.851  -5.313  -3.162  0.00  0.00    +0.159 HD
ATOM      9  H   UNL     1      -2.103  -5.769  -1.522  0.00  0.00    +0.159 HD
ENDROOT
BRANCH   1  10
ATOM     10  C   UNL     1       0.015  -6.051  -4.765  0.00  0.00    +0.151 C 
BRANCH  10  11
ATOM     11  C   UNL     1       0.963  -6.556  -5.817  0.00  0.00    -0.028 A 
ATOM     12  C   UNL     1       1.704  -5.657  -6.598  0.00  0.00    +0.005 A 
ATOM     13  C   UNL     1       1.130  -7.933  -6.033  0.00  0.00    +0.005 A 
ATOM     14  C   UNL     1       2.608  -6.126  -7.555  0.00  0.00    +0.000 A 
ATOM     15  C   UNL     1       2.033  -8.397  -6.990  0.00  0.00    +0.000 A 
ATOM     16  C   UNL     1       2.773  -7.494  -7.749  0.00  0.00    +0.000 A 
ENDBRANCH  10  11
ENDBRANCH   1  10
TORSDOF 2
ENDMDL
MODEL 6
REMARK VINA RESULT:    -5.658      2.706      3.439
REMARK INTER + INTRA:          -6.477
REMARK INTER:                  -6.307
REMARK INTRA:                  -0.171
REMARK UNBOUND:                -0.158
REMARK  Name = 1550473
REMARK  2 active torsions:
REMARK  status: ('A' for Active; 'I' for Inactive)
REMARK    1  A    between atoms: N_1  and  C_4
REMARK    2  A    between atoms: C_4  and  C_5
REMARK                            x       y       z     vdW  Elec       q    Type
REMARK                         _______ _______ _______ _____ _____    ______ ____
ROOT
ATOM      1  N   UNL     1      11.658  15.136   4.720  0.00  0.00    -0.354 N 
ATOM      2  N   UNL     1      13.805  15.945   4.406  0.00  0.00    -0.372 N 
ATOM      3  N   UNL     1      12.677  16.509   6.323  0.00  0.00    -0.372 N 
ATOM      4  C   UNL     1      12.699  15.860   5.154  0.00  0.00    +0.166 C 
ATOM      5  H   UNL     1      11.726  14.693   3.812  0.00  0.00    +0.163 HD
ATOM      6  H   UNL     1      14.608  16.481   4.709  0.00  0.00    +0.159 HD
ATOM      7  H   UNL     1      13.887  15.463   3.519  0.00  0.00    +0.159 HD
ATOM      8  H   UNL     1      11.870  16.490   6.932  0.00  0.00    +0.159 HD
ATOM      9  H   UNL     1      13.466  17.060   6.638  0.00  0.00    +0.159 HD
ENDROOT
BRANCH   1  10
ATOM     10  C   UNL     1      10.428  14.935   5.483  0.00  0.00    +0.151 C 
BRANCH  10  11
ATOM     11  C   UNL     1      10.361  13.504   5.940  0.00  0.00    -0.028 A 
ATOM     12  C   UNL     1       9.640  12.554   5.201  0.00  0.00    +0.005 A 
ATOM     13  C   UNL     1      11.021  13.090   7.107  0.00  0.00    +0.005 A 
ATOM     14  C   UNL     1       9.603  11.218   5.608  0.00  0.00    +0.000 A 
ATOM     15  C   UNL     1      10.981  11.755   7.510  0.00  0.00    +0.000 A 
ATOM     16  C   UNL     1      10.274  10.819   6.759  0.00  0.00    +0.000 A 
ENDBRANCH  10  11
ENDBRANCH   1  10
TORSDOF 2
ENDMDL
MODEL 7
REMARK VINA RESULT:    -5.648      2.950      3.466
REMARK INTER + INTRA:          -6.466
REMARK INTER:                  -6.362
REMARK INTRA:                  -0.104
REMARK UNBOUND:                -0.158
REMARK  Name = 1550473
REMARK  2 active torsions:
REMARK  status: ('A' for Active; 'I' for Inactive)
REMARK    1  A    between atoms: N_1  and  C_4
REMARK    2  A    between atoms: C_4  and  C_5
REMARK                            x       y       z     vdW  Elec       q    Type
REMARK                         _______ _______ _______ _____ _____    ______ ____
ROOT
ATOM      1  N   UNL     1       9.980  14.195   5.058  0.00  0.00    -0.354 N 
ATOM      2  N   UNL     1      10.277  14.014   2.768  0.00  0.00    -0.372 N 
ATOM      3  N   UNL     1       8.776  15.551   3.574  0.00  0.00    -0.372 N 
ATOM      4  C   UNL     1       9.674  14.590   3.815  0.00  0.00    +0.166 C 
ATOM      5  H   UNL     1      10.647  13.441   5.172  0.00  0.00    +0.163 HD
ATOM      6  H   UNL     1      10.069  14.294   1.819  0.00  0.00    +0.159 HD
ATOM      7  H   UNL     1      10.977  13.292   2.887  0.00  0.00    +0.159 HD
ATOM      8  H   UNL     1       8.281  16.021   4.320  0.00  0.00    +0.159 HD
ATOM      9  H   UNL     1       8.545  15.836   2.630  0.00  0.00    +0.159 HD
ENDROOT
BRANCH   1  10
ATOM     10  C   UNL     1       9.420  14.795   6.268  0.00  0.00    +0.151 C 
BRANCH  10  11
ATOM     11  C   UNL     1      10.483  14.841   7.330  0.00  0.00    -0.028 A 
ATOM     12  C   UNL     1      10.783  13.699   8.087  0.00  0.00    +0.005 A 
ATOM     13  C   UNL     1      11.198  16.022   7.582  0.00  0.00    +0.005 A 
ATOM     14  C   UNL     1      11.791  13.733   9.054  0.00  0.00    +0.000 A 
ATOM     15  C   UNL     1      12.203  16.052   8.548  0.00  0.00    +0.000 A 
ATOM     16  C   UNL     1      12.501  14.907   9.282  0.00  0.00    +0.000 A 
ENDBRANCH  10  11
ENDBRANCH   1  10
TORSDOF 2
ENDMDL
MODEL 8
REMARK VINA RESULT:    -5.426     20.759     22.246
REMARK INTER + INTRA:          -6.218
REMARK INTER:                  -6.095
REMARK INTRA:                  -0.123
REMARK UNBOUND:                -0.158
REMARK  Name = 1550473
REMARK  2 active torsions:
REMARK  status: ('A' for Active; 'I' for Inactive)
REMARK    1  A    between atoms: N_1  and  C_4
REMARK    2  A    between atoms: C_4  and  C_5
REMARK                            x       y       z     vdW  Elec       q    Type
REMARK                         _______ _______ _______ _____ _____    ______ ____
ROOT
ATOM      1  N   UNL     1      -2.587  11.313  -5.957  0.00  0.00    -0.354 N 
ATOM      2  N   UNL     1      -2.306  12.567  -4.030  0.00  0.00    -0.372 N 
ATOM      3  N   UNL     1      -4.413  11.854  -4.591  0.00  0.00    -0.372 N 
ATOM      4  C   UNL     1      -3.106  11.903  -4.872  0.00  0.00    +0.166 C 
ATOM      5  H   UNL     1      -1.593  11.413  -6.130  0.00  0.00    +0.163 HD
ATOM      6  H   UNL     1      -2.668  13.019  -3.202  0.00  0.00    +0.159 HD
ATOM      7  H   UNL     1      -1.306  12.626  -4.181  0.00  0.00    +0.159 HD
ATOM      8  H   UNL     1      -5.071  11.373  -5.190  0.00  0.00    +0.159 HD
ATOM      9  H   UNL     1      -4.797  12.310  -3.773  0.00  0.00    +0.159 HD
ENDROOT
BRANCH   1  10
ATOM     10  C   UNL     1      -3.364  10.520  -6.908  0.00  0.00    +0.151 C 
BRANCH  10  11
ATOM     11  C   UNL     1      -2.612  10.437  -8.208  0.00  0.00    -0.028 A 
ATOM     12  C   UNL     1      -1.795  11.497  -8.627  0.00  0.00    +0.005 A 
ATOM     13  C   UNL     1      -2.709   9.298  -9.022  0.00  0.00    +0.005 A 
ATOM     14  C   UNL     1      -1.073  11.408  -9.819  0.00  0.00    +0.000 A 
ATOM     15  C   UNL     1      -1.987   9.213 -10.213  0.00  0.00    +0.000 A 
ATOM     16  C   UNL     1      -1.168  10.267 -10.610  0.00  0.00    +0.000 A 
ENDBRANCH  10  11
ENDBRANCH   1  10
TORSDOF 2
ENDMDL
MODEL 9
REMARK VINA RESULT:    -5.393      2.668      3.696
REMARK INTER + INTRA:          -6.182
REMARK INTER:                  -6.001
REMARK INTRA:                  -0.181
REMARK UNBOUND:                -0.158
REMARK  Name = 1550473
REMARK  2 active torsions:
REMARK  status: ('A' for Active; 'I' for Inactive)
REMARK    1  A    between atoms: N_1  and  C_4
REMARK    2  A    between atoms: C_4  and  C_5
REMARK                            x       y       z     vdW  Elec       q    Type
REMARK                         _______ _______ _______ _____ _____    ______ ____
ROOT
ATOM      1  N   UNL     1      11.417  14.123   5.608  0.00  0.00    -0.354 N 
ATOM      2  N   UNL     1       9.933  12.364   5.869  0.00  0.00    -0.372 N 
ATOM      3  N   UNL     1       9.244  14.486   6.405  0.00  0.00    -0.372 N 
ATOM      4  C   UNL     1      10.206  13.671   5.960  0.00  0.00    +0.166 C 
ATOM      5  H   UNL     1      12.113  13.450   5.307  0.00  0.00    +0.163 HD
ATOM      6  H   UNL     1       9.027  11.995   6.125  0.00  0.00    +0.159 HD
ATOM      7  H   UNL     1      10.616  11.700   5.524  0.00  0.00    +0.159 HD
ATOM      8  H   UNL     1       9.388  15.482   6.503  0.00  0.00    +0.159 HD
ATOM      9  H   UNL     1       8.335  14.134   6.677  0.00  0.00    +0.159 HD
ENDROOT
BRANCH   1  10
ATOM     10  C   UNL     1      11.799  15.534   5.618  0.00  0.00    +0.151 C 
BRANCH  10  11
ATOM     11  C   UNL     1      12.655  15.802   6.825  0.00  0.00    -0.028 A 
ATOM     12  C   UNL     1      12.146  16.525   7.913  0.00  0.00    +0.005 A 
ATOM     13  C   UNL     1      13.976  15.331   6.888  0.00  0.00    +0.005 A 
ATOM     14  C   UNL     1      12.931  16.749   9.047  0.00  0.00    +0.000 A 
ATOM     15  C   UNL     1      14.757  15.557   8.022  0.00  0.00    +0.000 A 
ATOM     16  C   UNL     1      14.233  16.264   9.102  0.00  0.00    +0.000 A 
ENDBRANCH  10  11
ENDBRANCH   1  10
TORSDOF 2
ENDMDL
