MODEL 1
REMARK VINA RESULT:    -6.418      0.000      0.000
REMARK INTER + INTRA:          -7.271
REMARK INTER:                  -7.169
REMARK INTRA:                  -0.102
REMARK UNBOUND:                -0.102
REMARK  Name = 1550473
REMARK  2 active torsions:
REMARK  status: ('A' for Active; 'I' for Inactive)
REMARK    1  A    between atoms: N_1  and  C_4
REMARK    2  A    between atoms: C_4  and  C_5
REMARK                            x       y       z     vdW  Elec       q    Type
REMARK                         _______ _______ _______ _____ _____    ______ ____
ROOT
ATOM      1  N   UNL     1     -10.821 -11.676 -13.601  0.00  0.00    -0.354 N 
ATOM      2  N   UNL     1     -11.566 -12.822 -15.470  0.00  0.00    -0.372 N 
ATOM      3  N   UNL     1     -10.802 -10.673 -15.718  0.00  0.00    -0.372 N 
ATOM      4  C   UNL     1     -11.058 -11.714 -14.919  0.00  0.00    +0.166 C 
ATOM      5  H   UNL     1     -11.065 -12.488 -13.045  0.00  0.00    +0.163 HD
ATOM      6  H   UNL     1     -11.752 -12.881 -16.463  0.00  0.00    +0.159 HD
ATOM      7  H   UNL     1     -11.766 -13.648 -14.919  0.00  0.00    +0.159 HD
ATOM      8  H   UNL     1     -10.423  -9.805 -15.363  0.00  0.00    +0.159 HD
ATOM      9  H   UNL     1     -10.992 -10.708 -16.712  0.00  0.00    +0.159 HD
ENDROOT
BRANCH   1  10
ATOM     10  C   UNL     1     -10.219 -10.537 -12.910  0.00  0.00    +0.151 C 
BRANCH  10  11
ATOM     11  C   UNL     1     -10.374 -10.725 -11.426  0.00  0.00    -0.028 A 
ATOM     12  C   UNL     1     -10.973  -9.728 -10.641  0.00  0.00    +0.005 A 
ATOM     13  C   UNL     1      -9.930 -11.900 -10.799  0.00  0.00    +0.005 A 
ATOM     14  C   UNL     1     -11.144  -9.915  -9.267  0.00  0.00    +0.000 A 
ATOM     15  C   UNL     1     -10.102 -12.081  -9.427  0.00  0.00    +0.000 A 
ATOM     16  C   UNL     1     -10.711 -11.090  -8.662  0.00  0.00    +0.000 A 
ENDBRANCH  10  11
ENDBRANCH   1  10
TORSDOF 2
ENDMDL
MODEL 2
REMARK VINA RESULT:    -6.325      1.322      2.336
REMARK INTER + INTRA:          -7.166
REMARK INTER:                  -7.049
REMARK INTRA:                  -0.118
REMARK UNBOUND:                -0.102
REMARK  Name = 1550473
REMARK  2 active torsions:
REMARK  status: ('A' for Active; 'I' for Inactive)
REMARK    1  A    between atoms: N_1  and  C_4
REMARK    2  A    between atoms: C_4  and  C_5
REMARK                            x       y       z     vdW  Elec       q    Type
REMARK                         _______ _______ _______ _____ _____    ______ ____
ROOT
ATOM      1  N   UNL     1      -9.830 -10.078 -12.859  0.00  0.00    -0.354 N 
ATOM      2  N   UNL     1      -9.461  -8.629 -14.627  0.00  0.00    -0.372 N 
ATOM      3  N   UNL     1     -10.472 -10.647 -15.039  0.00  0.00    -0.372 N 
ATOM      4  C   UNL     1      -9.924  -9.796 -14.165  0.00  0.00    +0.166 C 
ATOM      5  H   UNL     1      -9.377  -9.404 -12.252  0.00  0.00    +0.163 HD
ATOM      6  H   UNL     1      -9.521  -8.387 -15.607  0.00  0.00    +0.159 HD
ATOM      7  H   UNL     1      -9.050  -7.937 -14.012  0.00  0.00    +0.159 HD
ATOM      8  H   UNL     1     -10.835 -11.547 -14.755  0.00  0.00    +0.159 HD
ATOM      9  H   UNL     1     -10.531 -10.428 -16.026  0.00  0.00    +0.159 HD
ENDROOT
BRANCH   1  10
ATOM     10  C   UNL     1     -10.352 -11.298 -12.245  0.00  0.00    +0.151 C 
BRANCH  10  11
ATOM     11  C   UNL     1     -10.517 -11.073 -10.768  0.00  0.00    -0.028 A 
ATOM     12  C   UNL     1     -10.143 -12.066  -9.850  0.00  0.00    +0.005 A 
ATOM     13  C   UNL     1     -11.042  -9.867 -10.278  0.00  0.00    +0.005 A 
ATOM     14  C   UNL     1     -10.268 -11.846  -8.476  0.00  0.00    +0.000 A 
ATOM     15  C   UNL     1     -11.166  -9.652  -8.906  0.00  0.00    +0.000 A 
ATOM     16  C   UNL     1     -10.777 -10.640  -8.005  0.00  0.00    +0.000 A 
ENDBRANCH  10  11
ENDBRANCH   1  10
TORSDOF 2
ENDMDL
MODEL 3
REMARK VINA RESULT:    -5.989      4.369      5.776
REMARK INTER + INTRA:          -6.792
REMARK INTER:                  -6.612
REMARK INTRA:                  -0.180
REMARK UNBOUND:                -0.102
REMARK  Name = 1550473
REMARK  2 active torsions:
REMARK  status: ('A' for Active; 'I' for Inactive)
REMARK    1  A    between atoms: N_1  and  C_4
REMARK    2  A    between atoms: C_4  and  C_5
REMARK                            x       y       z     vdW  Elec       q    Type
REMARK                         _______ _______ _______ _____ _____    ______ ____
ROOT
ATOM      1  N   UNL     1      -9.984  -9.024  -7.477  0.00  0.00    -0.354 N 
ATOM      2  N   UNL     1      -8.323  -7.537  -6.849  0.00  0.00    -0.372 N 
ATOM      3  N   UNL     1      -9.901  -6.859  -8.371  0.00  0.00    -0.372 N 
ATOM      4  C   UNL     1      -9.415  -7.815  -7.572  0.00  0.00    +0.166 C 
ATOM      5  H   UNL     1      -9.550  -9.715  -6.876  0.00  0.00    +0.163 HD
ATOM      6  H   UNL     1      -7.873  -6.632  -6.897  0.00  0.00    +0.159 HD
ATOM      7  H   UNL     1      -7.918  -8.214  -6.214  0.00  0.00    +0.159 HD
ATOM      8  H   UNL     1     -10.718  -7.007  -8.947  0.00  0.00    +0.159 HD
ATOM      9  H   UNL     1      -9.458  -5.951  -8.442  0.00  0.00    +0.159 HD
ENDROOT
BRANCH   1  10
ATOM     10  C   UNL     1     -11.206  -9.409  -8.180  0.00  0.00    +0.151 C 
BRANCH  10  11
ATOM     11  C   UNL     1     -10.838 -10.192  -9.411  0.00  0.00    -0.028 A 
ATOM     12  C   UNL     1     -10.238 -11.455  -9.298  0.00  0.00    +0.005 A 
ATOM     13  C   UNL     1     -11.093  -9.679 -10.692  0.00  0.00    +0.005 A 
ATOM     14  C   UNL     1      -9.924 -12.195 -10.441  0.00  0.00    +0.000 A 
ATOM     15  C   UNL     1     -10.777 -10.421 -11.830  0.00  0.00    +0.000 A 
ATOM     16  C   UNL     1     -10.195 -11.680 -11.704  0.00  0.00    +0.000 A 
ENDBRANCH  10  11
ENDBRANCH   1  10
TORSDOF 2
ENDMDL
MODEL 4
REMARK VINA RESULT:    -5.783      4.257      5.568
REMARK INTER + INTRA:          -6.562
REMARK INTER:                  -6.482
REMARK INTRA:                  -0.080
REMARK UNBOUND:                -0.102
REMARK  Name = 1550473
REMARK  2 active torsions:
REMARK  status: ('A' for Active; 'I' for Inactive)
REMARK    1  A    between atoms: N_1  and  C_4
REMARK    2  A    between atoms: C_4  and  C_5
REMARK                            x       y       z     vdW  Elec       q    Type
REMARK                         _______ _______ _______ _____ _____    ______ ____
ROOT
ATOM      1  N   UNL     1     -10.677  -8.589  -7.862  0.00  0.00    -0.354 N 
ATOM      2  N   UNL     1      -9.711  -6.484  -7.867  0.00  0.00    -0.372 N 
ATOM      3  N   UNL     1      -8.364  -8.322  -7.596  0.00  0.00    -0.372 N 
ATOM      4  C   UNL     1      -9.588  -7.814  -7.774  0.00  0.00    +0.166 C 
ATOM      5  H   UNL     1     -11.580  -8.141  -7.967  0.00  0.00    +0.163 HD
ATOM      6  H   UNL     1      -8.907  -5.874  -7.808  0.00  0.00    +0.159 HD
ATOM      7  H   UNL     1     -10.609  -6.041  -8.018  0.00  0.00    +0.159 HD
ATOM      8  H   UNL     1      -8.205  -9.318  -7.512  0.00  0.00    +0.159 HD
ATOM      9  H   UNL     1      -7.549  -7.727  -7.523  0.00  0.00    +0.159 HD
ENDROOT
BRANCH   1  10
ATOM     10  C   UNL     1     -10.646 -10.050  -7.828  0.00  0.00    +0.151 C 
BRANCH  10  11
ATOM     11  C   UNL     1     -10.544 -10.573  -9.234  0.00  0.00    -0.028 A 
ATOM     12  C   UNL     1     -10.975  -9.792 -10.317  0.00  0.00    +0.005 A 
ATOM     13  C   UNL     1     -10.011 -11.845  -9.492  0.00  0.00    +0.005 A 
ATOM     14  C   UNL     1     -10.853 -10.265 -11.626  0.00  0.00    +0.000 A 
ATOM     15  C   UNL     1      -9.892 -12.314 -10.800  0.00  0.00    +0.000 A 
ATOM     16  C   UNL     1     -10.311 -11.522 -11.867  0.00  0.00    +0.000 A 
ENDBRANCH  10  11
ENDBRANCH   1  10
TORSDOF 2
ENDMDL
MODEL 5
REMARK VINA RESULT:    -5.695      4.676      6.485
REMARK INTER + INTRA:          -6.463
REMARK INTER:                  -6.353
REMARK INTRA:                  -0.110
REMARK UNBOUND:                -0.102
REMARK  Name = 1550473
REMARK  2 active torsions:
REMARK  status: ('A' for Active; 'I' for Inactive)
REMARK    1  A    between atoms: N_1  and  C_4
REMARK    2  A    between atoms: C_4  and  C_5
REMARK                            x       y       z     vdW  Elec       q    Type
REMARK                         _______ _______ _______ _____ _____    ______ ____
ROOT
ATOM      1  N   UNL     1     -10.535  -9.586  -6.697  0.00  0.00    -0.354 N 
ATOM      2  N   UNL     1     -10.267  -7.951  -5.078  0.00  0.00    -0.372 N 
ATOM      3  N   UNL     1     -11.655  -9.725  -4.643  0.00  0.00    -0.372 N 
ATOM      4  C   UNL     1     -10.823  -9.100  -5.482  0.00  0.00    +0.166 C 
ATOM      5  H   UNL     1      -9.920  -9.048  -7.297  0.00  0.00    +0.163 HD
ATOM      6  H   UNL     1     -10.462  -7.561  -4.166  0.00  0.00    +0.159 HD
ATOM      7  H   UNL     1      -9.617  -7.439  -5.663  0.00  0.00    +0.159 HD
ATOM      8  H   UNL     1     -12.111 -10.593  -4.889  0.00  0.00    +0.159 HD
ATOM      9  H   UNL     1     -11.872  -9.345  -3.730  0.00  0.00    +0.159 HD
ENDROOT
BRANCH   1  10
ATOM     10  C   UNL     1     -11.045 -10.856  -7.211  0.00  0.00    +0.151 C 
BRANCH  10  11
ATOM     11  C   UNL     1     -10.784 -10.927  -8.690  0.00  0.00    -0.028 A 
ATOM     12  C   UNL     1     -11.170  -9.875  -9.533  0.00  0.00    +0.005 A 
ATOM     13  C   UNL     1     -10.145 -12.042  -9.254  0.00  0.00    +0.005 A 
ATOM     14  C   UNL     1     -10.901  -9.927 -10.903  0.00  0.00    +0.000 A 
ATOM     15  C   UNL     1      -9.879 -12.091 -10.623  0.00  0.00    +0.000 A 
ATOM     16  C   UNL     1     -10.255 -11.032 -11.446  0.00  0.00    +0.000 A 
ENDBRANCH  10  11
ENDBRANCH   1  10
TORSDOF 2
ENDMDL
MODEL 6
REMARK VINA RESULT:    -5.457      5.230      6.405
REMARK INTER + INTRA:          -6.197
REMARK INTER:                  -6.017
REMARK INTRA:                  -0.180
REMARK UNBOUND:                -0.102
REMARK  Name = 1550473
REMARK  2 active torsions:
REMARK  status: ('A' for Active; 'I' for Inactive)
REMARK    1  A    between atoms: N_1  and  C_4
REMARK    2  A    between atoms: C_4  and  C_5
REMARK                            x       y       z     vdW  Elec       q    Type
REMARK                         _______ _______ _______ _____ _____    ______ ____
ROOT
ATOM      1  N   UNL     1     -12.147 -10.723  -5.693  0.00  0.00    -0.354 N 
ATOM      2  N   UNL     1     -14.313 -11.268  -5.080  0.00  0.00    -0.372 N 
ATOM      3  N   UNL     1     -13.945  -9.323  -6.241  0.00  0.00    -0.372 N 
ATOM      4  C   UNL     1     -13.454 -10.432  -5.677  0.00  0.00    +0.166 C 
ATOM      5  H   UNL     1     -11.835 -11.564  -5.221  0.00  0.00    +0.163 HD
ATOM      6  H   UNL     1     -15.305 -11.076  -5.054  0.00  0.00    +0.159 HD
ATOM      7  H   UNL     1     -14.004 -12.130  -4.648  0.00  0.00    +0.159 HD
ATOM      8  H   UNL     1     -13.349  -8.649  -6.703  0.00  0.00    +0.159 HD
ATOM      9  H   UNL     1     -14.934  -9.108  -6.216  0.00  0.00    +0.159 HD
ENDROOT
BRANCH   1  10
ATOM     10  C   UNL     1     -11.136  -9.907  -6.363  0.00  0.00    +0.151 C 
BRANCH  10  11
ATOM     11  C   UNL     1     -10.888 -10.463  -7.738  0.00  0.00    -0.028 A 
ATOM     12  C   UNL     1     -11.131  -9.681  -8.877  0.00  0.00    +0.005 A 
ATOM     13  C   UNL     1     -10.404 -11.769  -7.909  0.00  0.00    +0.005 A 
ATOM     14  C   UNL     1     -10.872 -10.187 -10.153  0.00  0.00    +0.000 A 
ATOM     15  C   UNL     1     -10.148 -12.271  -9.185  0.00  0.00    +0.000 A 
ATOM     16  C   UNL     1     -10.380 -11.478 -10.307  0.00  0.00    +0.000 A 
ENDBRANCH  10  11
ENDBRANCH   1  10
TORSDOF 2
ENDMDL
MODEL 7
REMARK VINA RESULT:    -5.074     18.049     18.864
REMARK INTER + INTRA:          -5.769
REMARK INTER:                  -5.724
REMARK INTRA:                  -0.046
REMARK UNBOUND:                -0.102
REMARK  Name = 1550473
REMARK  2 active torsions:
REMARK  status: ('A' for Active; 'I' for Inactive)
REMARK    1  A    between atoms: N_1  and  C_4
REMARK    2  A    between atoms: C_4  and  C_5
REMARK                            x       y       z     vdW  Elec       q    Type
REMARK                         _______ _______ _______ _____ _____    ______ ____
ROOT
ATOM      1  N   UNL     1       2.386 -19.282  -0.683  0.00  0.00    -0.354 N 
ATOM      2  N   UNL     1       2.295 -18.663   1.547  0.00  0.00    -0.372 N 
ATOM      3  N   UNL     1       0.774 -17.763   0.084  0.00  0.00    -0.372 N 
ATOM      4  C   UNL     1       1.817 -18.572   0.300  0.00  0.00    +0.166 C 
ATOM      5  H   UNL     1       3.193 -19.853  -0.459  0.00  0.00    +0.163 HD
ATOM      6  H   UNL     1       1.883 -18.143   2.310  0.00  0.00    +0.159 HD
ATOM      7  H   UNL     1       3.072 -19.271   1.777  0.00  0.00    +0.159 HD
ATOM      8  H   UNL     1       0.370 -17.645  -0.836  0.00  0.00    +0.159 HD
ATOM      9  H   UNL     1       0.356 -17.225   0.832  0.00  0.00    +0.159 HD
ENDROOT
BRANCH   1  10
ATOM     10  C   UNL     1       1.909 -19.294  -2.064  0.00  0.00    +0.151 C 
BRANCH  10  11
ATOM     11  C   UNL     1       2.860 -18.504  -2.920  0.00  0.00    -0.028 A 
ATOM     12  C   UNL     1       3.038 -18.828  -4.273  0.00  0.00    +0.005 A 
ATOM     13  C   UNL     1       3.581 -17.426  -2.385  0.00  0.00    +0.005 A 
ATOM     14  C   UNL     1       3.898 -18.076  -5.076  0.00  0.00    +0.000 A 
ATOM     15  C   UNL     1       4.440 -16.677  -3.190  0.00  0.00    +0.000 A 
ATOM     16  C   UNL     1       4.597 -17.001  -4.536  0.00  0.00    +0.000 A 
ENDBRANCH  10  11
ENDBRANCH   1  10
TORSDOF 2
ENDMDL
MODEL 8
REMARK VINA RESULT:    -4.855      5.645      7.204
REMARK INTER + INTRA:          -5.524
REMARK INTER:                  -5.363
REMARK INTRA:                  -0.162
REMARK UNBOUND:                -0.102
REMARK  Name = 1550473
REMARK  2 active torsions:
REMARK  status: ('A' for Active; 'I' for Inactive)
REMARK    1  A    between atoms: N_1  and  C_4
REMARK    2  A    between atoms: C_4  and  C_5
REMARK                            x       y       z     vdW  Elec       q    Type
REMARK                         _______ _______ _______ _____ _____    ______ ____
ROOT
ATOM      1  N   UNL     1      -8.331  -8.275  -7.594  0.00  0.00    -0.354 N 
ATOM      2  N   UNL     1      -7.691  -9.920  -9.093  0.00  0.00    -0.372 N 
ATOM      3  N   UNL     1      -9.925  -9.622  -8.660  0.00  0.00    -0.372 N 
ATOM      4  C   UNL     1      -8.656  -9.262  -8.439  0.00  0.00    +0.166 C 
ATOM      5  H   UNL     1      -7.349  -8.070  -7.447  0.00  0.00    +0.163 HD
ATOM      6  H   UNL     1      -7.906 -10.667  -9.740  0.00  0.00    +0.159 HD
ATOM      7  H   UNL     1      -6.713  -9.683  -8.979  0.00  0.00    +0.159 HD
ATOM      8  H   UNL     1     -10.699  -9.169  -8.193  0.00  0.00    +0.159 HD
ATOM      9  H   UNL     1     -10.159 -10.375  -9.295  0.00  0.00    +0.159 HD
ENDROOT
BRANCH   1  10
ATOM     10  C   UNL     1      -9.308  -7.460  -6.873  0.00  0.00    +0.151 C 
BRANCH  10  11
ATOM     11  C   UNL     1      -9.215  -6.039  -7.356  0.00  0.00    -0.028 A 
ATOM     12  C   UNL     1      -9.946  -5.619  -8.477  0.00  0.00    +0.005 A 
ATOM     13  C   UNL     1      -8.402  -5.107  -6.694  0.00  0.00    +0.005 A 
ATOM     14  C   UNL     1      -9.883  -4.291  -8.908  0.00  0.00    +0.000 A 
ATOM     15  C   UNL     1      -8.341  -3.783  -7.128  0.00  0.00    +0.000 A 
ATOM     16  C   UNL     1      -9.083  -3.375  -8.233  0.00  0.00    +0.000 A 
ENDBRANCH  10  11
ENDBRANCH   1  10
TORSDOF 2
ENDMDL
MODEL 9
REMARK VINA RESULT:    -4.789     18.111     19.414
REMARK INTER + INTRA:          -5.451
REMARK INTER:                  -5.296
REMARK INTRA:                  -0.155
REMARK UNBOUND:                -0.102
REMARK  Name = 1550473
REMARK  2 active torsions:
REMARK  status: ('A' for Active; 'I' for Inactive)
REMARK    1  A    between atoms: N_1  and  C_4
REMARK    2  A    between atoms: C_4  and  C_5
REMARK                            x       y       z     vdW  Elec       q    Type
REMARK                         _______ _______ _______ _____ _____    ______ ____
ROOT
ATOM      1  N   UNL     1       1.950 -18.941  -1.426  0.00  0.00    -0.354 N 
ATOM      2  N   UNL     1       1.513 -20.907  -0.282  0.00  0.00    -0.372 N 
ATOM      3  N   UNL     1       1.986 -19.008   0.917  0.00  0.00    -0.372 N 
ATOM      4  C   UNL     1       1.820 -19.604  -0.269  0.00  0.00    +0.166 C 
ATOM      5  H   UNL     1       1.841 -19.457  -2.291  0.00  0.00    +0.163 HD
ATOM      6  H   UNL     1       1.405 -21.432   0.575  0.00  0.00    +0.159 HD
ATOM      7  H   UNL     1       1.359 -21.410  -1.147  0.00  0.00    +0.159 HD
ATOM      8  H   UNL     1       2.224 -18.028   0.995  0.00  0.00    +0.159 HD
ATOM      9  H   UNL     1       1.893 -19.520   1.785  0.00  0.00    +0.159 HD
ENDROOT
BRANCH   1  10
ATOM     10  C   UNL     1       2.229 -17.509  -1.521  0.00  0.00    +0.151 C 
BRANCH  10  11
ATOM     11  C   UNL     1       3.609 -17.314  -2.086  0.00  0.00    -0.028 A 
ATOM     12  C   UNL     1       4.741 -17.671  -1.340  0.00  0.00    +0.005 A 
ATOM     13  C   UNL     1       3.790 -16.778  -3.371  0.00  0.00    +0.005 A 
ATOM     14  C   UNL     1       6.022 -17.519  -1.877  0.00  0.00    +0.000 A 
ATOM     15  C   UNL     1       5.070 -16.626  -3.903  0.00  0.00    +0.000 A 
ATOM     16  C   UNL     1       6.186 -16.999  -3.157  0.00  0.00    +0.000 A 
ENDBRANCH  10  11
ENDBRANCH   1  10
TORSDOF 2
ENDMDL
