MODEL 1
REMARK VINA RESULT:    -5.340      0.000      0.000
REMARK INTER + INTRA:          -6.085
REMARK INTER:                  -5.964
REMARK INTRA:                  -0.121
REMARK UNBOUND:                -0.121
REMARK  Name = 1550473
REMARK  2 active torsions:
REMARK  status: ('A' for Active; 'I' for Inactive)
REMARK    1  A    between atoms: N_1  and  C_4
REMARK    2  A    between atoms: C_4  and  C_5
REMARK                            x       y       z     vdW  Elec       q    Type
REMARK                         _______ _______ _______ _____ _____    ______ ____
ROOT
ATOM      1  N   UNL     1     -11.556   7.160   5.335  0.00  0.00    -0.354 N 
ATOM      2  N   UNL     1      -9.401   7.240   6.181  0.00  0.00    -0.372 N 
ATOM      3  N   UNL     1     -10.885   8.890   6.767  0.00  0.00    -0.372 N 
ATOM      4  C   UNL     1     -10.629   7.765   6.089  0.00  0.00    +0.166 C 
ATOM      5  H   UNL     1     -11.291   6.327   4.822  0.00  0.00    +0.163 HD
ATOM      6  H   UNL     1      -8.682   7.673   6.745  0.00  0.00    +0.159 HD
ATOM      7  H   UNL     1      -9.152   6.382   5.704  0.00  0.00    +0.159 HD
ATOM      8  H   UNL     1     -11.790   9.340   6.735  0.00  0.00    +0.159 HD
ATOM      9  H   UNL     1     -10.175   9.344   7.328  0.00  0.00    +0.159 HD
ENDROOT
BRANCH   1  10
ATOM     10  C   UNL     1     -12.938   7.620   5.212  0.00  0.00    +0.151 C 
BRANCH  10  11
ATOM     11  C   UNL     1     -13.767   6.527   4.597  0.00  0.00    -0.028 A 
ATOM     12  C   UNL     1     -15.167   6.570   4.666  0.00  0.00    +0.005 A 
ATOM     13  C   UNL     1     -13.159   5.447   3.938  0.00  0.00    +0.005 A 
ATOM     14  C   UNL     1     -15.939   5.570   4.070  0.00  0.00    +0.000 A 
ATOM     15  C   UNL     1     -13.932   4.450   3.345  0.00  0.00    +0.000 A 
ATOM     16  C   UNL     1     -15.322   4.513   3.408  0.00  0.00    +0.000 A 
ENDBRANCH  10  11
ENDBRANCH   1  10
TORSDOF 2
ENDMDL
MODEL 2
REMARK VINA RESULT:    -5.082      1.187      2.228
REMARK INTER + INTRA:          -5.798
REMARK INTER:                  -5.675
REMARK INTRA:                  -0.122
REMARK UNBOUND:                -0.121
REMARK  Name = 1550473
REMARK  2 active torsions:
REMARK  status: ('A' for Active; 'I' for Inactive)
REMARK    1  A    between atoms: N_1  and  C_4
REMARK    2  A    between atoms: C_4  and  C_5
REMARK                            x       y       z     vdW  Elec       q    Type
REMARK                         _______ _______ _______ _____ _____    ______ ____
ROOT
ATOM      1  N   UNL     1     -11.682   8.782   5.695  0.00  0.00    -0.354 N 
ATOM      2  N   UNL     1     -10.917  10.766   6.613  0.00  0.00    -0.372 N 
ATOM      3  N   UNL     1      -9.504   8.959   6.544  0.00  0.00    -0.372 N 
ATOM      4  C   UNL     1     -10.704   9.488   6.279  0.00  0.00    +0.166 C 
ATOM      5  H   UNL     1     -12.578   9.232   5.549  0.00  0.00    +0.163 HD
ATOM      6  H   UNL     1     -10.197  11.325   7.051  0.00  0.00    +0.159 HD
ATOM      7  H   UNL     1     -11.799  11.226   6.424  0.00  0.00    +0.159 HD
ATOM      8  H   UNL     1      -9.282   7.998   6.322  0.00  0.00    +0.159 HD
ATOM      9  H   UNL     1      -8.775   9.498   6.992  0.00  0.00    +0.159 HD
ENDROOT
BRANCH   1  10
ATOM     10  C   UNL     1     -11.535   7.399   5.243  0.00  0.00    +0.151 C 
BRANCH  10  11
ATOM     11  C   UNL     1     -12.886   6.861   4.860  0.00  0.00    -0.028 A 
ATOM     12  C   UNL     1     -12.995   5.701   4.080  0.00  0.00    +0.005 A 
ATOM     13  C   UNL     1     -14.061   7.504   5.280  0.00  0.00    +0.005 A 
ATOM     14  C   UNL     1     -14.250   5.184   3.749  0.00  0.00    +0.000 A 
ATOM     15  C   UNL     1     -15.312   6.985   4.947  0.00  0.00    +0.000 A 
ATOM     16  C   UNL     1     -15.406   5.824   4.184  0.00  0.00    +0.000 A 
ENDBRANCH  10  11
ENDBRANCH   1  10
TORSDOF 2
ENDMDL
MODEL 3
REMARK VINA RESULT:    -5.005      3.313      4.391
REMARK INTER + INTRA:          -5.711
REMARK INTER:                  -5.530
REMARK INTRA:                  -0.181
REMARK UNBOUND:                -0.121
REMARK  Name = 1550473
REMARK  2 active torsions:
REMARK  status: ('A' for Active; 'I' for Inactive)
REMARK    1  A    between atoms: N_1  and  C_4
REMARK    2  A    between atoms: C_4  and  C_5
REMARK                            x       y       z     vdW  Elec       q    Type
REMARK                         _______ _______ _______ _____ _____    ______ ____
ROOT
ATOM      1  N   UNL     1     -11.571   8.030   5.709  0.00  0.00    -0.354 N 
ATOM      2  N   UNL     1      -9.567   6.895   5.954  0.00  0.00    -0.372 N 
ATOM      3  N   UNL     1      -9.702   9.073   6.664  0.00  0.00    -0.372 N 
ATOM      4  C   UNL     1     -10.292   8.009   6.108  0.00  0.00    +0.166 C 
ATOM      5  H   UNL     1     -11.951   7.200   5.267  0.00  0.00    +0.163 HD
ATOM      6  H   UNL     1      -8.601   6.849   6.249  0.00  0.00    +0.159 HD
ATOM      7  H   UNL     1      -9.962   6.053   5.554  0.00  0.00    +0.159 HD
ATOM      8  H   UNL     1     -10.193   9.946   6.803  0.00  0.00    +0.159 HD
ATOM      9  H   UNL     1      -8.733   9.049   6.955  0.00  0.00    +0.159 HD
ENDROOT
BRANCH   1  10
ATOM     10  C   UNL     1     -12.463   9.175   5.881  0.00  0.00    +0.151 C 
BRANCH  10  11
ATOM     11  C   UNL     1     -12.540   9.937   4.587  0.00  0.00    -0.028 A 
ATOM     12  C   UNL     1     -11.920  11.189   4.460  0.00  0.00    +0.005 A 
ATOM     13  C   UNL     1     -13.225   9.409   3.482  0.00  0.00    +0.005 A 
ATOM     14  C   UNL     1     -11.966  11.883   3.249  0.00  0.00    +0.000 A 
ATOM     15  C   UNL     1     -13.269  10.106   2.274  0.00  0.00    +0.000 A 
ATOM     16  C   UNL     1     -12.637  11.342   2.157  0.00  0.00    +0.000 A 
ENDBRANCH  10  11
ENDBRANCH   1  10
TORSDOF 2
ENDMDL
MODEL 4
REMARK VINA RESULT:    -4.851      3.962      5.076
REMARK INTER + INTRA:          -5.539
REMARK INTER:                  -5.405
REMARK INTRA:                  -0.135
REMARK UNBOUND:                -0.121
REMARK  Name = 1550473
REMARK  2 active torsions:
REMARK  status: ('A' for Active; 'I' for Inactive)
REMARK    1  A    between atoms: N_1  and  C_4
REMARK    2  A    between atoms: C_4  and  C_5
REMARK                            x       y       z     vdW  Elec       q    Type
REMARK                         _______ _______ _______ _____ _____    ______ ____
ROOT
ATOM      1  N   UNL     1     -11.644   7.871   6.838  0.00  0.00    -0.354 N 
ATOM      2  N   UNL     1      -9.663   6.953   6.065  0.00  0.00    -0.372 N 
ATOM      3  N   UNL     1      -9.732   9.194   6.552  0.00  0.00    -0.372 N 
ATOM      4  C   UNL     1     -10.358   8.015   6.490  0.00  0.00    +0.166 C 
ATOM      5  H   UNL     1     -12.070   6.956   6.740  0.00  0.00    +0.163 HD
ATOM      6  H   UNL     1      -8.691   7.031   5.799  0.00  0.00    +0.159 HD
ATOM      7  H   UNL     1     -10.078   6.031   6.011  0.00  0.00    +0.159 HD
ATOM      8  H   UNL     1     -10.202  10.035   6.859  0.00  0.00    +0.159 HD
ATOM      9  H   UNL     1      -8.762   9.294   6.279  0.00  0.00    +0.159 HD
ENDROOT
BRANCH   1  10
ATOM     10  C   UNL     1     -12.475   8.952   7.365  0.00  0.00    +0.151 C 
BRANCH  10  11
ATOM     11  C   UNL     1     -13.154   8.482   8.622  0.00  0.00    -0.028 A 
ATOM     12  C   UNL     1     -13.493   7.131   8.785  0.00  0.00    +0.005 A 
ATOM     13  C   UNL     1     -13.456   9.382   9.655  0.00  0.00    +0.005 A 
ATOM     14  C   UNL     1     -14.097   6.689   9.965  0.00  0.00    +0.000 A 
ATOM     15  C   UNL     1     -14.059   8.937  10.831  0.00  0.00    +0.000 A 
ATOM     16  C   UNL     1     -14.377   7.590  10.987  0.00  0.00    +0.000 A 
ENDBRANCH  10  11
ENDBRANCH   1  10
TORSDOF 2
ENDMDL
MODEL 5
REMARK VINA RESULT:    -4.687     21.116     22.451
REMARK INTER + INTRA:          -5.356
REMARK INTER:                  -5.227
REMARK INTRA:                  -0.129
REMARK UNBOUND:                -0.121
REMARK  Name = 1550473
REMARK  2 active torsions:
REMARK  status: ('A' for Active; 'I' for Inactive)
REMARK    1  A    between atoms: N_1  and  C_4
REMARK    2  A    between atoms: C_4  and  C_5
REMARK                            x       y       z     vdW  Elec       q    Type
REMARK                         _______ _______ _______ _____ _____    ______ ____
ROOT
ATOM      1  N   UNL     1      -7.602 -13.815   1.926  0.00  0.00    -0.354 N 
ATOM      2  N   UNL     1      -7.870 -15.344   0.207  0.00  0.00    -0.372 N 
ATOM      3  N   UNL     1      -5.754 -14.635   0.742  0.00  0.00    -0.372 N 
ATOM      4  C   UNL     1      -7.071 -14.587   0.969  0.00  0.00    +0.166 C 
ATOM      5  H   UNL     1      -8.611 -13.801   2.028  0.00  0.00    +0.163 HD
ATOM      6  H   UNL     1      -7.497 -15.939  -0.521  0.00  0.00    +0.159 HD
ATOM      7  H   UNL     1      -8.873 -15.362   0.342  0.00  0.00    +0.159 HD
ATOM      8  H   UNL     1      -5.097 -14.084   1.278  0.00  0.00    +0.159 HD
ATOM      9  H   UNL     1      -5.363 -15.216   0.011  0.00  0.00    +0.159 HD
ENDROOT
BRANCH   1  10
ATOM     10  C   UNL     1      -6.816 -12.995   2.846  0.00  0.00    +0.151 C 
BRANCH  10  11
ATOM     11  C   UNL     1      -6.372 -13.845   4.004  0.00  0.00    -0.028 A 
ATOM     12  C   UNL     1      -7.309 -14.563   4.761  0.00  0.00    +0.005 A 
ATOM     13  C   UNL     1      -5.014 -13.941   4.347  0.00  0.00    +0.005 A 
ATOM     14  C   UNL     1      -6.894 -15.376   5.819  0.00  0.00    +0.000 A 
ATOM     15  C   UNL     1      -4.604 -14.753   5.404  0.00  0.00    +0.000 A 
ATOM     16  C   UNL     1      -5.544 -15.472   6.138  0.00  0.00    +0.000 A 
ENDBRANCH  10  11
ENDBRANCH   1  10
TORSDOF 2
ENDMDL
MODEL 6
REMARK VINA RESULT:    -4.634      1.668      2.592
REMARK INTER + INTRA:          -5.297
REMARK INTER:                  -5.156
REMARK INTRA:                  -0.141
REMARK UNBOUND:                -0.121
REMARK  Name = 1550473
REMARK  2 active torsions:
REMARK  status: ('A' for Active; 'I' for Inactive)
REMARK    1  A    between atoms: N_1  and  C_4
REMARK    2  A    between atoms: C_4  and  C_5
REMARK                            x       y       z     vdW  Elec       q    Type
REMARK                         _______ _______ _______ _____ _____    ______ ____
ROOT
ATOM      1  N   UNL     1     -11.629   8.219   6.035  0.00  0.00    -0.354 N 
ATOM      2  N   UNL     1      -9.609   9.212   6.581  0.00  0.00    -0.372 N 
ATOM      3  N   UNL     1      -9.623   7.011   5.932  0.00  0.00    -0.372 N 
ATOM      4  C   UNL     1     -10.299   8.138   6.179  0.00  0.00    +0.166 C 
ATOM      5  H   UNL     1     -12.086   9.093   6.267  0.00  0.00    +0.163 HD
ATOM      6  H   UNL     1      -8.605   9.183   6.695  0.00  0.00    +0.159 HD
ATOM      7  H   UNL     1     -10.063  10.098   6.768  0.00  0.00    +0.159 HD
ATOM      8  H   UNL     1     -10.086   6.164   5.632  0.00  0.00    +0.159 HD
ATOM      9  H   UNL     1      -8.619   6.959   6.052  0.00  0.00    +0.159 HD
ENDROOT
BRANCH   1  10
ATOM     10  C   UNL     1     -12.467   7.123   5.551  0.00  0.00    +0.151 C 
BRANCH  10  11
ATOM     11  C   UNL     1     -13.408   7.651   4.503  0.00  0.00    -0.028 A 
ATOM     12  C   UNL     1     -14.497   6.880   4.072  0.00  0.00    +0.005 A 
ATOM     13  C   UNL     1     -13.219   8.923   3.942  0.00  0.00    +0.005 A 
ATOM     14  C   UNL     1     -15.389   7.381   3.120  0.00  0.00    +0.000 A 
ATOM     15  C   UNL     1     -14.111   9.420   2.992  0.00  0.00    +0.000 A 
ATOM     16  C   UNL     1     -15.197   8.649   2.583  0.00  0.00    +0.000 A 
ENDBRANCH  10  11
ENDBRANCH   1  10
TORSDOF 2
ENDMDL
MODEL 7
REMARK VINA RESULT:    -4.591      5.383      7.127
REMARK INTER + INTRA:          -5.249
REMARK INTER:                  -5.089
REMARK INTRA:                  -0.160
REMARK UNBOUND:                -0.121
REMARK  Name = 1550473
REMARK  2 active torsions:
REMARK  status: ('A' for Active; 'I' for Inactive)
REMARK    1  A    between atoms: N_1  and  C_4
REMARK    2  A    between atoms: C_4  and  C_5
REMARK                            x       y       z     vdW  Elec       q    Type
REMARK                         _______ _______ _______ _____ _____    ______ ____
ROOT
ATOM      1  N   UNL     1     -15.970   2.335   3.498  0.00  0.00    -0.354 N 
ATOM      2  N   UNL     1     -14.036   3.550   3.113  0.00  0.00    -0.372 N 
ATOM      3  N   UNL     1     -16.020   4.321   2.255  0.00  0.00    -0.372 N 
ATOM      4  C   UNL     1     -15.357   3.395   2.956  0.00  0.00    +0.166 C 
ATOM      5  H   UNL     1     -15.406   1.653   3.992  0.00  0.00    +0.163 HD
ATOM      6  H   UNL     1     -13.547   4.342   2.719  0.00  0.00    +0.159 HD
ATOM      7  H   UNL     1     -13.482   2.891   3.646  0.00  0.00    +0.159 HD
ATOM      8  H   UNL     1     -17.017   4.259   2.096  0.00  0.00    +0.159 HD
ATOM      9  H   UNL     1     -15.546   5.115   1.843  0.00  0.00    +0.159 HD
ENDROOT
BRANCH   1  10
ATOM     10  C   UNL     1     -17.411   2.101   3.431  0.00  0.00    +0.151 C 
BRANCH  10  11
ATOM     11  C   UNL     1     -17.683   0.969   2.479  0.00  0.00    -0.028 A 
ATOM     12  C   UNL     1     -18.759   1.035   1.583  0.00  0.00    +0.005 A 
ATOM     13  C   UNL     1     -16.863  -0.170   2.465  0.00  0.00    +0.005 A 
ATOM     14  C   UNL     1     -18.994  -0.003   0.678  0.00  0.00    +0.000 A 
ATOM     15  C   UNL     1     -17.101  -1.204   1.560  0.00  0.00    +0.000 A 
ATOM     16  C   UNL     1     -18.165  -1.119   0.665  0.00  0.00    +0.000 A 
ENDBRANCH  10  11
ENDBRANCH   1  10
TORSDOF 2
ENDMDL
MODEL 8
REMARK VINA RESULT:    -4.587     15.214     16.587
REMARK INTER + INTRA:          -5.244
REMARK INTER:                  -5.140
REMARK INTRA:                  -0.104
REMARK UNBOUND:                -0.121
REMARK  Name = 1550473
REMARK  2 active torsions:
REMARK  status: ('A' for Active; 'I' for Inactive)
REMARK    1  A    between atoms: N_1  and  C_4
REMARK    2  A    between atoms: C_4  and  C_5
REMARK                            x       y       z     vdW  Elec       q    Type
REMARK                         _______ _______ _______ _____ _____    ______ ____
ROOT
ATOM      1  N   UNL     1      -5.894  -2.939  16.875  0.00  0.00    -0.354 N 
ATOM      2  N   UNL     1      -5.230  -4.837  15.726  0.00  0.00    -0.372 N 
ATOM      3  N   UNL     1      -4.897  -4.740  17.994  0.00  0.00    -0.372 N 
ATOM      4  C   UNL     1      -5.344  -4.160  16.875  0.00  0.00    +0.166 C 
ATOM      5  H   UNL     1      -6.185  -2.542  15.989  0.00  0.00    +0.163 HD
ATOM      6  H   UNL     1      -4.823  -5.762  15.696  0.00  0.00    +0.159 HD
ATOM      7  H   UNL     1      -5.565  -4.457  14.849  0.00  0.00    +0.159 HD
ATOM      8  H   UNL     1      -4.948  -4.280  18.893  0.00  0.00    +0.159 HD
ATOM      9  H   UNL     1      -4.475  -5.660  17.982  0.00  0.00    +0.159 HD
ENDROOT
BRANCH   1  10
ATOM     10  C   UNL     1      -6.112  -2.140  18.080  0.00  0.00    +0.151 C 
BRANCH  10  11
ATOM     11  C   UNL     1      -7.173  -1.111  17.801  0.00  0.00    -0.028 A 
ATOM     12  C   UNL     1      -7.072  -0.269  16.683  0.00  0.00    +0.005 A 
ATOM     13  C   UNL     1      -8.284  -0.976  18.648  0.00  0.00    +0.005 A 
ATOM     14  C   UNL     1      -8.072   0.667  16.407  0.00  0.00    +0.000 A 
ATOM     15  C   UNL     1      -9.279  -0.040  18.369  0.00  0.00    +0.000 A 
ATOM     16  C   UNL     1      -9.174   0.780  17.248  0.00  0.00    +0.000 A 
ENDBRANCH  10  11
ENDBRANCH   1  10
TORSDOF 2
ENDMDL
MODEL 9
REMARK VINA RESULT:    -4.514     61.471     62.745
REMARK INTER + INTRA:          -5.163
REMARK INTER:                  -5.036
REMARK INTRA:                  -0.127
REMARK UNBOUND:                -0.121
REMARK  Name = 1550473
REMARK  2 active torsions:
REMARK  status: ('A' for Active; 'I' for Inactive)
REMARK    1  A    between atoms: N_1  and  C_4
REMARK    2  A    between atoms: C_4  and  C_5
REMARK                            x       y       z     vdW  Elec       q    Type
REMARK                         _______ _______ _______ _____ _____    ______ ____
ROOT
ATOM      1  N   UNL     1       6.339 -15.511 -51.771  0.00  0.00    -0.354 N 
ATOM      2  N   UNL     1       5.057 -16.517 -53.416  0.00  0.00    -0.372 N 
ATOM      3  N   UNL     1       5.483 -17.673 -51.480  0.00  0.00    -0.372 N 
ATOM      4  C   UNL     1       5.635 -16.563 -52.210  0.00  0.00    +0.166 C 
ATOM      5  H   UNL     1       6.443 -14.711 -52.385  0.00  0.00    +0.163 HD
ATOM      6  H   UNL     1       4.516 -17.294 -53.773  0.00  0.00    +0.159 HD
ATOM      7  H   UNL     1       5.123 -15.699 -54.008  0.00  0.00    +0.159 HD
ATOM      8  H   UNL     1       5.899 -17.772 -50.564  0.00  0.00    +0.159 HD
ATOM      9  H   UNL     1       4.955 -18.465 -51.824  0.00  0.00    +0.159 HD
ENDROOT
BRANCH   1  10
ATOM     10  C   UNL     1       6.963 -15.438 -50.451  0.00  0.00    +0.151 C 
BRANCH  10  11
ATOM     11  C   UNL     1       7.193 -13.995 -50.096  0.00  0.00    -0.028 A 
ATOM     12  C   UNL     1       6.893 -12.979 -51.014  0.00  0.00    +0.005 A 
ATOM     13  C   UNL     1       7.706 -13.637 -48.839  0.00  0.00    +0.005 A 
ATOM     14  C   UNL     1       7.078 -11.637 -50.674  0.00  0.00    +0.000 A 
ATOM     15  C   UNL     1       7.890 -12.296 -48.503  0.00  0.00    +0.000 A 
ATOM     16  C   UNL     1       7.574 -11.296 -49.420  0.00  0.00    +0.000 A 
ENDBRANCH  10  11
ENDBRANCH   1  10
TORSDOF 2
ENDMDL
