MODEL 1
REMARK VINA RESULT:    -5.768      0.000      0.000
REMARK INTER + INTRA:          -6.568
REMARK INTER:                  -6.443
REMARK INTRA:                  -0.125
REMARK UNBOUND:                -0.125
REMARK  Name = 1550473
REMARK  2 active torsions:
REMARK  status: ('A' for Active; 'I' for Inactive)
REMARK    1  A    between atoms: N_1  and  C_4
REMARK    2  A    between atoms: C_4  and  C_5
REMARK                            x       y       z     vdW  Elec       q    Type
REMARK                         _______ _______ _______ _____ _____    ______ ____
ROOT
ATOM      1  N   UNL     1      -2.347 -14.916   4.347  0.00  0.00    -0.354 N 
ATOM      2  N   UNL     1      -2.407 -14.475   2.074  0.00  0.00    -0.372 N 
ATOM      3  N   UNL     1      -2.058 -16.631   2.776  0.00  0.00    -0.372 N 
ATOM      4  C   UNL     1      -2.270 -15.346   3.080  0.00  0.00    +0.166 C 
ATOM      5  H   UNL     1      -2.479 -13.925   4.511  0.00  0.00    +0.163 HD
ATOM      6  H   UNL     1      -2.357 -14.771   1.108  0.00  0.00    +0.159 HD
ATOM      7  H   UNL     1      -2.585 -13.492   2.241  0.00  0.00    +0.159 HD
ATOM      8  H   UNL     1      -1.940 -17.338   3.490  0.00  0.00    +0.159 HD
ATOM      9  H   UNL     1      -1.993 -16.945   1.816  0.00  0.00    +0.159 HD
ENDROOT
BRANCH   1  10
ATOM     10  C   UNL     1      -2.265 -15.792   5.514  0.00  0.00    +0.151 C 
BRANCH  10  11
ATOM     11  C   UNL     1      -1.679 -15.022   6.665  0.00  0.00    -0.028 A 
ATOM     12  C   UNL     1      -1.084 -15.694   7.743  0.00  0.00    +0.005 A 
ATOM     13  C   UNL     1      -1.709 -13.619   6.682  0.00  0.00    +0.005 A 
ATOM     14  C   UNL     1      -0.513 -14.979   8.798  0.00  0.00    +0.000 A 
ATOM     15  C   UNL     1      -1.139 -12.908   7.737  0.00  0.00    +0.000 A 
ATOM     16  C   UNL     1      -0.538 -13.588   8.794  0.00  0.00    +0.000 A 
ENDBRANCH  10  11
ENDBRANCH   1  10
TORSDOF 2
ENDMDL
MODEL 2
REMARK VINA RESULT:    -5.145      2.523      4.995
REMARK INTER + INTRA:          -5.871
REMARK INTER:                  -5.699
REMARK INTRA:                  -0.172
REMARK UNBOUND:                -0.125
REMARK  Name = 1550473
REMARK  2 active torsions:
REMARK  status: ('A' for Active; 'I' for Inactive)
REMARK    1  A    between atoms: N_1  and  C_4
REMARK    2  A    between atoms: C_4  and  C_5
REMARK                            x       y       z     vdW  Elec       q    Type
REMARK                         _______ _______ _______ _____ _____    ______ ____
ROOT
ATOM      1  N   UNL     1      -1.730 -15.220   7.289  0.00  0.00    -0.354 N 
ATOM      2  N   UNL     1      -0.038 -13.904   8.167  0.00  0.00    -0.372 N 
ATOM      3  N   UNL     1      -1.583 -12.939   6.771  0.00  0.00    -0.372 N 
ATOM      4  C   UNL     1      -1.129 -14.028   7.401  0.00  0.00    +0.166 C 
ATOM      5  H   UNL     1      -1.319 -16.013   7.768  0.00  0.00    +0.163 HD
ATOM      6  H   UNL     1       0.434 -13.016   8.273  0.00  0.00    +0.159 HD
ATOM      7  H   UNL     1       0.344 -14.688   8.681  0.00  0.00    +0.159 HD
ATOM      8  H   UNL     1      -2.399 -12.968   6.173  0.00  0.00    +0.159 HD
ATOM      9  H   UNL     1      -1.117 -12.045   6.856  0.00  0.00    +0.159 HD
ENDROOT
BRANCH   1  10
ATOM     10  C   UNL     1      -2.954 -15.450   6.524  0.00  0.00    +0.151 C 
BRANCH  10  11
ATOM     11  C   UNL     1      -2.594 -16.030   5.184  0.00  0.00    -0.028 A 
ATOM     12  C   UNL     1      -2.482 -15.203   4.057  0.00  0.00    +0.005 A 
ATOM     13  C   UNL     1      -2.358 -17.406   5.036  0.00  0.00    +0.005 A 
ATOM     14  C   UNL     1      -2.118 -15.737   2.818  0.00  0.00    +0.000 A 
ATOM     15  C   UNL     1      -1.995 -17.935   3.797  0.00  0.00    +0.000 A 
ATOM     16  C   UNL     1      -1.873 -17.100   2.689  0.00  0.00    +0.000 A 
ENDBRANCH  10  11
ENDBRANCH   1  10
TORSDOF 2
ENDMDL
MODEL 3
REMARK VINA RESULT:    -5.028      1.344      2.152
REMARK INTER + INTRA:          -5.741
REMARK INTER:                  -5.635
REMARK INTRA:                  -0.106
REMARK UNBOUND:                -0.125
REMARK  Name = 1550473
REMARK  2 active torsions:
REMARK  status: ('A' for Active; 'I' for Inactive)
REMARK    1  A    between atoms: N_1  and  C_4
REMARK    2  A    between atoms: C_4  and  C_5
REMARK                            x       y       z     vdW  Elec       q    Type
REMARK                         _______ _______ _______ _____ _____    ______ ____
ROOT
ATOM      1  N   UNL     1      -1.918 -16.843   5.241  0.00  0.00    -0.354 N 
ATOM      2  N   UNL     1      -1.326 -18.090   3.381  0.00  0.00    -0.372 N 
ATOM      3  N   UNL     1      -3.259 -16.854   3.319  0.00  0.00    -0.372 N 
ATOM      4  C   UNL     1      -2.174 -17.253   3.992  0.00  0.00    +0.166 C 
ATOM      5  H   UNL     1      -1.095 -17.206   5.708  0.00  0.00    +0.163 HD
ATOM      6  H   UNL     1      -1.491 -18.413   2.437  0.00  0.00    +0.159 HD
ATOM      7  H   UNL     1      -0.480 -18.414   3.833  0.00  0.00    +0.159 HD
ATOM      8  H   UNL     1      -3.941 -16.228   3.726  0.00  0.00    +0.159 HD
ATOM      9  H   UNL     1      -3.447 -17.176   2.378  0.00  0.00    +0.159 HD
ENDROOT
BRANCH   1  10
ATOM     10  C   UNL     1      -2.750 -15.892   5.976  0.00  0.00    +0.151 C 
BRANCH  10  11
ATOM     11  C   UNL     1      -1.868 -15.038   6.845  0.00  0.00    -0.028 A 
ATOM     12  C   UNL     1      -1.903 -13.640   6.738  0.00  0.00    +0.005 A 
ATOM     13  C   UNL     1      -1.000 -15.620   7.781  0.00  0.00    +0.005 A 
ATOM     14  C   UNL     1      -1.106 -12.845   7.566  0.00  0.00    +0.000 A 
ATOM     15  C   UNL     1      -0.205 -14.824   8.605  0.00  0.00    +0.000 A 
ATOM     16  C   UNL     1      -0.260 -13.436   8.499  0.00  0.00    +0.000 A 
ENDBRANCH  10  11
ENDBRANCH   1  10
TORSDOF 2
ENDMDL
MODEL 4
REMARK VINA RESULT:    -4.889      9.611     10.234
REMARK INTER + INTRA:          -5.586
REMARK INTER:                  -5.465
REMARK INTRA:                  -0.120
REMARK UNBOUND:                -0.125
REMARK  Name = 1550473
REMARK  2 active torsions:
REMARK  status: ('A' for Active; 'I' for Inactive)
REMARK    1  A    between atoms: N_1  and  C_4
REMARK    2  A    between atoms: C_4  and  C_5
REMARK                            x       y       z     vdW  Elec       q    Type
REMARK                         _______ _______ _______ _____ _____    ______ ____
ROOT
ATOM      1  N   UNL     1       5.887 -16.507   1.495  0.00  0.00    -0.354 N 
ATOM      2  N   UNL     1       4.689 -18.260   2.420  0.00  0.00    -0.372 N 
ATOM      3  N   UNL     1       3.637 -16.857   0.941  0.00  0.00    -0.372 N 
ATOM      4  C   UNL     1       4.744 -17.195   1.611  0.00  0.00    +0.166 C 
ATOM      5  H   UNL     1       6.682 -16.796   2.053  0.00  0.00    +0.163 HD
ATOM      6  H   UNL     1       3.842 -18.801   2.526  0.00  0.00    +0.159 HD
ATOM      7  H   UNL     1       5.498 -18.575   2.942  0.00  0.00    +0.159 HD
ATOM      8  H   UNL     1       3.610 -16.060   0.319  0.00  0.00    +0.159 HD
ATOM      9  H   UNL     1       2.776 -17.379   1.042  0.00  0.00    +0.159 HD
ENDROOT
BRANCH   1  10
ATOM     10  C   UNL     1       6.067 -15.364   0.601  0.00  0.00    +0.151 C 
BRANCH  10  11
ATOM     11  C   UNL     1       7.325 -14.635   0.982  0.00  0.00    -0.028 A 
ATOM     12  C   UNL     1       7.519 -13.300   0.598  0.00  0.00    +0.005 A 
ATOM     13  C   UNL     1       8.326 -15.271   1.733  0.00  0.00    +0.005 A 
ATOM     14  C   UNL     1       8.674 -12.613   0.978  0.00  0.00    +0.000 A 
ATOM     15  C   UNL     1       9.478 -14.582   2.109  0.00  0.00    +0.000 A 
ATOM     16  C   UNL     1       9.651 -13.252   1.734  0.00  0.00    +0.000 A 
ENDBRANCH  10  11
ENDBRANCH   1  10
TORSDOF 2
ENDMDL
MODEL 5
REMARK VINA RESULT:    -4.880     25.695     26.656
REMARK INTER + INTRA:          -5.575
REMARK INTER:                  -5.432
REMARK INTRA:                  -0.143
REMARK UNBOUND:                -0.125
REMARK  Name = 1550473
REMARK  2 active torsions:
REMARK  status: ('A' for Active; 'I' for Inactive)
REMARK    1  A    between atoms: N_1  and  C_4
REMARK    2  A    between atoms: C_4  and  C_5
REMARK                            x       y       z     vdW  Elec       q    Type
REMARK                         _______ _______ _______ _____ _____    ______ ____
ROOT
ATOM      1  N   UNL     1      16.561  -2.577 -10.958  0.00  0.00    -0.354 N 
ATOM      2  N   UNL     1      14.866  -2.672 -12.532  0.00  0.00    -0.372 N 
ATOM      3  N   UNL     1      15.031  -0.818 -11.190  0.00  0.00    -0.372 N 
ATOM      4  C   UNL     1      15.496  -2.019 -11.549  0.00  0.00    +0.166 C 
ATOM      5  H   UNL     1      16.846  -3.504 -11.255  0.00  0.00    +0.163 HD
ATOM      6  H   UNL     1      14.061  -2.275 -12.999  0.00  0.00    +0.159 HD
ATOM      7  H   UNL     1      15.180  -3.578 -12.858  0.00  0.00    +0.159 HD
ATOM      8  H   UNL     1      15.458  -0.277 -10.451  0.00  0.00    +0.159 HD
ATOM      9  H   UNL     1      14.220  -0.409 -11.638  0.00  0.00    +0.159 HD
ENDROOT
BRANCH   1  10
ATOM     10  C   UNL     1      17.351  -1.927  -9.914  0.00  0.00    +0.151 C 
BRANCH  10  11
ATOM     11  C   UNL     1      17.380  -2.811  -8.697  0.00  0.00    -0.028 A 
ATOM     12  C   UNL     1      18.068  -2.410  -7.543  0.00  0.00    +0.005 A 
ATOM     13  C   UNL     1      16.717  -4.047  -8.691  0.00  0.00    +0.005 A 
ATOM     14  C   UNL     1      18.070  -3.217  -6.402  0.00  0.00    +0.000 A 
ATOM     15  C   UNL     1      16.722  -4.851  -7.551  0.00  0.00    +0.000 A 
ATOM     16  C   UNL     1      17.396  -4.434  -6.406  0.00  0.00    +0.000 A 
ENDBRANCH  10  11
ENDBRANCH   1  10
TORSDOF 2
ENDMDL
MODEL 6
REMARK VINA RESULT:    -4.741     29.579     30.673
REMARK INTER + INTRA:          -5.420
REMARK INTER:                  -5.316
REMARK INTRA:                  -0.105
REMARK UNBOUND:                -0.125
REMARK  Name = 1550473
REMARK  2 active torsions:
REMARK  status: ('A' for Active; 'I' for Inactive)
REMARK    1  A    between atoms: N_1  and  C_4
REMARK    2  A    between atoms: C_4  and  C_5
REMARK                            x       y       z     vdW  Elec       q    Type
REMARK                         _______ _______ _______ _____ _____    ______ ____
ROOT
ATOM      1  N   UNL     1     -13.999  10.972  -5.230  0.00  0.00    -0.354 N 
ATOM      2  N   UNL     1     -12.275  11.465  -6.695  0.00  0.00    -0.372 N 
ATOM      3  N   UNL     1     -11.797  11.210  -4.466  0.00  0.00    -0.372 N 
ATOM      4  C   UNL     1     -12.700  11.213  -5.452  0.00  0.00    +0.166 C 
ATOM      5  H   UNL     1     -14.638  11.019  -6.015  0.00  0.00    +0.163 HD
ATOM      6  H   UNL     1     -11.300  11.647  -6.893  0.00  0.00    +0.159 HD
ATOM      7  H   UNL     1     -12.908  11.466  -7.485  0.00  0.00    +0.159 HD
ATOM      8  H   UNL     1     -12.054  11.032  -3.504  0.00  0.00    +0.159 HD
ATOM      9  H   UNL     1     -10.818  11.401  -4.642  0.00  0.00    +0.159 HD
ENDROOT
BRANCH   1  10
ATOM     10  C   UNL     1     -14.556  10.633  -3.922  0.00  0.00    +0.151 C 
BRANCH  10  11
ATOM     11  C   UNL     1     -15.924  10.036  -4.110  0.00  0.00    -0.028 A 
ATOM     12  C   UNL     1     -16.881  10.685  -4.904  0.00  0.00    +0.005 A 
ATOM     13  C   UNL     1     -16.267   8.819  -3.502  0.00  0.00    +0.005 A 
ATOM     14  C   UNL     1     -18.141  10.116  -5.103  0.00  0.00    +0.000 A 
ATOM     15  C   UNL     1     -17.526   8.254  -3.703  0.00  0.00    +0.000 A 
ATOM     16  C   UNL     1     -18.462   8.902  -4.506  0.00  0.00    +0.000 A 
ENDBRANCH  10  11
ENDBRANCH   1  10
TORSDOF 2
ENDMDL
MODEL 7
REMARK VINA RESULT:    -4.728     29.113     30.274
REMARK INTER + INTRA:          -5.405
REMARK INTER:                  -5.280
REMARK INTRA:                  -0.126
REMARK UNBOUND:                -0.125
REMARK  Name = 1550473
REMARK  2 active torsions:
REMARK  status: ('A' for Active; 'I' for Inactive)
REMARK    1  A    between atoms: N_1  and  C_4
REMARK    2  A    between atoms: C_4  and  C_5
REMARK                            x       y       z     vdW  Elec       q    Type
REMARK                         _______ _______ _______ _____ _____    ______ ____
ROOT
ATOM      1  N   UNL     1     -14.859   9.450  -2.086  0.00  0.00    -0.354 N 
ATOM      2  N   UNL     1     -14.319   9.700   0.152  0.00  0.00    -0.372 N 
ATOM      3  N   UNL     1     -13.818  11.399  -1.306  0.00  0.00    -0.372 N 
ATOM      4  C   UNL     1     -14.334  10.184  -1.096  0.00  0.00    +0.166 C 
ATOM      5  H   UNL     1     -15.207   8.524  -1.867  0.00  0.00    +0.163 HD
ATOM      6  H   UNL     1     -13.933  10.231   0.920  0.00  0.00    +0.159 HD
ATOM      7  H   UNL     1     -14.709   8.792   0.376  0.00  0.00    +0.159 HD
ATOM      8  H   UNL     1     -13.794  11.819  -2.226  0.00  0.00    +0.159 HD
ATOM      9  H   UNL     1     -13.416  11.942  -0.552  0.00  0.00    +0.159 HD
ENDROOT
BRANCH   1  10
ATOM     10  C   UNL     1     -14.973   9.907  -3.470  0.00  0.00    +0.151 C 
BRANCH  10  11
ATOM     11  C   UNL     1     -16.357   9.604  -3.975  0.00  0.00    -0.028 A 
ATOM     12  C   UNL     1     -16.981   8.389  -3.655  0.00  0.00    +0.005 A 
ATOM     13  C   UNL     1     -17.051  10.529  -4.770  0.00  0.00    +0.005 A 
ATOM     14  C   UNL     1     -18.278   8.119  -4.099  0.00  0.00    +0.000 A 
ATOM     15  C   UNL     1     -18.345  10.256  -5.212  0.00  0.00    +0.000 A 
ATOM     16  C   UNL     1     -18.959   9.052  -4.874  0.00  0.00    +0.000 A 
ENDBRANCH  10  11
ENDBRANCH   1  10
TORSDOF 2
ENDMDL
MODEL 8
REMARK VINA RESULT:    -4.626     25.555     26.655
REMARK INTER + INTRA:          -5.292
REMARK INTER:                  -5.176
REMARK INTRA:                  -0.116
REMARK UNBOUND:                -0.125
REMARK  Name = 1550473
REMARK  2 active torsions:
REMARK  status: ('A' for Active; 'I' for Inactive)
REMARK    1  A    between atoms: N_1  and  C_4
REMARK    2  A    between atoms: C_4  and  C_5
REMARK                            x       y       z     vdW  Elec       q    Type
REMARK                         _______ _______ _______ _____ _____    ______ ____
ROOT
ATOM      1  N   UNL     1      16.369  -2.020 -10.089  0.00  0.00    -0.354 N 
ATOM      2  N   UNL     1      14.799  -0.726 -11.197  0.00  0.00    -0.372 N 
ATOM      3  N   UNL     1      16.682  -1.394 -12.326  0.00  0.00    -0.372 N 
ATOM      4  C   UNL     1      15.962  -1.389 -11.199  0.00  0.00    +0.166 C 
ATOM      5  H   UNL     1      15.792  -1.953  -9.258  0.00  0.00    +0.163 HD
ATOM      6  H   UNL     1      14.465  -0.244 -12.020  0.00  0.00    +0.159 HD
ATOM      7  H   UNL     1      14.203  -0.699 -10.379  0.00  0.00    +0.159 HD
ATOM      8  H   UNL     1      17.571  -1.871 -12.391  0.00  0.00    +0.159 HD
ATOM      9  H   UNL     1      16.369  -0.907 -13.156  0.00  0.00    +0.159 HD
ENDROOT
BRANCH   1  10
ATOM     10  C   UNL     1      17.593  -2.814 -10.002  0.00  0.00    +0.151 C 
BRANCH  10  11
ATOM     11  C   UNL     1      17.296  -4.096  -9.274  0.00  0.00    -0.028 A 
ATOM     12  C   UNL     1      17.657  -5.332  -9.832  0.00  0.00    +0.005 A 
ATOM     13  C   UNL     1      16.659  -4.082  -8.024  0.00  0.00    +0.005 A 
ATOM     14  C   UNL     1      17.409  -6.521  -9.142  0.00  0.00    +0.000 A 
ATOM     15  C   UNL     1      16.412  -5.272  -7.339  0.00  0.00    +0.000 A 
ATOM     16  C   UNL     1      16.789  -6.491  -7.898  0.00  0.00    +0.000 A 
ENDBRANCH  10  11
ENDBRANCH   1  10
TORSDOF 2
ENDMDL
MODEL 9
REMARK VINA RESULT:    -4.519     13.237     14.367
REMARK INTER + INTRA:          -5.172
REMARK INTER:                  -5.069
REMARK INTRA:                  -0.103
REMARK UNBOUND:                -0.125
REMARK  Name = 1550473
REMARK  2 active torsions:
REMARK  status: ('A' for Active; 'I' for Inactive)
REMARK    1  A    between atoms: N_1  and  C_4
REMARK    2  A    between atoms: C_4  and  C_5
REMARK                            x       y       z     vdW  Elec       q    Type
REMARK                         _______ _______ _______ _____ _____    ______ ____
ROOT
ATOM      1  N   UNL     1      -0.635 -16.902  -7.719  0.00  0.00    -0.354 N 
ATOM      2  N   UNL     1      -2.035 -18.747  -7.680  0.00  0.00    -0.372 N 
ATOM      3  N   UNL     1      -0.509 -18.476  -5.987  0.00  0.00    -0.372 N 
ATOM      4  C   UNL     1      -1.049 -18.030  -7.127  0.00  0.00    +0.166 C 
ATOM      5  H   UNL     1      -1.065 -16.634  -8.597  0.00  0.00    +0.163 HD
ATOM      6  H   UNL     1      -2.370 -19.600  -7.254  0.00  0.00    +0.159 HD
ATOM      7  H   UNL     1      -2.493 -18.453  -8.533  0.00  0.00    +0.159 HD
ATOM      8  H   UNL     1       0.242 -17.984  -5.523  0.00  0.00    +0.159 HD
ATOM      9  H   UNL     1      -0.824 -19.334  -5.552  0.00  0.00    +0.159 HD
ENDROOT
BRANCH   1  10
ATOM     10  C   UNL     1       0.394 -16.020  -7.171  0.00  0.00    +0.151 C 
BRANCH  10  11
ATOM     11  C   UNL     1       0.364 -14.711  -7.910  0.00  0.00    -0.028 A 
ATOM     12  C   UNL     1       0.436 -14.683  -9.311  0.00  0.00    +0.005 A 
ATOM     13  C   UNL     1       0.259 -13.496  -7.217  0.00  0.00    +0.005 A 
ATOM     14  C   UNL     1       0.379 -13.469 -10.000  0.00  0.00    +0.000 A 
ATOM     15  C   UNL     1       0.203 -12.286  -7.909  0.00  0.00    +0.000 A 
ATOM     16  C   UNL     1       0.260 -12.273  -9.300  0.00  0.00    +0.000 A 
ENDBRANCH  10  11
ENDBRANCH   1  10
TORSDOF 2
ENDMDL
