MODEL 1
REMARK VINA RESULT:    -6.090      0.000      0.000
REMARK INTER + INTRA:          -6.921
REMARK INTER:                  -6.802
REMARK INTRA:                  -0.119
REMARK UNBOUND:                -0.119
REMARK  Name = 1550473
REMARK  2 active torsions:
REMARK  status: ('A' for Active; 'I' for Inactive)
REMARK    1  A    between atoms: N_1  and  C_4
REMARK    2  A    between atoms: C_4  and  C_5
REMARK                            x       y       z     vdW  Elec       q    Type
REMARK                         _______ _______ _______ _____ _____    ______ ____
ROOT
ATOM      1  N   UNL     1      -8.466   5.386  -2.437  0.00  0.00    -0.354 N 
ATOM      2  N   UNL     1      -8.595   7.312  -3.716  0.00  0.00    -0.372 N 
ATOM      3  N   UNL     1      -9.557   5.387  -4.511  0.00  0.00    -0.372 N 
ATOM      4  C   UNL     1      -8.873   6.014  -3.548  0.00  0.00    +0.166 C 
ATOM      5  H   UNL     1      -7.926   5.910  -1.758  0.00  0.00    +0.163 HD
ATOM      6  H   UNL     1      -8.892   7.814  -4.542  0.00  0.00    +0.159 HD
ATOM      7  H   UNL     1      -8.094   7.845  -3.015  0.00  0.00    +0.159 HD
ATOM      8  H   UNL     1      -9.793   4.406  -4.448  0.00  0.00    +0.159 HD
ATOM      9  H   UNL     1      -9.853   5.869  -5.351  0.00  0.00    +0.159 HD
ENDROOT
BRANCH   1  10
ATOM     10  C   UNL     1      -8.764   3.987  -2.133  0.00  0.00    +0.151 C 
BRANCH  10  11
ATOM     11  C   UNL     1      -8.629   3.767  -0.651  0.00  0.00    -0.028 A 
ATOM     12  C   UNL     1      -7.757   4.559   0.110  0.00  0.00    +0.005 A 
ATOM     13  C   UNL     1      -9.374   2.771  -0.002  0.00  0.00    +0.005 A 
ATOM     14  C   UNL     1      -7.654   4.375   1.490  0.00  0.00    +0.000 A 
ATOM     15  C   UNL     1      -9.268   2.590   1.377  0.00  0.00    +0.000 A 
ATOM     16  C   UNL     1      -8.409   3.394   2.123  0.00  0.00    +0.000 A 
ENDBRANCH  10  11
ENDBRANCH   1  10
TORSDOF 2
ENDMDL
MODEL 2
REMARK VINA RESULT:    -5.604      2.289      2.888
REMARK INTER + INTRA:          -6.378
REMARK INTER:                  -6.260
REMARK INTRA:                  -0.118
REMARK UNBOUND:                -0.119
REMARK  Name = 1550473
REMARK  2 active torsions:
REMARK  status: ('A' for Active; 'I' for Inactive)
REMARK    1  A    between atoms: N_1  and  C_4
REMARK    2  A    between atoms: C_4  and  C_5
REMARK                            x       y       z     vdW  Elec       q    Type
REMARK                         _______ _______ _______ _____ _____    ______ ____
ROOT
ATOM      1  N   UNL     1      -8.845   2.029  -2.247  0.00  0.00    -0.354 N 
ATOM      2  N   UNL     1      -9.349   0.283  -3.683  0.00  0.00    -0.372 N 
ATOM      3  N   UNL     1      -9.980   2.412  -4.262  0.00  0.00    -0.372 N 
ATOM      4  C   UNL     1      -9.390   1.588  -3.390  0.00  0.00    +0.166 C 
ATOM      5  H   UNL     1      -8.439   1.350  -1.614  0.00  0.00    +0.163 HD
ATOM      6  H   UNL     1      -9.748  -0.078  -4.539  0.00  0.00    +0.159 HD
ATOM      7  H   UNL     1      -8.902  -0.388  -3.070  0.00  0.00    +0.159 HD
ATOM      8  H   UNL     1     -10.049   3.407  -4.096  0.00  0.00    +0.159 HD
ATOM      9  H   UNL     1     -10.396   2.068  -5.118  0.00  0.00    +0.159 HD
ENDROOT
BRANCH   1  10
ATOM     10  C   UNL     1      -8.789   3.437  -1.859  0.00  0.00    +0.151 C 
BRANCH  10  11
ATOM     11  C   UNL     1      -8.610   3.528  -0.368  0.00  0.00    -0.028 A 
ATOM     12  C   UNL     1      -7.709   4.449   0.185  0.00  0.00    +0.005 A 
ATOM     13  C   UNL     1      -9.342   2.700   0.496  0.00  0.00    +0.005 A 
ATOM     14  C   UNL     1      -7.564   4.555   1.571  0.00  0.00    +0.000 A 
ATOM     15  C   UNL     1      -9.194   2.808   1.879  0.00  0.00    +0.000 A 
ATOM     16  C   UNL     1      -8.307   3.738   2.416  0.00  0.00    +0.000 A 
ENDBRANCH  10  11
ENDBRANCH   1  10
TORSDOF 2
ENDMDL
MODEL 3
REMARK VINA RESULT:    -5.439      3.146      3.863
REMARK INTER + INTRA:          -6.193
REMARK INTER:                  -6.074
REMARK INTRA:                  -0.119
REMARK UNBOUND:                -0.119
REMARK  Name = 1550473
REMARK  2 active torsions:
REMARK  status: ('A' for Active; 'I' for Inactive)
REMARK    1  A    between atoms: N_1  and  C_4
REMARK    2  A    between atoms: C_4  and  C_5
REMARK                            x       y       z     vdW  Elec       q    Type
REMARK                         _______ _______ _______ _____ _____    ______ ____
ROOT
ATOM      1  N   UNL     1     -11.078   2.163  -1.128  0.00  0.00    -0.354 N 
ATOM      2  N   UNL     1     -13.130   1.100  -1.279  0.00  0.00    -0.372 N 
ATOM      3  N   UNL     1     -11.356   0.264  -2.472  0.00  0.00    -0.372 N 
ATOM      4  C   UNL     1     -11.840   1.181  -1.627  0.00  0.00    +0.166 C 
ATOM      5  H   UNL     1     -11.512   2.845  -0.516  0.00  0.00    +0.163 HD
ATOM      6  H   UNL     1     -13.728   0.368  -1.637  0.00  0.00    +0.159 HD
ATOM      7  H   UNL     1     -13.549   1.756  -0.632  0.00  0.00    +0.159 HD
ATOM      8  H   UNL     1     -10.393   0.273  -2.778  0.00  0.00    +0.159 HD
ATOM      9  H   UNL     1     -11.943  -0.470  -2.850  0.00  0.00    +0.159 HD
ENDROOT
BRANCH   1  10
ATOM     10  C   UNL     1      -9.649   2.309  -1.401  0.00  0.00    +0.151 C 
BRANCH  10  11
ATOM     11  C   UNL     1      -8.998   3.019  -0.246  0.00  0.00    -0.028 A 
ATOM     12  C   UNL     1      -8.148   4.112  -0.469  0.00  0.00    +0.005 A 
ATOM     13  C   UNL     1      -9.231   2.606   1.075  0.00  0.00    +0.005 A 
ATOM     14  C   UNL     1      -7.567   4.790   0.605  0.00  0.00    +0.000 A 
ATOM     15  C   UNL     1      -8.649   3.285   2.145  0.00  0.00    +0.000 A 
ATOM     16  C   UNL     1      -7.819   4.378   1.909  0.00  0.00    +0.000 A 
ENDBRANCH  10  11
ENDBRANCH   1  10
TORSDOF 2
ENDMDL
MODEL 4
REMARK VINA RESULT:    -5.375      3.176      5.503
REMARK INTER + INTRA:          -6.122
REMARK INTER:                  -6.016
REMARK INTRA:                  -0.106
REMARK UNBOUND:                -0.119
REMARK  Name = 1550473
REMARK  2 active torsions:
REMARK  status: ('A' for Active; 'I' for Inactive)
REMARK    1  A    between atoms: N_1  and  C_4
REMARK    2  A    between atoms: C_4  and  C_5
REMARK                            x       y       z     vdW  Elec       q    Type
REMARK                         _______ _______ _______ _____ _____    ______ ____
ROOT
ATOM      1  N   UNL     1      -9.346   3.298  -2.343  0.00  0.00    -0.354 N 
ATOM      2  N   UNL     1      -9.225   1.682  -0.688  0.00  0.00    -0.372 N 
ATOM      3  N   UNL     1      -9.263   1.020  -2.885  0.00  0.00    -0.372 N 
ATOM      4  C   UNL     1      -9.279   2.009  -1.985  0.00  0.00    +0.166 C 
ATOM      5  H   UNL     1      -9.385   3.999  -1.612  0.00  0.00    +0.163 HD
ATOM      6  H   UNL     1      -9.170   0.718  -0.388  0.00  0.00    +0.159 HD
ATOM      7  H   UNL     1      -9.218   2.387   0.039  0.00  0.00    +0.159 HD
ATOM      8  H   UNL     1      -9.308   1.200  -3.879  0.00  0.00    +0.159 HD
ATOM      9  H   UNL     1      -9.221   0.048  -2.604  0.00  0.00    +0.159 HD
ENDROOT
BRANCH   1  10
ATOM     10  C   UNL     1      -9.355   3.763  -3.729  0.00  0.00    +0.151 C 
BRANCH  10  11
ATOM     11  C   UNL     1     -10.200   5.003  -3.826  0.00  0.00    -0.028 A 
ATOM     12  C   UNL     1     -11.586   4.906  -4.019  0.00  0.00    +0.005 A 
ATOM     13  C   UNL     1      -9.622   6.277  -3.720  0.00  0.00    +0.005 A 
ATOM     14  C   UNL     1     -12.376   6.057  -4.079  0.00  0.00    +0.000 A 
ATOM     15  C   UNL     1     -10.414   7.424  -3.781  0.00  0.00    +0.000 A 
ATOM     16  C   UNL     1     -11.791   7.313  -3.958  0.00  0.00    +0.000 A 
ENDBRANCH  10  11
ENDBRANCH   1  10
TORSDOF 2
ENDMDL
MODEL 5
REMARK VINA RESULT:    -5.280      3.983      6.036
REMARK INTER + INTRA:          -6.016
REMARK INTER:                  -5.878
REMARK INTRA:                  -0.138
REMARK UNBOUND:                -0.119
REMARK  Name = 1550473
REMARK  2 active torsions:
REMARK  status: ('A' for Active; 'I' for Inactive)
REMARK    1  A    between atoms: N_1  and  C_4
REMARK    2  A    between atoms: C_4  and  C_5
REMARK                            x       y       z     vdW  Elec       q    Type
REMARK                         _______ _______ _______ _____ _____    ______ ____
ROOT
ATOM      1  N   UNL     1      -9.447   6.125  -4.309  0.00  0.00    -0.354 N 
ATOM      2  N   UNL     1      -7.541   7.422  -4.078  0.00  0.00    -0.372 N 
ATOM      3  N   UNL     1      -8.347   6.298  -2.247  0.00  0.00    -0.372 N 
ATOM      4  C   UNL     1      -8.458   6.606  -3.543  0.00  0.00    +0.166 C 
ATOM      5  H   UNL     1      -9.492   6.421  -5.277  0.00  0.00    +0.163 HD
ATOM      6  H   UNL     1      -6.782   7.797  -3.526  0.00  0.00    +0.159 HD
ATOM      7  H   UNL     1      -7.563   7.679  -5.057  0.00  0.00    +0.159 HD
ATOM      8  H   UNL     1      -9.009   5.692  -1.782  0.00  0.00    +0.159 HD
ATOM      9  H   UNL     1      -7.600   6.672  -1.675  0.00  0.00    +0.159 HD
ENDROOT
BRANCH   1  10
ATOM     10  C   UNL     1     -10.464   5.187  -3.838  0.00  0.00    +0.151 C 
BRANCH  10  11
ATOM     11  C   UNL     1     -11.817   5.661  -4.291  0.00  0.00    -0.028 A 
ATOM     12  C   UNL     1     -12.707   4.778  -4.919  0.00  0.00    +0.005 A 
ATOM     13  C   UNL     1     -12.217   6.991  -4.090  0.00  0.00    +0.005 A 
ATOM     14  C   UNL     1     -13.976   5.210  -5.313  0.00  0.00    +0.000 A 
ATOM     15  C   UNL     1     -13.484   7.419  -4.486  0.00  0.00    +0.000 A 
ATOM     16  C   UNL     1     -14.364   6.528  -5.095  0.00  0.00    +0.000 A 
ENDBRANCH  10  11
ENDBRANCH   1  10
TORSDOF 2
ENDMDL
MODEL 6
REMARK VINA RESULT:    -4.772     10.636     11.534
REMARK INTER + INTRA:          -5.448
REMARK INTER:                  -5.312
REMARK INTRA:                  -0.137
REMARK UNBOUND:                -0.119
REMARK  Name = 1550473
REMARK  2 active torsions:
REMARK  status: ('A' for Active; 'I' for Inactive)
REMARK    1  A    between atoms: N_1  and  C_4
REMARK    2  A    between atoms: C_4  and  C_5
REMARK                            x       y       z     vdW  Elec       q    Type
REMARK                         _______ _______ _______ _____ _____    ______ ____
ROOT
ATOM      1  N   UNL     1      -7.539  15.464  -3.570  0.00  0.00    -0.354 N 
ATOM      2  N   UNL     1      -9.469  14.320  -4.143  0.00  0.00    -0.372 N 
ATOM      3  N   UNL     1      -7.455  13.565  -4.942  0.00  0.00    -0.372 N 
ATOM      4  C   UNL     1      -8.140  14.456  -4.216  0.00  0.00    +0.166 C 
ATOM      5  H   UNL     1      -8.117  16.123  -3.062  0.00  0.00    +0.163 HD
ATOM      6  H   UNL     1      -9.950  13.567  -4.617  0.00  0.00    +0.159 HD
ATOM      7  H   UNL     1     -10.040  14.953  -3.596  0.00  0.00    +0.159 HD
ATOM      8  H   UNL     1      -6.450  13.616  -5.042  0.00  0.00    +0.159 HD
ATOM      9  H   UNL     1      -7.920  12.812  -5.433  0.00  0.00    +0.159 HD
ENDROOT
BRANCH   1  10
ATOM     10  C   UNL     1      -6.092  15.669  -3.542  0.00  0.00    +0.151 C 
BRANCH  10  11
ATOM     11  C   UNL     1      -5.650  15.856  -2.116  0.00  0.00    -0.028 A 
ATOM     12  C   UNL     1      -4.336  15.551  -1.732  0.00  0.00    +0.005 A 
ATOM     13  C   UNL     1      -6.539  16.342  -1.146  0.00  0.00    +0.005 A 
ATOM     14  C   UNL     1      -3.917  15.753  -0.415  0.00  0.00    +0.000 A 
ATOM     15  C   UNL     1      -6.117  16.541   0.169  0.00  0.00    +0.000 A 
ATOM     16  C   UNL     1      -4.805  16.248   0.533  0.00  0.00    +0.000 A 
ENDBRANCH  10  11
ENDBRANCH   1  10
TORSDOF 2
ENDMDL
MODEL 7
REMARK VINA RESULT:    -4.763     11.912     12.166
REMARK INTER + INTRA:          -5.439
REMARK INTER:                  -5.324
REMARK INTRA:                  -0.115
REMARK UNBOUND:                -0.119
REMARK  Name = 1550473
REMARK  2 active torsions:
REMARK  status: ('A' for Active; 'I' for Inactive)
REMARK    1  A    between atoms: N_1  and  C_4
REMARK    2  A    between atoms: C_4  and  C_5
REMARK                            x       y       z     vdW  Elec       q    Type
REMARK                         _______ _______ _______ _____ _____    ______ ____
ROOT
ATOM      1  N   UNL     1      -4.415  14.575  -3.941  0.00  0.00    -0.354 N 
ATOM      2  N   UNL     1      -2.517  13.757  -4.987  0.00  0.00    -0.372 N 
ATOM      3  N   UNL     1      -3.174  15.914  -5.410  0.00  0.00    -0.372 N 
ATOM      4  C   UNL     1      -3.381  14.757  -4.774  0.00  0.00    +0.166 C 
ATOM      5  H   UNL     1      -4.534  13.664  -3.513  0.00  0.00    +0.163 HD
ATOM      6  H   UNL     1      -1.726  13.866  -5.607  0.00  0.00    +0.159 HD
ATOM      7  H   UNL     1      -2.613  12.862  -4.522  0.00  0.00    +0.159 HD
ATOM      8  H   UNL     1      -3.793  16.706  -5.297  0.00  0.00    +0.159 HD
ATOM      9  H   UNL     1      -2.394  16.039  -6.043  0.00  0.00    +0.159 HD
ENDROOT
BRANCH   1  10
ATOM     10  C   UNL     1      -5.382  15.616  -3.599  0.00  0.00    +0.151 C 
BRANCH  10  11
ATOM     11  C   UNL     1      -5.319  15.878  -2.120  0.00  0.00    -0.028 A 
ATOM     12  C   UNL     1      -6.455  16.321  -1.426  0.00  0.00    +0.005 A 
ATOM     13  C   UNL     1      -4.128  15.680  -1.405  0.00  0.00    +0.005 A 
ATOM     14  C   UNL     1      -6.405  16.536  -0.047  0.00  0.00    +0.000 A 
ATOM     15  C   UNL     1      -4.082  15.897  -0.028  0.00  0.00    +0.000 A 
ATOM     16  C   UNL     1      -5.221  16.322   0.651  0.00  0.00    +0.000 A 
ENDBRANCH  10  11
ENDBRANCH   1  10
TORSDOF 2
ENDMDL
MODEL 8
REMARK VINA RESULT:    -4.705      2.978      5.063
REMARK INTER + INTRA:          -5.373
REMARK INTER:                  -5.206
REMARK INTRA:                  -0.168
REMARK UNBOUND:                -0.119
REMARK  Name = 1550473
REMARK  2 active torsions:
REMARK  status: ('A' for Active; 'I' for Inactive)
REMARK    1  A    between atoms: N_1  and  C_4
REMARK    2  A    between atoms: C_4  and  C_5
REMARK                            x       y       z     vdW  Elec       q    Type
REMARK                         _______ _______ _______ _____ _____    ______ ____
ROOT
ATOM      1  N   UNL     1      -9.619   2.121  -1.649  0.00  0.00    -0.354 N 
ATOM      2  N   UNL     1     -10.406   1.809   0.507  0.00  0.00    -0.372 N 
ATOM      3  N   UNL     1      -8.638   3.232   0.166  0.00  0.00    -0.372 N 
ATOM      4  C   UNL     1      -9.547   2.391  -0.339  0.00  0.00    +0.166 C 
ATOM      5  H   UNL     1     -10.311   1.451  -1.965  0.00  0.00    +0.163 HD
ATOM      6  H   UNL     1     -10.377   1.996   1.501  0.00  0.00    +0.159 HD
ATOM      7  H   UNL     1     -11.126   1.175   0.183  0.00  0.00    +0.159 HD
ATOM      8  H   UNL     1      -7.958   3.699  -0.418  0.00  0.00    +0.159 HD
ATOM      9  H   UNL     1      -8.587   3.423   1.159  0.00  0.00    +0.159 HD
ENDROOT
BRANCH   1  10
ATOM     10  C   UNL     1      -8.766   2.743  -2.660  0.00  0.00    +0.151 C 
BRANCH  10  11
ATOM     11  C   UNL     1      -9.442   3.982  -3.178  0.00  0.00    -0.028 A 
ATOM     12  C   UNL     1      -8.839   5.239  -3.024  0.00  0.00    +0.005 A 
ATOM     13  C   UNL     1     -10.684   3.906  -3.828  0.00  0.00    +0.005 A 
ATOM     14  C   UNL     1      -9.453   6.387  -3.532  0.00  0.00    +0.000 A 
ATOM     15  C   UNL     1     -11.293   5.054  -4.333  0.00  0.00    +0.000 A 
ATOM     16  C   UNL     1     -10.676   6.294  -4.187  0.00  0.00    +0.000 A 
ENDBRANCH  10  11
ENDBRANCH   1  10
TORSDOF 2
ENDMDL
MODEL 9
REMARK VINA RESULT:    -4.598     23.656     24.620
REMARK INTER + INTRA:          -5.255
REMARK INTER:                  -5.080
REMARK INTRA:                  -0.174
REMARK UNBOUND:                -0.119
REMARK  Name = 1550473
REMARK  2 active torsions:
REMARK  status: ('A' for Active; 'I' for Inactive)
REMARK    1  A    between atoms: N_1  and  C_4
REMARK    2  A    between atoms: C_4  and  C_5
REMARK                            x       y       z     vdW  Elec       q    Type
REMARK                         _______ _______ _______ _____ _____    ______ ____
ROOT
ATOM      1  N   UNL     1      10.653   0.668  12.164  0.00  0.00    -0.354 N 
ATOM      2  N   UNL     1      12.295  -0.803  11.457  0.00  0.00    -0.372 N 
ATOM      3  N   UNL     1      12.879   0.925  12.848  0.00  0.00    -0.372 N 
ATOM      4  C   UNL     1      11.933   0.275  12.162  0.00  0.00    +0.166 C 
ATOM      5  H   UNL     1       9.989   0.150  11.600  0.00  0.00    +0.163 HD
ATOM      6  H   UNL     1      13.253  -1.126  11.439  0.00  0.00    +0.159 HD
ATOM      7  H   UNL     1      11.622  -1.346  10.930  0.00  0.00    +0.159 HD
ATOM      8  H   UNL     1      12.672   1.750  13.396  0.00  0.00    +0.159 HD
ATOM      9  H   UNL     1      13.846   0.625  12.833  0.00  0.00    +0.159 HD
ENDROOT
BRANCH   1  10
ATOM     10  C   UNL     1      10.145   1.797  12.942  0.00  0.00    +0.151 C 
BRANCH  10  11
ATOM     11  C   UNL     1       9.552   1.282  14.225  0.00  0.00    -0.028 A 
ATOM     12  C   UNL     1       8.672   0.189  14.214  0.00  0.00    +0.005 A 
ATOM     13  C   UNL     1       9.869   1.879  15.454  0.00  0.00    +0.005 A 
ATOM     14  C   UNL     1       8.144  -0.308  15.408  0.00  0.00    +0.000 A 
ATOM     15  C   UNL     1       9.339   1.380  16.644  0.00  0.00    +0.000 A 
ATOM     16  C   UNL     1       8.479   0.285  16.621  0.00  0.00    +0.000 A 
ENDBRANCH  10  11
ENDBRANCH   1  10
TORSDOF 2
ENDMDL
