MODEL 1
REMARK VINA RESULT:    -4.911      0.000      0.000
REMARK INTER + INTRA:          -5.609
REMARK INTER:                  -5.485
REMARK INTRA:                  -0.123
REMARK UNBOUND:                -0.123
REMARK  Name = 1550473
REMARK  2 active torsions:
REMARK  status: ('A' for Active; 'I' for Inactive)
REMARK    1  A    between atoms: N_1  and  C_4
REMARK    2  A    between atoms: C_4  and  C_5
REMARK                            x       y       z     vdW  Elec       q    Type
REMARK                         _______ _______ _______ _____ _____    ______ ____
ROOT
ATOM      1  N   UNL     1      -1.394 -10.936  -3.749  0.00  0.00    -0.354 N 
ATOM      2  N   UNL     1       0.585 -11.079  -2.555  0.00  0.00    -0.372 N 
ATOM      3  N   UNL     1      -0.348 -13.002  -3.388  0.00  0.00    -0.372 N 
ATOM      4  C   UNL     1      -0.399 -11.674  -3.239  0.00  0.00    +0.166 C 
ATOM      5  H   UNL     1      -1.391  -9.937  -3.575  0.00  0.00    +0.163 HD
ATOM      6  H   UNL     1       1.351 -11.609  -2.161  0.00  0.00    +0.159 HD
ATOM      7  H   UNL     1       0.610 -10.075  -2.422  0.00  0.00    +0.159 HD
ATOM      8  H   UNL     1      -1.064 -13.512  -3.889  0.00  0.00    +0.159 HD
ATOM      9  H   UNL     1       0.404 -13.551  -2.992  0.00  0.00    +0.159 HD
ENDROOT
BRANCH   1  10
ATOM     10  C   UNL     1      -2.485 -11.480  -4.556  0.00  0.00    +0.151 C 
BRANCH  10  11
ATOM     11  C   UNL     1      -3.792 -11.199  -3.867  0.00  0.00    -0.028 A 
ATOM     12  C   UNL     1      -5.000 -11.273  -4.575  0.00  0.00    +0.005 A 
ATOM     13  C   UNL     1      -3.830 -10.865  -2.504  0.00  0.00    +0.005 A 
ATOM     14  C   UNL     1      -6.217 -11.042  -3.929  0.00  0.00    +0.000 A 
ATOM     15  C   UNL     1      -5.046 -10.635  -1.863  0.00  0.00    +0.000 A 
ATOM     16  C   UNL     1      -6.240 -10.725  -2.575  0.00  0.00    +0.000 A 
ENDBRANCH  10  11
ENDBRANCH   1  10
TORSDOF 2
ENDMDL
MODEL 2
REMARK VINA RESULT:    -4.571      7.165      8.662
REMARK INTER + INTRA:          -5.228
REMARK INTER:                  -5.061
REMARK INTRA:                  -0.167
REMARK UNBOUND:                -0.123
REMARK  Name = 1550473
REMARK  2 active torsions:
REMARK  status: ('A' for Active; 'I' for Inactive)
REMARK    1  A    between atoms: N_1  and  C_4
REMARK    2  A    between atoms: C_4  and  C_5
REMARK                            x       y       z     vdW  Elec       q    Type
REMARK                         _______ _______ _______ _____ _____    ______ ____
ROOT
ATOM      1  N   UNL     1      -9.695  -7.606  -2.124  0.00  0.00    -0.354 N 
ATOM      2  N   UNL     1      -8.945  -9.402  -3.379  0.00  0.00    -0.372 N 
ATOM      3  N   UNL     1      -9.360  -7.407  -4.435  0.00  0.00    -0.372 N 
ATOM      4  C   UNL     1      -9.339  -8.125  -3.307  0.00  0.00    +0.166 C 
ATOM      5  H   UNL     1      -9.686  -8.210  -1.311  0.00  0.00    +0.163 HD
ATOM      6  H   UNL     1      -8.667  -9.820  -4.257  0.00  0.00    +0.159 HD
ATOM      7  H   UNL     1      -8.893  -9.991  -2.557  0.00  0.00    +0.159 HD
ATOM      8  H   UNL     1      -9.653  -6.440  -4.449  0.00  0.00    +0.159 HD
ATOM      9  H   UNL     1      -9.096  -7.811  -5.325  0.00  0.00    +0.159 HD
ENDROOT
BRANCH   1  10
ATOM     10  C   UNL     1     -10.088  -6.211  -1.928  0.00  0.00    +0.151 C 
BRANCH  10  11
ATOM     11  C   UNL     1      -8.943  -5.462  -1.303  0.00  0.00    -0.028 A 
ATOM     12  C   UNL     1      -8.887  -5.278   0.086  0.00  0.00    +0.005 A 
ATOM     13  C   UNL     1      -7.909  -4.939  -2.094  0.00  0.00    +0.005 A 
ATOM     14  C   UNL     1      -7.810  -4.608   0.670  0.00  0.00    +0.000 A 
ATOM     15  C   UNL     1      -6.835  -4.270  -1.507  0.00  0.00    +0.000 A 
ATOM     16  C   UNL     1      -6.784  -4.107  -0.125  0.00  0.00    +0.000 A 
ENDBRANCH  10  11
ENDBRANCH   1  10
TORSDOF 2
ENDMDL
MODEL 3
REMARK VINA RESULT:    -4.527      1.138      2.013
REMARK INTER + INTRA:          -5.180
REMARK INTER:                  -5.042
REMARK INTRA:                  -0.138
REMARK UNBOUND:                -0.123
REMARK  Name = 1550473
REMARK  2 active torsions:
REMARK  status: ('A' for Active; 'I' for Inactive)
REMARK    1  A    between atoms: N_1  and  C_4
REMARK    2  A    between atoms: C_4  and  C_5
REMARK                            x       y       z     vdW  Elec       q    Type
REMARK                         _______ _______ _______ _____ _____    ______ ____
ROOT
ATOM      1  N   UNL     1      -2.165 -10.700  -2.757  0.00  0.00    -0.354 N 
ATOM      2  N   UNL     1       0.004 -11.268  -3.337  0.00  0.00    -0.372 N 
ATOM      3  N   UNL     1      -0.839 -12.009  -1.336  0.00  0.00    -0.372 N 
ATOM      4  C   UNL     1      -1.014 -11.323  -2.470  0.00  0.00    +0.166 C 
ATOM      5  H   UNL     1      -2.224 -10.171  -3.620  0.00  0.00    +0.163 HD
ATOM      6  H   UNL     1       0.883 -11.731  -3.149  0.00  0.00    +0.159 HD
ATOM      7  H   UNL     1      -0.073 -10.777  -4.219  0.00  0.00    +0.159 HD
ATOM      8  H   UNL     1      -1.567 -12.084  -0.638  0.00  0.00    +0.159 HD
ATOM      9  H   UNL     1       0.037 -12.470  -1.125  0.00  0.00    +0.159 HD
ENDROOT
BRANCH   1  10
ATOM     10  C   UNL     1      -3.353 -10.743  -1.906  0.00  0.00    +0.151 C 
BRANCH  10  11
ATOM     11  C   UNL     1      -4.572 -10.901  -2.772  0.00  0.00    -0.028 A 
ATOM     12  C   UNL     1      -5.850 -10.648  -2.254  0.00  0.00    +0.005 A 
ATOM     13  C   UNL     1      -4.455 -11.297  -4.113  0.00  0.00    +0.005 A 
ATOM     14  C   UNL     1      -6.981 -10.765  -3.066  0.00  0.00    +0.000 A 
ATOM     15  C   UNL     1      -5.586 -11.413  -4.920  0.00  0.00    +0.000 A 
ATOM     16  C   UNL     1      -6.849 -11.145  -4.397  0.00  0.00    +0.000 A 
ENDBRANCH  10  11
ENDBRANCH   1  10
TORSDOF 2
ENDMDL
MODEL 4
REMARK VINA RESULT:    -4.507     32.017     33.531
REMARK INTER + INTRA:          -5.158
REMARK INTER:                  -5.017
REMARK INTRA:                  -0.141
REMARK UNBOUND:                -0.123
REMARK  Name = 1550473
REMARK  2 active torsions:
REMARK  status: ('A' for Active; 'I' for Inactive)
REMARK    1  A    between atoms: N_1  and  C_4
REMARK    2  A    between atoms: C_4  and  C_5
REMARK                            x       y       z     vdW  Elec       q    Type
REMARK                         _______ _______ _______ _____ _____    ______ ____
ROOT
ATOM      1  N   UNL     1      18.191   9.127  15.441  0.00  0.00    -0.354 N 
ATOM      2  N   UNL     1      19.407  10.881  16.340  0.00  0.00    -0.372 N 
ATOM      3  N   UNL     1      20.142   9.902  14.400  0.00  0.00    -0.372 N 
ATOM      4  C   UNL     1      19.241   9.958  15.386  0.00  0.00    +0.166 C 
ATOM      5  H   UNL     1      17.560   9.201  16.231  0.00  0.00    +0.163 HD
ATOM      6  H   UNL     1      20.188  11.524  16.323  0.00  0.00    +0.159 HD
ATOM      7  H   UNL     1      18.750  10.983  17.104  0.00  0.00    +0.159 HD
ATOM      8  H   UNL     1      20.077   9.224  13.652  0.00  0.00    +0.159 HD
ATOM      9  H   UNL     1      20.937  10.529  14.372  0.00  0.00    +0.159 HD
ENDROOT
BRANCH   1  10
ATOM     10  C   UNL     1      17.889   8.122  14.423  0.00  0.00    +0.151 C 
BRANCH  10  11
ATOM     11  C   UNL     1      16.478   8.319  13.942  0.00  0.00    -0.028 A 
ATOM     12  C   UNL     1      16.161   9.379  13.080  0.00  0.00    +0.005 A 
ATOM     13  C   UNL     1      15.454   7.446  14.340  0.00  0.00    +0.005 A 
ATOM     14  C   UNL     1      14.856   9.545  12.610  0.00  0.00    +0.000 A 
ATOM     15  C   UNL     1      14.153   7.615  13.869  0.00  0.00    +0.000 A 
ATOM     16  C   UNL     1      13.854   8.663  13.001  0.00  0.00    +0.000 A 
ENDBRANCH  10  11
ENDBRANCH   1  10
TORSDOF 2
ENDMDL
MODEL 5
REMARK VINA RESULT:    -4.472      8.003      8.788
REMARK INTER + INTRA:          -5.118
REMARK INTER:                  -5.012
REMARK INTRA:                  -0.106
REMARK UNBOUND:                -0.123
REMARK  Name = 1550473
REMARK  2 active torsions:
REMARK  status: ('A' for Active; 'I' for Inactive)
REMARK    1  A    between atoms: N_1  and  C_4
REMARK    2  A    between atoms: C_4  and  C_5
REMARK                            x       y       z     vdW  Elec       q    Type
REMARK                         _______ _______ _______ _____ _____    ______ ____
ROOT
ATOM      1  N   UNL     1      -8.275  -5.371  -2.681  0.00  0.00    -0.354 N 
ATOM      2  N   UNL     1      -6.336  -4.154  -3.032  0.00  0.00    -0.372 N 
ATOM      3  N   UNL     1      -7.209  -4.261  -0.913  0.00  0.00    -0.372 N 
ATOM      4  C   UNL     1      -7.286  -4.603  -2.204  0.00  0.00    +0.166 C 
ATOM      5  H   UNL     1      -8.294  -5.570  -3.674  0.00  0.00    +0.163 HD
ATOM      6  H   UNL     1      -5.576  -3.576  -2.701  0.00  0.00    +0.159 HD
ATOM      7  H   UNL     1      -6.332  -4.392  -4.017  0.00  0.00    +0.159 HD
ATOM      8  H   UNL     1      -7.898  -4.563  -0.237  0.00  0.00    +0.159 HD
ATOM      9  H   UNL     1      -6.462  -3.673  -0.564  0.00  0.00    +0.159 HD
ENDROOT
BRANCH   1  10
ATOM     10  C   UNL     1      -9.329  -5.955  -1.853  0.00  0.00    +0.151 C 
BRANCH  10  11
ATOM     11  C   UNL     1     -10.425  -6.470  -2.744  0.00  0.00    -0.028 A 
ATOM     12  C   UNL     1     -10.120  -7.234  -3.880  0.00  0.00    +0.005 A 
ATOM     13  C   UNL     1     -11.772  -6.201  -2.455  0.00  0.00    +0.005 A 
ATOM     14  C   UNL     1     -11.140  -7.737  -4.691  0.00  0.00    +0.000 A 
ATOM     15  C   UNL     1     -12.787  -6.704  -3.268  0.00  0.00    +0.000 A 
ATOM     16  C   UNL     1     -12.471  -7.474  -4.385  0.00  0.00    +0.000 A 
ENDBRANCH  10  11
ENDBRANCH   1  10
TORSDOF 2
ENDMDL
MODEL 6
REMARK VINA RESULT:    -4.404     17.647     19.087
REMARK INTER + INTRA:          -5.042
REMARK INTER:                  -4.890
REMARK INTRA:                  -0.153
REMARK UNBOUND:                -0.123
REMARK  Name = 1550473
REMARK  2 active torsions:
REMARK  status: ('A' for Active; 'I' for Inactive)
REMARK    1  A    between atoms: N_1  and  C_4
REMARK    2  A    between atoms: C_4  and  C_5
REMARK                            x       y       z     vdW  Elec       q    Type
REMARK                         _______ _______ _______ _____ _____    ______ ____
ROOT
ATOM      1  N   UNL     1      12.426   1.922  -4.174  0.00  0.00    -0.354 N 
ATOM      2  N   UNL     1      11.662   4.072  -3.778  0.00  0.00    -0.372 N 
ATOM      3  N   UNL     1      11.094   2.405  -2.308  0.00  0.00    -0.372 N 
ATOM      4  C   UNL     1      11.731   2.784  -3.421  0.00  0.00    +0.166 C 
ATOM      5  H   UNL     1      12.862   2.267  -5.022  0.00  0.00    +0.163 HD
ATOM      6  H   UNL     1      11.147   4.747  -3.228  0.00  0.00    +0.159 HD
ATOM      7  H   UNL     1      12.136   4.423  -4.602  0.00  0.00    +0.159 HD
ATOM      8  H   UNL     1      11.102   1.446  -1.987  0.00  0.00    +0.159 HD
ATOM      9  H   UNL     1      10.564   3.063  -1.750  0.00  0.00    +0.159 HD
ENDROOT
BRANCH   1  10
ATOM     10  C   UNL     1      12.609   0.510  -3.844  0.00  0.00    +0.151 C 
BRANCH  10  11
ATOM     11  C   UNL     1      11.821  -0.327  -4.814  0.00  0.00    -0.028 A 
ATOM     12  C   UNL     1      11.439  -1.634  -4.479  0.00  0.00    +0.005 A 
ATOM     13  C   UNL     1      11.450   0.183  -6.067  0.00  0.00    +0.005 A 
ATOM     14  C   UNL     1      10.682  -2.402  -5.368  0.00  0.00    +0.000 A 
ATOM     15  C   UNL     1      10.695  -0.586  -6.952  0.00  0.00    +0.000 A 
ATOM     16  C   UNL     1      10.309  -1.877  -6.601  0.00  0.00    +0.000 A 
ENDBRANCH  10  11
ENDBRANCH   1  10
TORSDOF 2
ENDMDL
MODEL 7
REMARK VINA RESULT:    -4.346      1.634      2.137
REMARK INTER + INTRA:          -4.977
REMARK INTER:                  -4.811
REMARK INTRA:                  -0.166
REMARK UNBOUND:                -0.123
REMARK  Name = 1550473
REMARK  2 active torsions:
REMARK  status: ('A' for Active; 'I' for Inactive)
REMARK    1  A    between atoms: N_1  and  C_4
REMARK    2  A    between atoms: C_4  and  C_5
REMARK                            x       y       z     vdW  Elec       q    Type
REMARK                         _______ _______ _______ _____ _____    ______ ____
ROOT
ATOM      1  N   UNL     1      -1.858 -12.868  -2.921  0.00  0.00    -0.354 N 
ATOM      2  N   UNL     1      -0.762 -11.800  -1.183  0.00  0.00    -0.372 N 
ATOM      3  N   UNL     1      -0.495 -11.003  -3.318  0.00  0.00    -0.372 N 
ATOM      4  C   UNL     1      -1.044 -11.896  -2.487  0.00  0.00    +0.166 C 
ATOM      5  H   UNL     1      -2.218 -13.532  -2.245  0.00  0.00    +0.163 HD
ATOM      6  H   UNL     1      -0.154 -11.075  -0.825  0.00  0.00    +0.159 HD
ATOM      7  H   UNL     1      -1.160 -12.437  -0.503  0.00  0.00    +0.159 HD
ATOM      8  H   UNL     1      -0.664 -11.024  -4.315  0.00  0.00    +0.159 HD
ATOM      9  H   UNL     1       0.125 -10.277  -2.981  0.00  0.00    +0.159 HD
ENDROOT
BRANCH   1  10
ATOM     10  C   UNL     1      -2.272 -13.027  -4.314  0.00  0.00    +0.151 C 
BRANCH  10  11
ATOM     11  C   UNL     1      -3.744 -12.741  -4.425  0.00  0.00    -0.028 A 
ATOM     12  C   UNL     1      -4.668 -13.791  -4.517  0.00  0.00    +0.005 A 
ATOM     13  C   UNL     1      -4.221 -11.421  -4.433  0.00  0.00    +0.005 A 
ATOM     14  C   UNL     1      -6.038 -13.527  -4.590  0.00  0.00    +0.000 A 
ATOM     15  C   UNL     1      -5.589 -11.161  -4.506  0.00  0.00    +0.000 A 
ATOM     16  C   UNL     1      -6.498 -12.214  -4.582  0.00  0.00    +0.000 A 
ENDBRANCH  10  11
ENDBRANCH   1  10
TORSDOF 2
ENDMDL
MODEL 8
REMARK VINA RESULT:    -4.345      1.944      2.964
REMARK INTER + INTRA:          -4.976
REMARK INTER:                  -4.873
REMARK INTRA:                  -0.103
REMARK UNBOUND:                -0.123
REMARK  Name = 1550473
REMARK  2 active torsions:
REMARK  status: ('A' for Active; 'I' for Inactive)
REMARK    1  A    between atoms: N_1  and  C_4
REMARK    2  A    between atoms: C_4  and  C_5
REMARK                            x       y       z     vdW  Elec       q    Type
REMARK                         _______ _______ _______ _____ _____    ______ ____
ROOT
ATOM      1  N   UNL     1      -0.364 -11.649  -1.486  0.00  0.00    -0.354 N 
ATOM      2  N   UNL     1       0.487 -12.029   0.634  0.00  0.00    -0.372 N 
ATOM      3  N   UNL     1       1.709 -12.701  -1.189  0.00  0.00    -0.372 N 
ATOM      4  C   UNL     1       0.607 -12.125  -0.696  0.00  0.00    +0.166 C 
ATOM      5  H   UNL     1      -1.188 -11.252  -1.050  0.00  0.00    +0.163 HD
ATOM      6  H   UNL     1       1.205 -12.376   1.255  0.00  0.00    +0.159 HD
ATOM      7  H   UNL     1      -0.316 -11.590   1.066  0.00  0.00    +0.159 HD
ATOM      8  H   UNL     1       1.858 -12.809  -2.183  0.00  0.00    +0.159 HD
ATOM      9  H   UNL     1       2.434 -13.064  -0.582  0.00  0.00    +0.159 HD
ENDROOT
BRANCH   1  10
ATOM     10  C   UNL     1      -0.306 -11.656  -2.947  0.00  0.00    +0.151 C 
BRANCH  10  11
ATOM     11  C   UNL     1      -1.689 -11.886  -3.492  0.00  0.00    -0.028 A 
ATOM     12  C   UNL     1      -2.574 -10.812  -3.664  0.00  0.00    +0.005 A 
ATOM     13  C   UNL     1      -2.118 -13.175  -3.844  0.00  0.00    +0.005 A 
ATOM     14  C   UNL     1      -3.848 -11.021  -4.198  0.00  0.00    +0.000 A 
ATOM     15  C   UNL     1      -3.391 -13.380  -4.377  0.00  0.00    +0.000 A 
ATOM     16  C   UNL     1      -4.255 -12.302  -4.556  0.00  0.00    +0.000 A 
ENDBRANCH  10  11
ENDBRANCH   1  10
TORSDOF 2
ENDMDL
MODEL 9
REMARK VINA RESULT:    -4.309     31.319     32.526
REMARK INTER + INTRA:          -4.936
REMARK INTER:                  -4.758
REMARK INTRA:                  -0.178
REMARK UNBOUND:                -0.123
REMARK  Name = 1550473
REMARK  2 active torsions:
REMARK  status: ('A' for Active; 'I' for Inactive)
REMARK    1  A    between atoms: N_1  and  C_4
REMARK    2  A    between atoms: C_4  and  C_5
REMARK                            x       y       z     vdW  Elec       q    Type
REMARK                         _______ _______ _______ _____ _____    ______ ____
ROOT
ATOM      1  N   UNL     1      18.508   7.530  13.653  0.00  0.00    -0.354 N 
ATOM      2  N   UNL     1      20.130   7.027  12.079  0.00  0.00    -0.372 N 
ATOM      3  N   UNL     1      19.545   9.222  12.406  0.00  0.00    -0.372 N 
ATOM      4  C   UNL     1      19.384   7.932  12.723  0.00  0.00    +0.166 C 
ATOM      5  H   UNL     1      18.411   6.536  13.826  0.00  0.00    +0.163 HD
ATOM      6  H   UNL     1      20.801   7.301  11.374  0.00  0.00    +0.159 HD
ATOM      7  H   UNL     1      20.064   6.038  12.285  0.00  0.00    +0.159 HD
ATOM      8  H   UNL     1      19.009   9.954  12.852  0.00  0.00    +0.159 HD
ATOM      9  H   UNL     1      20.204   9.514  11.696  0.00  0.00    +0.159 HD
ENDROOT
BRANCH   1  10
ATOM     10  C   UNL     1      17.686   8.440  14.450  0.00  0.00    +0.151 C 
BRANCH  10  11
ATOM     11  C   UNL     1      16.290   8.457  13.891  0.00  0.00    -0.028 A 
ATOM     12  C   UNL     1      15.350   7.496  14.292  0.00  0.00    +0.005 A 
ATOM     13  C   UNL     1      15.899   9.436  12.965  0.00  0.00    +0.005 A 
ATOM     14  C   UNL     1      14.045   7.530  13.797  0.00  0.00    +0.000 A 
ATOM     15  C   UNL     1      14.595   9.466  12.471  0.00  0.00    +0.000 A 
ATOM     16  C   UNL     1      13.667   8.514  12.889  0.00  0.00    +0.000 A 
ENDBRANCH  10  11
ENDBRANCH   1  10
TORSDOF 2
ENDMDL
