MODEL 1
REMARK VINA RESULT:    -5.411      0.000      0.000
REMARK INTER + INTRA:          -6.164
REMARK INTER:                  -6.044
REMARK INTRA:                  -0.120
REMARK UNBOUND:                -0.120
REMARK  Name = 1550473
REMARK  2 active torsions:
REMARK  status: ('A' for Active; 'I' for Inactive)
REMARK    1  A    between atoms: N_1  and  C_4
REMARK    2  A    between atoms: C_4  and  C_5
REMARK                            x       y       z     vdW  Elec       q    Type
REMARK                         _______ _______ _______ _____ _____    ______ ____
ROOT
ATOM      1  N   UNL     1      -1.832   7.415  -2.506  0.00  0.00    -0.354 N 
ATOM      2  N   UNL     1       0.460   7.089  -2.565  0.00  0.00    -0.372 N 
ATOM      3  N   UNL     1      -0.722   6.327  -0.752  0.00  0.00    -0.372 N 
ATOM      4  C   UNL     1      -0.713   6.945  -1.938  0.00  0.00    +0.166 C 
ATOM      5  H   UNL     1      -1.754   7.901  -3.392  0.00  0.00    +0.163 HD
ATOM      6  H   UNL     1       1.321   6.742  -2.163  0.00  0.00    +0.159 HD
ATOM      7  H   UNL     1       0.529   7.534  -3.472  0.00  0.00    +0.159 HD
ATOM      8  H   UNL     1      -1.574   6.191  -0.225  0.00  0.00    +0.159 HD
ATOM      9  H   UNL     1       0.130   5.982  -0.328  0.00  0.00    +0.159 HD
ENDROOT
BRANCH   1  10
ATOM     10  C   UNL     1      -3.167   7.261  -1.932  0.00  0.00    +0.151 C 
BRANCH  10  11
ATOM     11  C   UNL     1      -4.134   8.121  -2.699  0.00  0.00    -0.028 A 
ATOM     12  C   UNL     1      -5.501   7.809  -2.722  0.00  0.00    +0.005 A 
ATOM     13  C   UNL     1      -3.689   9.253  -3.399  0.00  0.00    +0.005 A 
ATOM     14  C   UNL     1      -6.403   8.624  -3.410  0.00  0.00    +0.000 A 
ATOM     15  C   UNL     1      -4.593  10.064  -4.085  0.00  0.00    +0.000 A 
ATOM     16  C   UNL     1      -5.950   9.751  -4.088  0.00  0.00    +0.000 A 
ENDBRANCH  10  11
ENDBRANCH   1  10
TORSDOF 2
ENDMDL
MODEL 2
REMARK VINA RESULT:    -5.360      0.968      1.996
REMARK INTER + INTRA:          -6.107
REMARK INTER:                  -5.986
REMARK INTRA:                  -0.121
REMARK UNBOUND:                -0.120
REMARK  Name = 1550473
REMARK  2 active torsions:
REMARK  status: ('A' for Active; 'I' for Inactive)
REMARK    1  A    between atoms: N_1  and  C_4
REMARK    2  A    between atoms: C_4  and  C_5
REMARK                            x       y       z     vdW  Elec       q    Type
REMARK                         _______ _______ _______ _____ _____    ______ ____
ROOT
ATOM      1  N   UNL     1      -2.463   6.951  -1.382  0.00  0.00    -0.354 N 
ATOM      2  N   UNL     1      -1.493   5.587   0.219  0.00  0.00    -0.372 N 
ATOM      3  N   UNL     1      -0.133   6.764  -1.206  0.00  0.00    -0.372 N 
ATOM      4  C   UNL     1      -1.367   6.444  -0.801  0.00  0.00    +0.166 C 
ATOM      5  H   UNL     1      -3.370   6.644  -1.049  0.00  0.00    +0.163 HD
ATOM      6  H   UNL     1      -0.685   5.191   0.679  0.00  0.00    +0.159 HD
ATOM      7  H   UNL     1      -2.401   5.318   0.580  0.00  0.00    +0.159 HD
ATOM      8  H   UNL     1       0.030   7.400  -1.974  0.00  0.00    +0.159 HD
ATOM      9  H   UNL     1       0.688   6.369  -0.765  0.00  0.00    +0.159 HD
ENDROOT
BRANCH   1  10
ATOM     10  C   UNL     1      -2.434   7.932  -2.465  0.00  0.00    +0.151 C 
BRANCH  10  11
ATOM     11  C   UNL     1      -3.844   8.320  -2.814  0.00  0.00    -0.028 A 
ATOM     12  C   UNL     1      -4.096   9.438  -3.622  0.00  0.00    +0.005 A 
ATOM     13  C   UNL     1      -4.934   7.571  -2.343  0.00  0.00    +0.005 A 
ATOM     14  C   UNL     1      -5.405   9.782  -3.971  0.00  0.00    +0.000 A 
ATOM     15  C   UNL     1      -6.239   7.918  -2.692  0.00  0.00    +0.000 A 
ATOM     16  C   UNL     1      -6.473   9.022  -3.508  0.00  0.00    +0.000 A 
ENDBRANCH  10  11
ENDBRANCH   1  10
TORSDOF 2
ENDMDL
MODEL 3
REMARK VINA RESULT:    -5.235      1.459      2.496
REMARK INTER + INTRA:          -5.967
REMARK INTER:                  -5.863
REMARK INTRA:                  -0.104
REMARK UNBOUND:                -0.120
REMARK  Name = 1550473
REMARK  2 active torsions:
REMARK  status: ('A' for Active; 'I' for Inactive)
REMARK    1  A    between atoms: N_1  and  C_4
REMARK    2  A    between atoms: C_4  and  C_5
REMARK                            x       y       z     vdW  Elec       q    Type
REMARK                         _______ _______ _______ _____ _____    ______ ____
ROOT
ATOM      1  N   UNL     1      -3.375   8.721  -2.176  0.00  0.00    -0.354 N 
ATOM      2  N   UNL     1      -1.065   8.581  -2.078  0.00  0.00    -0.372 N 
ATOM      3  N   UNL     1      -2.232   6.920  -3.148  0.00  0.00    -0.372 N 
ATOM      4  C   UNL     1      -2.240   8.072  -2.469  0.00  0.00    +0.166 C 
ATOM      5  H   UNL     1      -3.315   9.574  -1.632  0.00  0.00    +0.163 HD
ATOM      6  H   UNL     1      -0.192   8.116  -2.288  0.00  0.00    +0.159 HD
ATOM      7  H   UNL     1      -1.005   9.458  -1.575  0.00  0.00    +0.159 HD
ATOM      8  H   UNL     1      -3.085   6.481  -3.467  0.00  0.00    +0.159 HD
ATOM      9  H   UNL     1      -1.369   6.434  -3.358  0.00  0.00    +0.159 HD
ENDROOT
BRANCH   1  10
ATOM     10  C   UNL     1      -4.702   8.280  -2.602  0.00  0.00    +0.151 C 
BRANCH  10  11
ATOM     11  C   UNL     1      -5.290   9.313  -3.523  0.00  0.00    -0.028 A 
ATOM     12  C   UNL     1      -4.458  10.124  -4.308  0.00  0.00    +0.005 A 
ATOM     13  C   UNL     1      -6.680   9.481  -3.620  0.00  0.00    +0.005 A 
ATOM     14  C   UNL     1      -5.005  11.063  -5.186  0.00  0.00    +0.000 A 
ATOM     15  C   UNL     1      -7.222  10.420  -4.497  0.00  0.00    +0.000 A 
ATOM     16  C   UNL     1      -6.385  11.209  -5.281  0.00  0.00    +0.000 A 
ENDBRANCH  10  11
ENDBRANCH   1  10
TORSDOF 2
ENDMDL
MODEL 4
REMARK VINA RESULT:    -5.007      1.330      2.157
REMARK INTER + INTRA:          -5.713
REMARK INTER:                  -5.565
REMARK INTRA:                  -0.148
REMARK UNBOUND:                -0.120
REMARK  Name = 1550473
REMARK  2 active torsions:
REMARK  status: ('A' for Active; 'I' for Inactive)
REMARK    1  A    between atoms: N_1  and  C_4
REMARK    2  A    between atoms: C_4  and  C_5
REMARK                            x       y       z     vdW  Elec       q    Type
REMARK                         _______ _______ _______ _____ _____    ______ ____
ROOT
ATOM      1  N   UNL     1      -0.445   7.494  -1.702  0.00  0.00    -0.354 N 
ATOM      2  N   UNL     1       1.415   6.746  -2.862  0.00  0.00    -0.372 N 
ATOM      3  N   UNL     1       1.030   9.004  -2.722  0.00  0.00    -0.372 N 
ATOM      4  C   UNL     1       0.655   7.756  -2.422  0.00  0.00    +0.166 C 
ATOM      5  H   UNL     1      -0.691   6.526  -1.535  0.00  0.00    +0.163 HD
ATOM      6  H   UNL     1       2.252   6.912  -3.404  0.00  0.00    +0.159 HD
ATOM      7  H   UNL     1       1.191   5.780  -2.654  0.00  0.00    +0.159 HD
ATOM      8  H   UNL     1       0.496   9.809  -2.424  0.00  0.00    +0.159 HD
ATOM      9  H   UNL     1       1.858   9.190  -3.273  0.00  0.00    +0.159 HD
ENDROOT
BRANCH   1  10
ATOM     10  C   UNL     1      -1.311   8.523  -1.130  0.00  0.00    +0.151 C 
BRANCH  10  11
ATOM     11  C   UNL     1      -2.703   8.352  -1.675  0.00  0.00    -0.028 A 
ATOM     12  C   UNL     1      -3.624   7.517  -1.026  0.00  0.00    +0.005 A 
ATOM     13  C   UNL     1      -3.108   9.027  -2.837  0.00  0.00    +0.005 A 
ATOM     14  C   UNL     1      -4.926   7.382  -1.514  0.00  0.00    +0.000 A 
ATOM     15  C   UNL     1      -4.408   8.888  -3.322  0.00  0.00    +0.000 A 
ATOM     16  C   UNL     1      -5.317   8.068  -2.659  0.00  0.00    +0.000 A 
ENDBRANCH  10  11
ENDBRANCH   1  10
TORSDOF 2
ENDMDL
MODEL 5
REMARK VINA RESULT:    -4.813     11.426     12.972
REMARK INTER + INTRA:          -5.496
REMARK INTER:                  -5.361
REMARK INTRA:                  -0.135
REMARK UNBOUND:                -0.120
REMARK  Name = 1550473
REMARK  2 active torsions:
REMARK  status: ('A' for Active; 'I' for Inactive)
REMARK    1  A    between atoms: N_1  and  C_4
REMARK    2  A    between atoms: C_4  and  C_5
REMARK                            x       y       z     vdW  Elec       q    Type
REMARK                         _______ _______ _______ _____ _____    ______ ____
ROOT
ATOM      1  N   UNL     1      -2.058   2.395   6.813  0.00  0.00    -0.354 N 
ATOM      2  N   UNL     1       0.035   3.371   6.630  0.00  0.00    -0.372 N 
ATOM      3  N   UNL     1      -1.417   4.152   8.226  0.00  0.00    -0.372 N 
ATOM      4  C   UNL     1      -1.161   3.301   7.226  0.00  0.00    +0.166 C 
ATOM      5  H   UNL     1      -1.814   1.800   6.030  0.00  0.00    +0.163 HD
ATOM      6  H   UNL     1       0.733   4.042   6.922  0.00  0.00    +0.159 HD
ATOM      7  H   UNL     1       0.293   2.744   5.878  0.00  0.00    +0.159 HD
ATOM      8  H   UNL     1      -2.303   4.155   8.713  0.00  0.00    +0.159 HD
ATOM      9  H   UNL     1      -0.736   4.838   8.525  0.00  0.00    +0.159 HD
ENDROOT
BRANCH   1  10
ATOM     10  C   UNL     1      -3.368   2.201   7.430  0.00  0.00    +0.151 C 
BRANCH  10  11
ATOM     11  C   UNL     1      -3.592   0.732   7.657  0.00  0.00    -0.028 A 
ATOM     12  C   UNL     1      -4.493   0.291   8.638  0.00  0.00    +0.005 A 
ATOM     13  C   UNL     1      -2.910  -0.226   6.890  0.00  0.00    +0.005 A 
ATOM     14  C   UNL     1      -4.723  -1.073   8.829  0.00  0.00    +0.000 A 
ATOM     15  C   UNL     1      -3.142  -1.588   7.085  0.00  0.00    +0.000 A 
ATOM     16  C   UNL     1      -4.050  -2.011   8.052  0.00  0.00    +0.000 A 
ENDBRANCH  10  11
ENDBRANCH   1  10
TORSDOF 2
ENDMDL
MODEL 6
REMARK VINA RESULT:    -4.803      2.641      4.976
REMARK INTER + INTRA:          -5.485
REMARK INTER:                  -5.375
REMARK INTRA:                  -0.110
REMARK UNBOUND:                -0.120
REMARK  Name = 1550473
REMARK  2 active torsions:
REMARK  status: ('A' for Active; 'I' for Inactive)
REMARK    1  A    between atoms: N_1  and  C_4
REMARK    2  A    between atoms: C_4  and  C_5
REMARK                            x       y       z     vdW  Elec       q    Type
REMARK                         _______ _______ _______ _____ _____    ______ ____
ROOT
ATOM      1  N   UNL     1      -4.310   9.293  -3.164  0.00  0.00    -0.354 N 
ATOM      2  N   UNL     1      -4.699  11.109  -4.547  0.00  0.00    -0.372 N 
ATOM      3  N   UNL     1      -6.429   9.672  -4.091  0.00  0.00    -0.372 N 
ATOM      4  C   UNL     1      -5.146  10.011  -3.925  0.00  0.00    +0.166 C 
ATOM      5  H   UNL     1      -3.342   9.586  -3.104  0.00  0.00    +0.163 HD
ATOM      6  H   UNL     1      -5.307  11.673  -5.126  0.00  0.00    +0.159 HD
ATOM      7  H   UNL     1      -3.742  11.425  -4.448  0.00  0.00    +0.159 HD
ATOM      8  H   UNL     1      -6.826   8.852  -3.653  0.00  0.00    +0.159 HD
ATOM      9  H   UNL     1      -7.050  10.217  -4.675  0.00  0.00    +0.159 HD
ENDROOT
BRANCH   1  10
ATOM     10  C   UNL     1      -4.710   8.112  -2.401  0.00  0.00    +0.151 C 
BRANCH  10  11
ATOM     11  C   UNL     1      -3.477   7.397  -1.920  0.00  0.00    -0.028 A 
ATOM     12  C   UNL     1      -3.365   6.995  -0.581  0.00  0.00    +0.005 A 
ATOM     13  C   UNL     1      -2.420   7.115  -2.799  0.00  0.00    +0.005 A 
ATOM     14  C   UNL     1      -2.233   6.305  -0.140  0.00  0.00    +0.000 A 
ATOM     15  C   UNL     1      -1.291   6.427  -2.355  0.00  0.00    +0.000 A 
ATOM     16  C   UNL     1      -1.199   6.020  -1.026  0.00  0.00    +0.000 A 
ENDBRANCH  10  11
ENDBRANCH   1  10
TORSDOF 2
ENDMDL
MODEL 7
REMARK VINA RESULT:    -4.797     20.639     22.223
REMARK INTER + INTRA:          -5.478
REMARK INTER:                  -5.338
REMARK INTRA:                  -0.139
REMARK UNBOUND:                -0.120
REMARK  Name = 1550473
REMARK  2 active torsions:
REMARK  status: ('A' for Active; 'I' for Inactive)
REMARK    1  A    between atoms: N_1  and  C_4
REMARK    2  A    between atoms: C_4  and  C_5
REMARK                            x       y       z     vdW  Elec       q    Type
REMARK                         _______ _______ _______ _____ _____    ______ ____
ROOT
ATOM      1  N   UNL     1      13.540  -2.558   2.416  0.00  0.00    -0.354 N 
ATOM      2  N   UNL     1      12.249  -2.324   4.325  0.00  0.00    -0.372 N 
ATOM      3  N   UNL     1      14.409  -1.549   4.345  0.00  0.00    -0.372 N 
ATOM      4  C   UNL     1      13.410  -2.144   3.684  0.00  0.00    +0.166 C 
ATOM      5  H   UNL     1      12.756  -3.029   1.981  0.00  0.00    +0.163 HD
ATOM      6  H   UNL     1      12.121  -2.020   5.281  0.00  0.00    +0.159 HD
ATOM      7  H   UNL     1      11.452  -2.754   3.872  0.00  0.00    +0.159 HD
ATOM      8  H   UNL     1      15.312  -1.389   3.920  0.00  0.00    +0.159 HD
ATOM      9  H   UNL     1      14.303  -1.248   5.306  0.00  0.00    +0.159 HD
ENDROOT
BRANCH   1  10
ATOM     10  C   UNL     1      14.744  -2.361   1.611  0.00  0.00    +0.151 C 
BRANCH  10  11
ATOM     11  C   UNL     1      15.040  -3.626   0.853  0.00  0.00    -0.028 A 
ATOM     12  C   UNL     1      15.841  -3.595  -0.298  0.00  0.00    +0.005 A 
ATOM     13  C   UNL     1      14.528  -4.859   1.284  0.00  0.00    +0.005 A 
ATOM     14  C   UNL     1      16.140  -4.773  -0.986  0.00  0.00    +0.000 A 
ATOM     15  C   UNL     1      14.829  -6.033   0.595  0.00  0.00    +0.000 A 
ATOM     16  C   UNL     1      15.637  -5.990  -0.539  0.00  0.00    +0.000 A 
ENDBRANCH  10  11
ENDBRANCH   1  10
TORSDOF 2
ENDMDL
MODEL 8
REMARK VINA RESULT:    -4.717      1.536      2.318
REMARK INTER + INTRA:          -5.388
REMARK INTER:                  -5.263
REMARK INTRA:                  -0.125
REMARK UNBOUND:                -0.120
REMARK  Name = 1550473
REMARK  2 active torsions:
REMARK  status: ('A' for Active; 'I' for Inactive)
REMARK    1  A    between atoms: N_1  and  C_4
REMARK    2  A    between atoms: C_4  and  C_5
REMARK                            x       y       z     vdW  Elec       q    Type
REMARK                         _______ _______ _______ _____ _____    ______ ____
ROOT
ATOM      1  N   UNL     1      -3.816   7.864  -2.393  0.00  0.00    -0.354 N 
ATOM      2  N   UNL     1      -1.725   7.728  -1.408  0.00  0.00    -0.372 N 
ATOM      3  N   UNL     1      -3.451   8.664  -0.221  0.00  0.00    -0.372 N 
ATOM      4  C   UNL     1      -3.012   8.088  -1.345  0.00  0.00    +0.166 C 
ATOM      5  H   UNL     1      -3.416   7.451  -3.228  0.00  0.00    +0.163 HD
ATOM      6  H   UNL     1      -1.095   7.881  -0.632  0.00  0.00    +0.159 HD
ATOM      7  H   UNL     1      -1.338   7.274  -2.226  0.00  0.00    +0.159 HD
ATOM      8  H   UNL     1      -4.411   8.964  -0.112  0.00  0.00    +0.159 HD
ATOM      9  H   UNL     1      -2.834   8.836   0.563  0.00  0.00    +0.159 HD
ENDROOT
BRANCH   1  10
ATOM     10  C   UNL     1      -5.246   8.169  -2.407  0.00  0.00    +0.151 C 
BRANCH  10  11
ATOM     11  C   UNL     1      -5.509   9.247  -3.422  0.00  0.00    -0.028 A 
ATOM     12  C   UNL     1      -6.814   9.707  -3.650  0.00  0.00    +0.005 A 
ATOM     13  C   UNL     1      -4.456   9.816  -4.155  0.00  0.00    +0.005 A 
ATOM     14  C   UNL     1      -7.055  10.730  -4.572  0.00  0.00    +0.000 A 
ATOM     15  C   UNL     1      -4.701  10.836  -5.075  0.00  0.00    +0.000 A 
ATOM     16  C   UNL     1      -6.000  11.294  -5.281  0.00  0.00    +0.000 A 
ENDBRANCH  10  11
ENDBRANCH   1  10
TORSDOF 2
ENDMDL
MODEL 9
REMARK VINA RESULT:    -4.703     11.996     12.973
REMARK INTER + INTRA:          -5.373
REMARK INTER:                  -5.264
REMARK INTRA:                  -0.109
REMARK UNBOUND:                -0.120
REMARK  Name = 1550473
REMARK  2 active torsions:
REMARK  status: ('A' for Active; 'I' for Inactive)
REMARK    1  A    between atoms: N_1  and  C_4
REMARK    2  A    between atoms: C_4  and  C_5
REMARK                            x       y       z     vdW  Elec       q    Type
REMARK                         _______ _______ _______ _____ _____    ______ ____
ROOT
ATOM      1  N   UNL     1      -4.907  -1.741   6.952  0.00  0.00    -0.354 N 
ATOM      2  N   UNL     1      -4.896  -2.670   9.073  0.00  0.00    -0.372 N 
ATOM      3  N   UNL     1      -4.372  -0.449   8.832  0.00  0.00    -0.372 N 
ATOM      4  C   UNL     1      -4.724  -1.611   8.273  0.00  0.00    +0.166 C 
ATOM      5  H   UNL     1      -5.144  -2.656   6.586  0.00  0.00    +0.163 HD
ATOM      6  H   UNL     1      -4.769  -2.602  10.074  0.00  0.00    +0.159 HD
ATOM      7  H   UNL     1      -5.178  -3.572   8.710  0.00  0.00    +0.159 HD
ATOM      8  H   UNL     1      -4.221   0.386   8.283  0.00  0.00    +0.159 HD
ATOM      9  H   UNL     1      -4.228  -0.364   9.831  0.00  0.00    +0.159 HD
ENDROOT
BRANCH   1  10
ATOM     10  C   UNL     1      -4.797  -0.638   5.999  0.00  0.00    +0.151 C 
BRANCH  10  11
ATOM     11  C   UNL     1      -5.567  -0.985   4.755  0.00  0.00    -0.028 A 
ATOM     12  C   UNL     1      -6.949  -1.218   4.814  0.00  0.00    +0.005 A 
ATOM     13  C   UNL     1      -4.921  -1.077   3.512  0.00  0.00    +0.005 A 
ATOM     14  C   UNL     1      -7.669  -1.511   3.653  0.00  0.00    +0.000 A 
ATOM     15  C   UNL     1      -5.644  -1.370   2.356  0.00  0.00    +0.000 A 
ATOM     16  C   UNL     1      -7.018  -1.585   2.427  0.00  0.00    +0.000 A 
ENDBRANCH  10  11
ENDBRANCH   1  10
TORSDOF 2
ENDMDL
