MODEL 1
REMARK VINA RESULT:    -5.879      0.000      0.000
REMARK INTER + INTRA:          -6.688
REMARK INTER:                  -6.567
REMARK INTRA:                  -0.121
REMARK UNBOUND:                -0.121
REMARK  Name = 1550473
REMARK  2 active torsions:
REMARK  status: ('A' for Active; 'I' for Inactive)
REMARK    1  A    between atoms: N_1  and  C_4
REMARK    2  A    between atoms: C_4  and  C_5
REMARK                            x       y       z     vdW  Elec       q    Type
REMARK                         _______ _______ _______ _____ _____    ______ ____
ROOT
ATOM      1  N   UNL     1       1.147   3.706 -15.087  0.00  0.00    -0.354 N 
ATOM      2  N   UNL     1       3.287   4.542 -14.793  0.00  0.00    -0.372 N 
ATOM      3  N   UNL     1       2.938   2.285 -14.572  0.00  0.00    -0.372 N 
ATOM      4  C   UNL     1       2.444   3.503 -14.819  0.00  0.00    +0.166 C 
ATOM      5  H   UNL     1       0.830   4.657 -15.235  0.00  0.00    +0.163 HD
ATOM      6  H   UNL     1       4.272   4.419 -14.597  0.00  0.00    +0.159 HD
ATOM      7  H   UNL     1       2.976   5.486 -14.987  0.00  0.00    +0.159 HD
ATOM      8  H   UNL     1       2.353   1.460 -14.571  0.00  0.00    +0.159 HD
ATOM      9  H   UNL     1       3.918   2.143 -14.363  0.00  0.00    +0.159 HD
ENDROOT
BRANCH   1  10
ATOM     10  C   UNL     1       0.156   2.637 -15.191  0.00  0.00    +0.151 C 
BRANCH  10  11
ATOM     11  C   UNL     1      -1.212   3.209 -14.942  0.00  0.00    -0.028 A 
ATOM     12  C   UNL     1      -1.412   4.165 -13.936  0.00  0.00    +0.005 A 
ATOM     13  C   UNL     1      -2.312   2.803 -15.714  0.00  0.00    +0.005 A 
ATOM     14  C   UNL     1      -2.677   4.719 -13.724  0.00  0.00    +0.000 A 
ATOM     15  C   UNL     1      -3.574   3.357 -15.499  0.00  0.00    +0.000 A 
ATOM     16  C   UNL     1      -3.755   4.317 -14.506  0.00  0.00    +0.000 A 
ENDBRANCH  10  11
ENDBRANCH   1  10
TORSDOF 2
ENDMDL
MODEL 2
REMARK VINA RESULT:    -5.516      9.820     10.377
REMARK INTER + INTRA:          -6.282
REMARK INTER:                  -6.176
REMARK INTRA:                  -0.106
REMARK UNBOUND:                -0.121
REMARK  Name = 1550473
REMARK  2 active torsions:
REMARK  status: ('A' for Active; 'I' for Inactive)
REMARK    1  A    between atoms: N_1  and  C_4
REMARK    2  A    between atoms: C_4  and  C_5
REMARK                            x       y       z     vdW  Elec       q    Type
REMARK                         _______ _______ _______ _____ _____    ______ ____
ROOT
ATOM      1  N   UNL     1       1.291   3.466  -5.968  0.00  0.00    -0.354 N 
ATOM      2  N   UNL     1       1.999   5.081  -7.470  0.00  0.00    -0.372 N 
ATOM      3  N   UNL     1       3.361   4.534  -5.706  0.00  0.00    -0.372 N 
ATOM      4  C   UNL     1       2.215   4.350  -6.370  0.00  0.00    +0.166 C 
ATOM      5  H   UNL     1       0.430   3.396  -6.498  0.00  0.00    +0.163 HD
ATOM      6  H   UNL     1       2.679   5.753  -7.800  0.00  0.00    +0.159 HD
ATOM      7  H   UNL     1       1.158   4.976  -8.024  0.00  0.00    +0.159 HD
ATOM      8  H   UNL     1       3.582   4.018  -4.865  0.00  0.00    +0.159 HD
ATOM      9  H   UNL     1       4.049   5.211  -6.014  0.00  0.00    +0.159 HD
ENDROOT
BRANCH   1  10
ATOM     10  C   UNL     1       1.452   2.583  -4.815  0.00  0.00    +0.151 C 
BRANCH  10  11
ATOM     11  C   UNL     1       0.121   2.413  -4.137  0.00  0.00    -0.028 A 
ATOM     12  C   UNL     1      -0.239   3.234  -3.058  0.00  0.00    +0.005 A 
ATOM     13  C   UNL     1      -0.789   1.437  -4.573  0.00  0.00    +0.005 A 
ATOM     14  C   UNL     1      -1.488   3.096  -2.447  0.00  0.00    +0.000 A 
ATOM     15  C   UNL     1      -2.034   1.303  -3.960  0.00  0.00    +0.000 A 
ATOM     16  C   UNL     1      -2.385   2.134  -2.899  0.00  0.00    +0.000 A 
ENDBRANCH  10  11
ENDBRANCH   1  10
TORSDOF 2
ENDMDL
MODEL 3
REMARK VINA RESULT:    -5.487      0.499      1.532
REMARK INTER + INTRA:          -6.249
REMARK INTER:                  -6.126
REMARK INTRA:                  -0.124
REMARK UNBOUND:                -0.121
REMARK  Name = 1550473
REMARK  2 active torsions:
REMARK  status: ('A' for Active; 'I' for Inactive)
REMARK    1  A    between atoms: N_1  and  C_4
REMARK    2  A    between atoms: C_4  and  C_5
REMARK                            x       y       z     vdW  Elec       q    Type
REMARK                         _______ _______ _______ _____ _____    ______ ____
ROOT
ATOM      1  N   UNL     1       0.941   3.173 -15.304  0.00  0.00    -0.354 N 
ATOM      2  N   UNL     1       3.173   3.771 -15.144  0.00  0.00    -0.372 N 
ATOM      3  N   UNL     1       2.534   1.677 -14.457  0.00  0.00    -0.372 N 
ATOM      4  C   UNL     1       2.202   2.867 -14.968  0.00  0.00    +0.166 C 
ATOM      5  H   UNL     1       0.750   4.103 -15.658  0.00  0.00    +0.163 HD
ATOM      6  H   UNL     1       4.134   3.567 -14.904  0.00  0.00    +0.159 HD
ATOM      7  H   UNL     1       2.987   4.683 -15.542  0.00  0.00    +0.159 HD
ATOM      8  H   UNL     1       1.847   0.953 -14.294  0.00  0.00    +0.159 HD
ATOM      9  H   UNL     1       3.488   1.458 -14.199  0.00  0.00    +0.159 HD
ENDROOT
BRANCH   1  10
ATOM     10  C   UNL     1      -0.181   2.242 -15.202  0.00  0.00    +0.151 C 
BRANCH  10  11
ATOM     11  C   UNL     1      -1.440   3.018 -14.928  0.00  0.00    -0.028 A 
ATOM     12  C   UNL     1      -2.624   2.719 -15.618  0.00  0.00    +0.005 A 
ATOM     13  C   UNL     1      -1.456   4.049 -13.977  0.00  0.00    +0.005 A 
ATOM     14  C   UNL     1      -3.801   3.420 -15.343  0.00  0.00    +0.000 A 
ATOM     15  C   UNL     1      -2.633   4.746 -13.705  0.00  0.00    +0.000 A 
ATOM     16  C   UNL     1      -3.806   4.430 -14.387  0.00  0.00    +0.000 A 
ENDBRANCH  10  11
ENDBRANCH   1  10
TORSDOF 2
ENDMDL
MODEL 4
REMARK VINA RESULT:    -5.214      2.773      4.170
REMARK INTER + INTRA:          -5.945
REMARK INTER:                  -5.840
REMARK INTRA:                  -0.105
REMARK UNBOUND:                -0.121
REMARK  Name = 1550473
REMARK  2 active torsions:
REMARK  status: ('A' for Active; 'I' for Inactive)
REMARK    1  A    between atoms: N_1  and  C_4
REMARK    2  A    between atoms: C_4  and  C_5
REMARK                            x       y       z     vdW  Elec       q    Type
REMARK                         _______ _______ _______ _____ _____    ______ ____
ROOT
ATOM      1  N   UNL     1      -1.907   3.644 -14.476  0.00  0.00    -0.354 N 
ATOM      2  N   UNL     1      -0.447   4.511 -12.901  0.00  0.00    -0.372 N 
ATOM      3  N   UNL     1      -2.464   5.553 -13.236  0.00  0.00    -0.372 N 
ATOM      4  C   UNL     1      -1.617   4.565 -13.548  0.00  0.00    +0.166 C 
ATOM      5  H   UNL     1      -1.210   2.939 -14.688  0.00  0.00    +0.163 HD
ATOM      6  H   UNL     1      -0.202   5.190 -12.193  0.00  0.00    +0.159 HD
ATOM      7  H   UNL     1       0.228   3.778 -13.082  0.00  0.00    +0.159 HD
ATOM      8  H   UNL     1      -3.360   5.654 -13.692  0.00  0.00    +0.159 HD
ATOM      9  H   UNL     1      -2.232   6.249 -12.539  0.00  0.00    +0.159 HD
ENDROOT
BRANCH   1  10
ATOM     10  C   UNL     1      -3.176   3.583 -15.200  0.00  0.00    +0.151 C 
BRANCH  10  11
ATOM     11  C   UNL     1      -3.585   2.144 -15.353  0.00  0.00    -0.028 A 
ATOM     12  C   UNL     1      -4.650   1.623 -14.604  0.00  0.00    +0.005 A 
ATOM     13  C   UNL     1      -2.915   1.297 -16.250  0.00  0.00    +0.005 A 
ATOM     14  C   UNL     1      -5.050   0.294 -14.768  0.00  0.00    +0.000 A 
ATOM     15  C   UNL     1      -3.316  -0.029 -16.410  0.00  0.00    +0.000 A 
ATOM     16  C   UNL     1      -4.385  -0.529 -15.671  0.00  0.00    +0.000 A 
ENDBRANCH  10  11
ENDBRANCH   1  10
TORSDOF 2
ENDMDL
MODEL 5
REMARK VINA RESULT:    -5.193      2.483      2.868
REMARK INTER + INTRA:          -5.921
REMARK INTER:                  -5.746
REMARK INTRA:                  -0.175
REMARK UNBOUND:                -0.121
REMARK  Name = 1550473
REMARK  2 active torsions:
REMARK  status: ('A' for Active; 'I' for Inactive)
REMARK    1  A    between atoms: N_1  and  C_4
REMARK    2  A    between atoms: C_4  and  C_5
REMARK                            x       y       z     vdW  Elec       q    Type
REMARK                         _______ _______ _______ _____ _____    ______ ____
ROOT
ATOM      1  N   UNL     1      -0.090   3.271 -12.059  0.00  0.00    -0.354 N 
ATOM      2  N   UNL     1      -0.008   1.862 -10.222  0.00  0.00    -0.372 N 
ATOM      3  N   UNL     1       0.641   1.054 -12.269  0.00  0.00    -0.372 N 
ATOM      4  C   UNL     1       0.181   2.070 -11.531  0.00  0.00    +0.166 C 
ATOM      5  H   UNL     1      -0.464   3.991 -11.451  0.00  0.00    +0.163 HD
ATOM      6  H   UNL     1       0.190   0.968  -9.795  0.00  0.00    +0.159 HD
ATOM      7  H   UNL     1      -0.339   2.597  -9.608  0.00  0.00    +0.159 HD
ATOM      8  H   UNL     1       0.799   1.144 -13.264  0.00  0.00    +0.159 HD
ATOM      9  H   UNL     1       0.834   0.148 -11.862  0.00  0.00    +0.159 HD
ENDROOT
BRANCH   1  10
ATOM     10  C   UNL     1       0.133   3.617 -13.461  0.00  0.00    +0.151 C 
BRANCH  10  11
ATOM     11  C   UNL     1      -1.187   3.620 -14.182  0.00  0.00    -0.028 A 
ATOM     12  C   UNL     1      -2.213   4.491 -13.785  0.00  0.00    +0.005 A 
ATOM     13  C   UNL     1      -1.417   2.758 -15.265  0.00  0.00    +0.005 A 
ATOM     14  C   UNL     1      -3.428   4.515 -14.473  0.00  0.00    +0.000 A 
ATOM     15  C   UNL     1      -2.632   2.785 -15.949  0.00  0.00    +0.000 A 
ATOM     16  C   UNL     1      -3.637   3.665 -15.554  0.00  0.00    +0.000 A 
ENDBRANCH  10  11
ENDBRANCH   1  10
TORSDOF 2
ENDMDL
MODEL 6
REMARK VINA RESULT:    -5.162      1.761      2.269
REMARK INTER + INTRA:          -5.886
REMARK INTER:                  -5.750
REMARK INTRA:                  -0.137
REMARK UNBOUND:                -0.121
REMARK  Name = 1550473
REMARK  2 active torsions:
REMARK  status: ('A' for Active; 'I' for Inactive)
REMARK    1  A    between atoms: N_1  and  C_4
REMARK    2  A    between atoms: C_4  and  C_5
REMARK                            x       y       z     vdW  Elec       q    Type
REMARK                         _______ _______ _______ _____ _____    ______ ____
ROOT
ATOM      1  N   UNL     1       0.320   1.541 -15.613  0.00  0.00    -0.354 N 
ATOM      2  N   UNL     1       0.879  -0.687 -15.908  0.00  0.00    -0.372 N 
ATOM      3  N   UNL     1       1.815   0.471 -14.161  0.00  0.00    -0.372 N 
ATOM      4  C   UNL     1       1.003   0.457 -15.223  0.00  0.00    +0.166 C 
ATOM      5  H   UNL     1      -0.256   1.474 -16.445  0.00  0.00    +0.163 HD
ATOM      6  H   UNL     1       1.380  -1.522 -15.635  0.00  0.00    +0.159 HD
ATOM      7  H   UNL     1       0.267  -0.763 -16.711  0.00  0.00    +0.159 HD
ATOM      8  H   UNL     1       1.957   1.304 -13.606  0.00  0.00    +0.159 HD
ATOM      9  H   UNL     1       2.333  -0.352 -13.880  0.00  0.00    +0.159 HD
ENDROOT
BRANCH   1  10
ATOM     10  C   UNL     1       0.342   2.820 -14.906  0.00  0.00    +0.151 C 
BRANCH  10  11
ATOM     11  C   UNL     1      -1.066   3.326 -14.759  0.00  0.00    -0.028 A 
ATOM     12  C   UNL     1      -1.370   4.328 -13.826  0.00  0.00    +0.005 A 
ATOM     13  C   UNL     1      -2.101   2.811 -15.556  0.00  0.00    +0.005 A 
ATOM     14  C   UNL     1      -2.673   4.819 -13.711  0.00  0.00    +0.000 A 
ATOM     15  C   UNL     1      -3.401   3.304 -15.437  0.00  0.00    +0.000 A 
ATOM     16  C   UNL     1      -3.686   4.309 -14.516  0.00  0.00    +0.000 A 
ENDBRANCH  10  11
ENDBRANCH   1  10
TORSDOF 2
ENDMDL
MODEL 7
REMARK VINA RESULT:    -5.052     19.478     20.709
REMARK INTER + INTRA:          -5.764
REMARK INTER:                  -5.637
REMARK INTRA:                  -0.127
REMARK UNBOUND:                -0.121
REMARK  Name = 1550473
REMARK  2 active torsions:
REMARK  status: ('A' for Active; 'I' for Inactive)
REMARK    1  A    between atoms: N_1  and  C_4
REMARK    2  A    between atoms: C_4  and  C_5
REMARK                            x       y       z     vdW  Elec       q    Type
REMARK                         _______ _______ _______ _____ _____    ______ ____
ROOT
ATOM      1  N   UNL     1       0.654  17.191   0.124  0.00  0.00    -0.354 N 
ATOM      2  N   UNL     1       2.365  18.151  -1.106  0.00  0.00    -0.372 N 
ATOM      3  N   UNL     1       1.712  16.008  -1.600  0.00  0.00    -0.372 N 
ATOM      4  C   UNL     1       1.566  17.108  -0.854  0.00  0.00    +0.166 C 
ATOM      5  H   UNL     1       0.614  18.042   0.674  0.00  0.00    +0.163 HD
ATOM      6  H   UNL     1       3.060  18.119  -1.840  0.00  0.00    +0.159 HD
ATOM      7  H   UNL     1       2.292  19.017  -0.585  0.00  0.00    +0.159 HD
ATOM      8  H   UNL     1       1.144  15.184  -1.456  0.00  0.00    +0.159 HD
ATOM      9  H   UNL     1       2.410  15.952  -2.331  0.00  0.00    +0.159 HD
ENDROOT
BRANCH   1  10
ATOM     10  C   UNL     1      -0.301  16.132   0.444  0.00  0.00    +0.151 C 
BRANCH  10  11
ATOM     11  C   UNL     1      -1.447  16.721   1.219  0.00  0.00    -0.028 A 
ATOM     12  C   UNL     1      -1.490  18.096   1.492  0.00  0.00    +0.005 A 
ATOM     13  C   UNL     1      -2.496  15.910   1.679  0.00  0.00    +0.005 A 
ATOM     14  C   UNL     1      -2.569  18.648   2.186  0.00  0.00    +0.000 A 
ATOM     15  C   UNL     1      -3.571  16.465   2.373  0.00  0.00    +0.000 A 
ATOM     16  C   UNL     1      -3.609  17.835   2.623  0.00  0.00    +0.000 A 
ENDBRANCH  10  11
ENDBRANCH   1  10
TORSDOF 2
ENDMDL
MODEL 8
REMARK VINA RESULT:    -4.967      9.086     10.059
REMARK INTER + INTRA:          -5.668
REMARK INTER:                  -5.522
REMARK INTRA:                  -0.147
REMARK UNBOUND:                -0.121
REMARK  Name = 1550473
REMARK  2 active torsions:
REMARK  status: ('A' for Active; 'I' for Inactive)
REMARK    1  A    between atoms: N_1  and  C_4
REMARK    2  A    between atoms: C_4  and  C_5
REMARK                            x       y       z     vdW  Elec       q    Type
REMARK                         _______ _______ _______ _____ _____    ______ ____
ROOT
ATOM      1  N   UNL     1      -0.931  -4.275 -15.504  0.00  0.00    -0.354 N 
ATOM      2  N   UNL     1       0.831  -3.146 -14.511  0.00  0.00    -0.372 N 
ATOM      3  N   UNL     1      -1.214  -3.147 -13.470  0.00  0.00    -0.372 N 
ATOM      4  C   UNL     1      -0.452  -3.529 -14.500  0.00  0.00    +0.166 C 
ATOM      5  H   UNL     1      -0.309  -4.507 -16.271  0.00  0.00    +0.163 HD
ATOM      6  H   UNL     1       1.221  -2.586 -13.765  0.00  0.00    +0.159 HD
ATOM      7  H   UNL     1       1.462  -3.418 -15.255  0.00  0.00    +0.159 HD
ATOM      8  H   UNL     1      -2.192  -3.398 -13.405  0.00  0.00    +0.159 HD
ATOM      9  H   UNL     1      -0.845  -2.576 -12.720  0.00  0.00    +0.159 HD
ENDROOT
BRANCH   1  10
ATOM     10  C   UNL     1      -2.298  -4.790 -15.561  0.00  0.00    +0.151 C 
BRANCH  10  11
ATOM     11  C   UNL     1      -2.256  -6.292 -15.596  0.00  0.00    -0.028 A 
ATOM     12  C   UNL     1      -1.668  -7.013 -14.547  0.00  0.00    +0.005 A 
ATOM     13  C   UNL     1      -2.808  -7.002 -16.674  0.00  0.00    +0.005 A 
ATOM     14  C   UNL     1      -1.656  -8.410 -14.565  0.00  0.00    +0.000 A 
ATOM     15  C   UNL     1      -2.793  -8.396 -16.689  0.00  0.00    +0.000 A 
ATOM     16  C   UNL     1      -2.219  -9.100 -15.633  0.00  0.00    +0.000 A 
ENDBRANCH  10  11
ENDBRANCH   1  10
TORSDOF 2
ENDMDL
MODEL 9
REMARK VINA RESULT:    -4.885     10.080     10.749
REMARK INTER + INTRA:          -5.577
REMARK INTER:                  -5.472
REMARK INTRA:                  -0.106
REMARK UNBOUND:                -0.121
REMARK  Name = 1550473
REMARK  2 active torsions:
REMARK  status: ('A' for Active; 'I' for Inactive)
REMARK    1  A    between atoms: N_1  and  C_4
REMARK    2  A    between atoms: C_4  and  C_5
REMARK                            x       y       z     vdW  Elec       q    Type
REMARK                         _______ _______ _______ _____ _____    ______ ____
ROOT
ATOM      1  N   UNL     1       2.344   3.605  -5.244  0.00  0.00    -0.354 N 
ATOM      2  N   UNL     1       4.051   4.684  -6.379  0.00  0.00    -0.372 N 
ATOM      3  N   UNL     1       1.925   4.762  -7.239  0.00  0.00    -0.372 N 
ATOM      4  C   UNL     1       2.760   4.344  -6.282  0.00  0.00    +0.166 C 
ATOM      5  H   UNL     1       3.032   3.295  -4.568  0.00  0.00    +0.163 HD
ATOM      6  H   UNL     1       4.393   5.244  -7.149  0.00  0.00    +0.159 HD
ATOM      7  H   UNL     1       4.728   4.411  -5.678  0.00  0.00    +0.159 HD
ATOM      8  H   UNL     1       0.939   4.534  -7.227  0.00  0.00    +0.159 HD
ATOM      9  H   UNL     1       2.250   5.313  -8.023  0.00  0.00    +0.159 HD
ENDROOT
BRANCH   1  10
ATOM     10  C   UNL     1       0.951   3.226  -5.016  0.00  0.00    +0.151 C 
BRANCH  10  11
ATOM     11  C   UNL     1       0.910   1.866  -4.377  0.00  0.00    -0.028 A 
ATOM     12  C   UNL     1       0.833   1.737  -2.982  0.00  0.00    +0.005 A 
ATOM     13  C   UNL     1       0.942   0.702  -5.160  0.00  0.00    +0.005 A 
ATOM     14  C   UNL     1       0.765   0.474  -2.389  0.00  0.00    +0.000 A 
ATOM     15  C   UNL     1       0.875  -0.557  -4.564  0.00  0.00    +0.000 A 
ATOM     16  C   UNL     1       0.784  -0.671  -3.179  0.00  0.00    +0.000 A 
ENDBRANCH  10  11
ENDBRANCH   1  10
TORSDOF 2
ENDMDL
