MODEL 1
REMARK VINA RESULT:    -4.983      0.000      0.000
REMARK INTER + INTRA:          -5.659
REMARK INTER:                  -5.566
REMARK INTRA:                  -0.094
REMARK UNBOUND:                -0.094
REMARK  Name = 1550473
REMARK  2 active torsions:
REMARK  status: ('A' for Active; 'I' for Inactive)
REMARK    1  A    between atoms: N_1  and  C_4
REMARK    2  A    between atoms: C_4  and  C_5
REMARK                            x       y       z     vdW  Elec       q    Type
REMARK                         _______ _______ _______ _____ _____    ______ ____
ROOT
ATOM      1  N   UNL     1     -11.041   7.303   6.318  0.00  0.00    -0.354 N 
ATOM      2  N   UNL     1     -12.154   8.189   4.490  0.00  0.00    -0.372 N 
ATOM      3  N   UNL     1     -12.837   6.166   5.330  0.00  0.00    -0.372 N 
ATOM      4  C   UNL     1     -12.005   7.211   5.392  0.00  0.00    +0.166 C 
ATOM      5  H   UNL     1     -10.424   8.106   6.292  0.00  0.00    +0.163 HD
ATOM      6  H   UNL     1     -12.874   8.149   3.781  0.00  0.00    +0.159 HD
ATOM      7  H   UNL     1     -11.564   9.013   4.495  0.00  0.00    +0.159 HD
ATOM      8  H   UNL     1     -12.773   5.392   5.977  0.00  0.00    +0.159 HD
ATOM      9  H   UNL     1     -13.556   6.103   4.621  0.00  0.00    +0.159 HD
ENDROOT
BRANCH   1  10
ATOM     10  C   UNL     1     -10.829   6.318   7.377  0.00  0.00    +0.151 C 
BRANCH  10  11
ATOM     11  C   UNL     1      -9.557   6.648   8.107  0.00  0.00    -0.028 A 
ATOM     12  C   UNL     1      -8.312   6.297   7.563  0.00  0.00    +0.005 A 
ATOM     13  C   UNL     1      -9.588   7.317   9.341  0.00  0.00    +0.005 A 
ATOM     14  C   UNL     1      -7.129   6.630   8.227  0.00  0.00    +0.000 A 
ATOM     15  C   UNL     1      -8.404   7.646  10.000  0.00  0.00    +0.000 A 
ATOM     16  C   UNL     1      -7.175   7.305   9.442  0.00  0.00    +0.000 A 
ENDBRANCH  10  11
ENDBRANCH   1  10
TORSDOF 2
ENDMDL
MODEL 2
REMARK VINA RESULT:    -4.957     30.614     31.641
REMARK INTER + INTRA:          -5.631
REMARK INTER:                  -5.509
REMARK INTRA:                  -0.122
REMARK UNBOUND:                -0.094
REMARK  Name = 1550473
REMARK  2 active torsions:
REMARK  status: ('A' for Active; 'I' for Inactive)
REMARK    1  A    between atoms: N_1  and  C_4
REMARK    2  A    between atoms: C_4  and  C_5
REMARK                            x       y       z     vdW  Elec       q    Type
REMARK                         _______ _______ _______ _____ _____    ______ ____
ROOT
ATOM      1  N   UNL     1       2.215 -17.853  -6.334  0.00  0.00    -0.354 N 
ATOM      2  N   UNL     1       2.515 -16.299  -4.643  0.00  0.00    -0.372 N 
ATOM      3  N   UNL     1       2.908 -15.666  -6.813  0.00  0.00    -0.372 N 
ATOM      4  C   UNL     1       2.545 -16.615  -5.944  0.00  0.00    +0.166 C 
ATOM      5  H   UNL     1       1.978 -18.535  -5.623  0.00  0.00    +0.163 HD
ATOM      6  H   UNL     1       2.756 -15.372  -4.319  0.00  0.00    +0.159 HD
ATOM      7  H   UNL     1       2.234 -16.969  -3.938  0.00  0.00    +0.159 HD
ATOM      8  H   UNL     1       2.957 -15.842  -7.808  0.00  0.00    +0.159 HD
ATOM      9  H   UNL     1       3.164 -14.736  -6.507  0.00  0.00    +0.159 HD
ENDROOT
BRANCH   1  10
ATOM     10  C   UNL     1       2.164 -18.283  -7.730  0.00  0.00    +0.151 C 
BRANCH  10  11
ATOM     11  C   UNL     1       0.833 -18.933  -7.995  0.00  0.00    -0.028 A 
ATOM     12  C   UNL     1       0.506 -20.156  -7.393  0.00  0.00    +0.005 A 
ATOM     13  C   UNL     1      -0.107 -18.327  -8.843  0.00  0.00    +0.005 A 
ATOM     14  C   UNL     1      -0.741 -20.745  -7.615  0.00  0.00    +0.000 A 
ATOM     15  C   UNL     1      -1.350 -18.918  -9.062  0.00  0.00    +0.000 A 
ATOM     16  C   UNL     1      -1.668 -20.126  -8.446  0.00  0.00    +0.000 A 
ENDBRANCH  10  11
ENDBRANCH   1  10
TORSDOF 2
ENDMDL
MODEL 3
REMARK VINA RESULT:    -4.940     12.105     12.651
REMARK INTER + INTRA:          -5.611
REMARK INTER:                  -5.440
REMARK INTRA:                  -0.170
REMARK UNBOUND:                -0.094
REMARK  Name = 1550473
REMARK  2 active torsions:
REMARK  status: ('A' for Active; 'I' for Inactive)
REMARK    1  A    between atoms: N_1  and  C_4
REMARK    2  A    between atoms: C_4  and  C_5
REMARK                            x       y       z     vdW  Elec       q    Type
REMARK                         _______ _______ _______ _____ _____    ______ ____
ROOT
ATOM      1  N   UNL     1      -4.891   7.383  -3.907  0.00  0.00    -0.354 N 
ATOM      2  N   UNL     1      -6.564   5.803  -3.645  0.00  0.00    -0.372 N 
ATOM      3  N   UNL     1      -6.691   7.271  -5.403  0.00  0.00    -0.372 N 
ATOM      4  C   UNL     1      -6.039   6.831  -4.322  0.00  0.00    +0.166 C 
ATOM      5  H   UNL     1      -4.461   7.022  -3.062  0.00  0.00    +0.163 HD
ATOM      6  H   UNL     1      -7.427   5.364  -3.936  0.00  0.00    +0.159 HD
ATOM      7  H   UNL     1      -6.109   5.415  -2.827  0.00  0.00    +0.159 HD
ATOM      8  H   UNL     1      -6.350   8.047  -5.955  0.00  0.00    +0.159 HD
ATOM      9  H   UNL     1      -7.562   6.853  -5.704  0.00  0.00    +0.159 HD
ENDROOT
BRANCH   1  10
ATOM     10  C   UNL     1      -4.207   8.471  -4.604  0.00  0.00    +0.151 C 
BRANCH  10  11
ATOM     11  C   UNL     1      -4.304   9.722  -3.777  0.00  0.00    -0.028 A 
ATOM     12  C   UNL     1      -5.477  10.492  -3.785  0.00  0.00    +0.005 A 
ATOM     13  C   UNL     1      -3.230  10.141  -2.977  0.00  0.00    +0.005 A 
ATOM     14  C   UNL     1      -5.578  11.639  -2.993  0.00  0.00    +0.000 A 
ATOM     15  C   UNL     1      -3.335  11.286  -2.189  0.00  0.00    +0.000 A 
ATOM     16  C   UNL     1      -4.510  12.034  -2.195  0.00  0.00    +0.000 A 
ENDBRANCH  10  11
ENDBRANCH   1  10
TORSDOF 2
ENDMDL
MODEL 4
REMARK VINA RESULT:    -4.853     29.569     30.487
REMARK INTER + INTRA:          -5.515
REMARK INTER:                  -5.343
REMARK INTRA:                  -0.171
REMARK UNBOUND:                -0.094
REMARK  Name = 1550473
REMARK  2 active torsions:
REMARK  status: ('A' for Active; 'I' for Inactive)
REMARK    1  A    between atoms: N_1  and  C_4
REMARK    2  A    between atoms: C_4  and  C_5
REMARK                            x       y       z     vdW  Elec       q    Type
REMARK                         _______ _______ _______ _____ _____    ______ ____
ROOT
ATOM      1  N   UNL     1       9.593  -2.075 -16.491  0.00  0.00    -0.354 N 
ATOM      2  N   UNL     1      10.236  -1.184 -18.530  0.00  0.00    -0.372 N 
ATOM      3  N   UNL     1       8.064  -1.873 -18.255  0.00  0.00    -0.372 N 
ATOM      4  C   UNL     1       9.291  -1.717 -17.746  0.00  0.00    +0.166 C 
ATOM      5  H   UNL     1      10.549  -1.959 -16.174  0.00  0.00    +0.163 HD
ATOM      6  H   UNL     1      10.036  -0.902 -19.480  0.00  0.00    +0.159 HD
ATOM      7  H   UNL     1      11.179  -1.027 -18.196  0.00  0.00    +0.159 HD
ATOM      8  H   UNL     1       7.308  -2.274 -17.717  0.00  0.00    +0.159 HD
ATOM      9  H   UNL     1       7.848  -1.607 -19.208  0.00  0.00    +0.159 HD
ENDROOT
BRANCH   1  10
ATOM     10  C   UNL     1       8.624  -2.614 -15.538  0.00  0.00    +0.151 C 
BRANCH  10  11
ATOM     11  C   UNL     1       8.328  -1.572 -14.495  0.00  0.00    -0.028 A 
ATOM     12  C   UNL     1       7.136  -0.835 -14.544  0.00  0.00    +0.005 A 
ATOM     13  C   UNL     1       9.234  -1.321 -13.453  0.00  0.00    +0.005 A 
ATOM     14  C   UNL     1       6.847   0.112 -13.558  0.00  0.00    +0.000 A 
ATOM     15  C   UNL     1       8.942  -0.374 -12.472  0.00  0.00    +0.000 A 
ATOM     16  C   UNL     1       7.747   0.341 -12.523  0.00  0.00    +0.000 A 
ENDBRANCH  10  11
ENDBRANCH   1  10
TORSDOF 2
ENDMDL
MODEL 5
REMARK VINA RESULT:    -4.814     28.966     30.036
REMARK INTER + INTRA:          -5.471
REMARK INTER:                  -5.351
REMARK INTRA:                  -0.120
REMARK UNBOUND:                -0.094
REMARK  Name = 1550473
REMARK  2 active torsions:
REMARK  status: ('A' for Active; 'I' for Inactive)
REMARK    1  A    between atoms: N_1  and  C_4
REMARK    2  A    between atoms: C_4  and  C_5
REMARK                            x       y       z     vdW  Elec       q    Type
REMARK                         _______ _______ _______ _____ _____    ______ ____
ROOT
ATOM      1  N   UNL     1      11.410  -1.448 -12.210  0.00  0.00    -0.354 N 
ATOM      2  N   UNL     1      12.790  -2.407 -10.617  0.00  0.00    -0.372 N 
ATOM      3  N   UNL     1      13.157  -2.882 -12.831  0.00  0.00    -0.372 N 
ATOM      4  C   UNL     1      12.444  -2.241 -11.899  0.00  0.00    +0.166 C 
ATOM      5  H   UNL     1      10.892  -1.014 -11.455  0.00  0.00    +0.163 HD
ATOM      6  H   UNL     1      13.568  -2.997 -10.351  0.00  0.00    +0.159 HD
ATOM      7  H   UNL     1      12.299  -1.936  -9.867  0.00  0.00    +0.159 HD
ATOM      8  H   UNL     1      12.943  -2.803 -13.817  0.00  0.00    +0.159 HD
ATOM      9  H   UNL     1      13.931  -3.485 -12.585  0.00  0.00    +0.159 HD
ENDROOT
BRANCH   1  10
ATOM     10  C   UNL     1      10.986  -1.157 -13.579  0.00  0.00    +0.151 C 
BRANCH  10  11
ATOM     11  C   UNL     1       9.520  -0.821 -13.578  0.00  0.00    -0.028 A 
ATOM     12  C   UNL     1       8.732  -1.070 -14.711  0.00  0.00    +0.005 A 
ATOM     13  C   UNL     1       8.912  -0.259 -12.444  0.00  0.00    +0.005 A 
ATOM     14  C   UNL     1       7.364  -0.786 -14.700  0.00  0.00    +0.000 A 
ATOM     15  C   UNL     1       7.547   0.024 -12.438  0.00  0.00    +0.000 A 
ATOM     16  C   UNL     1       6.773  -0.242 -13.565  0.00  0.00    +0.000 A 
ENDBRANCH  10  11
ENDBRANCH   1  10
TORSDOF 2
ENDMDL
MODEL 6
REMARK VINA RESULT:    -4.792     30.144     31.094
REMARK INTER + INTRA:          -5.446
REMARK INTER:                  -5.301
REMARK INTRA:                  -0.145
REMARK UNBOUND:                -0.094
REMARK  Name = 1550473
REMARK  2 active torsions:
REMARK  status: ('A' for Active; 'I' for Inactive)
REMARK    1  A    between atoms: N_1  and  C_4
REMARK    2  A    between atoms: C_4  and  C_5
REMARK                            x       y       z     vdW  Elec       q    Type
REMARK                         _______ _______ _______ _____ _____    ______ ____
ROOT
ATOM      1  N   UNL     1       9.803  -3.030 -16.162  0.00  0.00    -0.354 N 
ATOM      2  N   UNL     1      11.503  -4.600 -16.256  0.00  0.00    -0.372 N 
ATOM      3  N   UNL     1      11.864  -2.519 -17.153  0.00  0.00    -0.372 N 
ATOM      4  C   UNL     1      11.047  -3.371 -16.525  0.00  0.00    +0.166 C 
ATOM      5  H   UNL     1       9.223  -3.731 -15.715  0.00  0.00    +0.163 HD
ATOM      6  H   UNL     1      12.439  -4.884 -16.515  0.00  0.00    +0.159 HD
ATOM      7  H   UNL     1      10.937  -5.284 -15.769  0.00  0.00    +0.159 HD
ATOM      8  H   UNL     1      11.578  -1.578 -17.390  0.00  0.00    +0.159 HD
ATOM      9  H   UNL     1      12.799  -2.789 -17.431  0.00  0.00    +0.159 HD
ENDROOT
BRANCH   1  10
ATOM     10  C   UNL     1       9.229  -1.700 -16.359  0.00  0.00    +0.151 C 
BRANCH  10  11
ATOM     11  C   UNL     1       8.714  -1.187 -15.043  0.00  0.00    -0.028 A 
ATOM     12  C   UNL     1       7.373  -0.801 -14.904  0.00  0.00    +0.005 A 
ATOM     13  C   UNL     1       9.562  -1.090 -13.928  0.00  0.00    +0.005 A 
ATOM     14  C   UNL     1       6.887  -0.352 -13.673  0.00  0.00    +0.000 A 
ATOM     15  C   UNL     1       9.073  -0.641 -12.702  0.00  0.00    +0.000 A 
ATOM     16  C   UNL     1       7.736  -0.274 -12.574  0.00  0.00    +0.000 A 
ENDBRANCH  10  11
ENDBRANCH   1  10
TORSDOF 2
ENDMDL
MODEL 7
REMARK VINA RESULT:    -4.674     21.313     22.432
REMARK INTER + INTRA:          -5.314
REMARK INTER:                  -5.206
REMARK INTRA:                  -0.109
REMARK UNBOUND:                -0.094
REMARK  Name = 1550473
REMARK  2 active torsions:
REMARK  status: ('A' for Active; 'I' for Inactive)
REMARK    1  A    between atoms: N_1  and  C_4
REMARK    2  A    between atoms: C_4  and  C_5
REMARK                            x       y       z     vdW  Elec       q    Type
REMARK                         _______ _______ _______ _____ _____    ______ ____
ROOT
ATOM      1  N   UNL     1       3.234   3.394  24.889  0.00  0.00    -0.354 N 
ATOM      2  N   UNL     1       1.784   1.589  24.847  0.00  0.00    -0.372 N 
ATOM      3  N   UNL     1       4.032   1.213  24.574  0.00  0.00    -0.372 N 
ATOM      4  C   UNL     1       3.029   2.076  24.770  0.00  0.00    +0.166 C 
ATOM      5  H   UNL     1       2.429   3.999  25.005  0.00  0.00    +0.163 HD
ATOM      6  H   UNL     1       1.599   0.598  24.764  0.00  0.00    +0.159 HD
ATOM      7  H   UNL     1       0.986   2.190  25.010  0.00  0.00    +0.159 HD
ATOM      8  H   UNL     1       4.993   1.518  24.501  0.00  0.00    +0.159 HD
ATOM      9  H   UNL     1       3.865   0.220  24.477  0.00  0.00    +0.159 HD
ENDROOT
BRANCH   1  10
ATOM     10  C   UNL     1       4.555   4.021  24.873  0.00  0.00    +0.151 C 
BRANCH  10  11
ATOM     11  C   UNL     1       4.391   5.507  24.712  0.00  0.00    -0.028 A 
ATOM     12  C   UNL     1       3.645   6.030  23.645  0.00  0.00    +0.005 A 
ATOM     13  C   UNL     1       4.976   6.398  25.625  0.00  0.00    +0.005 A 
ATOM     14  C   UNL     1       3.468   7.409  23.512  0.00  0.00    +0.000 A 
ATOM     15  C   UNL     1       4.798   7.774  25.488  0.00  0.00    +0.000 A 
ATOM     16  C   UNL     1       4.042   8.279  24.433  0.00  0.00    +0.000 A 
ENDBRANCH  10  11
ENDBRANCH   1  10
TORSDOF 2
ENDMDL
MODEL 8
REMARK VINA RESULT:    -4.600     32.842     33.852
REMARK INTER + INTRA:          -5.232
REMARK INTER:                  -5.125
REMARK INTRA:                  -0.106
REMARK UNBOUND:                -0.094
REMARK  Name = 1550473
REMARK  2 active torsions:
REMARK  status: ('A' for Active; 'I' for Inactive)
REMARK    1  A    between atoms: N_1  and  C_4
REMARK    2  A    between atoms: C_4  and  C_5
REMARK                            x       y       z     vdW  Elec       q    Type
REMARK                         _______ _______ _______ _____ _____    ______ ____
ROOT
ATOM      1  N   UNL     1       3.985 -20.657  -7.233  0.00  0.00    -0.354 N 
ATOM      2  N   UNL     1       5.876 -21.770  -7.974  0.00  0.00    -0.372 N 
ATOM      3  N   UNL     1       4.864 -22.471  -6.037  0.00  0.00    -0.372 N 
ATOM      4  C   UNL     1       4.896 -21.627  -7.074  0.00  0.00    +0.166 C 
ATOM      5  H   UNL     1       4.081 -20.031  -8.024  0.00  0.00    +0.163 HD
ATOM      6  H   UNL     1       6.575 -22.495  -7.882  0.00  0.00    +0.159 HD
ATOM      7  H   UNL     1       5.944 -21.172  -8.788  0.00  0.00    +0.159 HD
ATOM      8  H   UNL     1       4.154 -22.412  -5.320  0.00  0.00    +0.159 HD
ATOM      9  H   UNL     1       5.562 -23.195  -5.922  0.00  0.00    +0.159 HD
ENDROOT
BRANCH   1  10
ATOM     10  C   UNL     1       2.847 -20.450  -6.339  0.00  0.00    +0.151 C 
BRANCH  10  11
ATOM     11  C   UNL     1       1.661 -20.005  -7.150  0.00  0.00    -0.028 A 
ATOM     12  C   UNL     1       0.464 -20.736  -7.123  0.00  0.00    +0.005 A 
ATOM     13  C   UNL     1       1.725 -18.848  -7.942  0.00  0.00    +0.005 A 
ATOM     14  C   UNL     1      -0.647 -20.306  -7.852  0.00  0.00    +0.000 A 
ATOM     15  C   UNL     1       0.613 -18.423  -8.669  0.00  0.00    +0.000 A 
ATOM     16  C   UNL     1      -0.573 -19.151  -8.622  0.00  0.00    +0.000 A 
ENDBRANCH  10  11
ENDBRANCH   1  10
TORSDOF 2
ENDMDL
MODEL 9
REMARK VINA RESULT:    -4.542     29.377     30.297
REMARK INTER + INTRA:          -5.167
REMARK INTER:                  -5.056
REMARK INTRA:                  -0.112
REMARK UNBOUND:                -0.094
REMARK  Name = 1550473
REMARK  2 active torsions:
REMARK  status: ('A' for Active; 'I' for Inactive)
REMARK    1  A    between atoms: N_1  and  C_4
REMARK    2  A    between atoms: C_4  and  C_5
REMARK                            x       y       z     vdW  Elec       q    Type
REMARK                         _______ _______ _______ _____ _____    ______ ____
ROOT
ATOM      1  N   UNL     1      -4.006 -16.439  -8.386  0.00  0.00    -0.354 N 
ATOM      2  N   UNL     1      -4.905 -14.345  -7.971  0.00  0.00    -0.372 N 
ATOM      3  N   UNL     1      -6.100 -15.832  -9.246  0.00  0.00    -0.372 N 
ATOM      4  C   UNL     1      -5.000 -15.553  -8.539  0.00  0.00    +0.166 C 
ATOM      5  H   UNL     1      -3.185 -16.155  -7.863  0.00  0.00    +0.163 HD
ATOM      6  H   UNL     1      -5.640 -13.657  -8.066  0.00  0.00    +0.159 HD
ATOM      7  H   UNL     1      -4.103 -14.081  -7.411  0.00  0.00    +0.159 HD
ATOM      8  H   UNL     1      -6.230 -16.724  -9.704  0.00  0.00    +0.159 HD
ATOM      9  H   UNL     1      -6.842 -15.152  -9.362  0.00  0.00    +0.159 HD
ENDROOT
BRANCH   1  10
ATOM     10  C   UNL     1      -4.035 -17.800  -8.918  0.00  0.00    +0.151 C 
BRANCH  10  11
ATOM     11  C   UNL     1      -2.703 -18.452  -8.671  0.00  0.00    -0.028 A 
ATOM     12  C   UNL     1      -2.630 -19.791  -8.260  0.00  0.00    +0.005 A 
ATOM     13  C   UNL     1      -1.508 -17.738  -8.853  0.00  0.00    +0.005 A 
ATOM     14  C   UNL     1      -1.392 -20.406  -8.060  0.00  0.00    +0.000 A 
ATOM     15  C   UNL     1      -0.274 -18.355  -8.651  0.00  0.00    +0.000 A 
ATOM     16  C   UNL     1      -0.216 -19.690  -8.257  0.00  0.00    +0.000 A 
ENDBRANCH  10  11
ENDBRANCH   1  10
TORSDOF 2
ENDMDL
