MODEL 1
REMARK VINA RESULT:    -5.855      0.000      0.000
REMARK INTER + INTRA:          -6.652
REMARK INTER:                  -6.540
REMARK INTRA:                  -0.112
REMARK UNBOUND:                -0.112
REMARK  Name = 1550473
REMARK  2 active torsions:
REMARK  status: ('A' for Active; 'I' for Inactive)
REMARK    1  A    between atoms: N_1  and  C_4
REMARK    2  A    between atoms: C_4  and  C_5
REMARK                            x       y       z     vdW  Elec       q    Type
REMARK                         _______ _______ _______ _____ _____    ______ ____
ROOT
ATOM      1  N   UNL     1       1.625  -5.307 -10.883  0.00  0.00    -0.354 N 
ATOM      2  N   UNL     1       3.087  -5.437  -9.092  0.00  0.00    -0.372 N 
ATOM      3  N   UNL     1       3.418  -3.811 -10.677  0.00  0.00    -0.372 N 
ATOM      4  C   UNL     1       2.702  -4.849 -10.231  0.00  0.00    +0.166 C 
ATOM      5  H   UNL     1       1.144  -6.116 -10.509  0.00  0.00    +0.163 HD
ATOM      6  H   UNL     1       3.893  -5.111  -8.575  0.00  0.00    +0.159 HD
ATOM      7  H   UNL     1       2.577  -6.216  -8.695  0.00  0.00    +0.159 HD
ATOM      8  H   UNL     1       3.183  -3.327 -11.533  0.00  0.00    +0.159 HD
ATOM      9  H   UNL     1       4.234  -3.478 -10.180  0.00  0.00    +0.159 HD
ENDROOT
BRANCH   1  10
ATOM     10  C   UNL     1       1.091  -4.704 -12.103  0.00  0.00    +0.151 C 
BRANCH  10  11
ATOM     11  C   UNL     1      -0.234  -5.338 -12.425  0.00  0.00    -0.028 A 
ATOM     12  C   UNL     1      -0.539  -5.722 -13.739  0.00  0.00    +0.005 A 
ATOM     13  C   UNL     1      -1.186  -5.564 -11.419  0.00  0.00    +0.005 A 
ATOM     14  C   UNL     1      -1.758  -6.339 -14.033  0.00  0.00    +0.000 A 
ATOM     15  C   UNL     1      -2.402  -6.179 -11.717  0.00  0.00    +0.000 A 
ATOM     16  C   UNL     1      -2.686  -6.569 -13.024  0.00  0.00    +0.000 A 
ENDBRANCH  10  11
ENDBRANCH   1  10
TORSDOF 2
ENDMDL
MODEL 2
REMARK VINA RESULT:    -5.727      1.731      2.271
REMARK INTER + INTRA:          -6.508
REMARK INTER:                  -6.344
REMARK INTRA:                  -0.165
REMARK UNBOUND:                -0.112
REMARK  Name = 1550473
REMARK  2 active torsions:
REMARK  status: ('A' for Active; 'I' for Inactive)
REMARK    1  A    between atoms: N_1  and  C_4
REMARK    2  A    between atoms: C_4  and  C_5
REMARK                            x       y       z     vdW  Elec       q    Type
REMARK                         _______ _______ _______ _____ _____    ______ ____
ROOT
ATOM      1  N   UNL     1       2.802  -5.772  -9.388  0.00  0.00    -0.354 N 
ATOM      2  N   UNL     1       5.078  -5.491  -9.717  0.00  0.00    -0.372 N 
ATOM      3  N   UNL     1       3.633  -3.914 -10.549  0.00  0.00    -0.372 N 
ATOM      4  C   UNL     1       3.822  -5.058  -9.884  0.00  0.00    +0.166 C 
ATOM      5  H   UNL     1       3.010  -6.647  -8.920  0.00  0.00    +0.163 HD
ATOM      6  H   UNL     1       5.867  -4.972 -10.077  0.00  0.00    +0.159 HD
ATOM      7  H   UNL     1       5.285  -6.342  -9.209  0.00  0.00    +0.159 HD
ATOM      8  H   UNL     1       2.710  -3.536 -10.714  0.00  0.00    +0.159 HD
ATOM      9  H   UNL     1       4.410  -3.386 -10.927  0.00  0.00    +0.159 HD
ENDROOT
BRANCH   1  10
ATOM     10  C   UNL     1       1.402  -5.362  -9.469  0.00  0.00    +0.151 C 
BRANCH  10  11
ATOM     11  C   UNL     1       0.763  -6.027 -10.657  0.00  0.00    -0.028 A 
ATOM     12  C   UNL     1       1.000  -7.383 -10.927  0.00  0.00    +0.005 A 
ATOM     13  C   UNL     1      -0.086  -5.308 -11.513  0.00  0.00    +0.005 A 
ATOM     14  C   UNL     1       0.383  -8.008 -12.013  0.00  0.00    +0.000 A 
ATOM     15  C   UNL     1      -0.699  -5.937 -12.596  0.00  0.00    +0.000 A 
ATOM     16  C   UNL     1      -0.467  -7.287 -12.845  0.00  0.00    +0.000 A 
ENDBRANCH  10  11
ENDBRANCH   1  10
TORSDOF 2
ENDMDL
MODEL 3
REMARK VINA RESULT:    -5.592      2.797      3.822
REMARK INTER + INTRA:          -6.358
REMARK INTER:                  -6.209
REMARK INTRA:                  -0.149
REMARK UNBOUND:                -0.112
REMARK  Name = 1550473
REMARK  2 active torsions:
REMARK  status: ('A' for Active; 'I' for Inactive)
REMARK    1  A    between atoms: N_1  and  C_4
REMARK    2  A    between atoms: C_4  and  C_5
REMARK                            x       y       z     vdW  Elec       q    Type
REMARK                         _______ _______ _______ _____ _____    ______ ____
ROOT
ATOM      1  N   UNL     1       4.348  -4.339  -9.286  0.00  0.00    -0.354 N 
ATOM      2  N   UNL     1       5.599  -4.335  -7.337  0.00  0.00    -0.372 N 
ATOM      3  N   UNL     1       6.364  -5.525  -9.144  0.00  0.00    -0.372 N 
ATOM      4  C   UNL     1       5.430  -4.735  -8.603  0.00  0.00    +0.166 C 
ATOM      5  H   UNL     1       3.662  -3.765  -8.810  0.00  0.00    +0.163 HD
ATOM      6  H   UNL     1       6.407  -4.615  -6.798  0.00  0.00    +0.159 HD
ATOM      7  H   UNL     1       4.934  -3.723  -6.878  0.00  0.00    +0.159 HD
ATOM      8  H   UNL     1       6.293  -5.866 -10.093  0.00  0.00    +0.159 HD
ATOM      9  H   UNL     1       7.174  -5.825  -8.616  0.00  0.00    +0.159 HD
ENDROOT
BRANCH   1  10
ATOM     10  C   UNL     1       4.097  -4.674 -10.687  0.00  0.00    +0.151 C 
BRANCH  10  11
ATOM     11  C   UNL     1       2.880  -5.555 -10.771  0.00  0.00    -0.028 A 
ATOM     12  C   UNL     1       1.715  -5.228 -10.062  0.00  0.00    +0.005 A 
ATOM     13  C   UNL     1       2.885  -6.714 -11.561  0.00  0.00    +0.005 A 
ATOM     14  C   UNL     1       0.575  -6.030 -10.163  0.00  0.00    +0.000 A 
ATOM     15  C   UNL     1       1.746  -7.512 -11.659  0.00  0.00    +0.000 A 
ATOM     16  C   UNL     1       0.590  -7.168 -10.962  0.00  0.00    +0.000 A 
ENDBRANCH  10  11
ENDBRANCH   1  10
TORSDOF 2
ENDMDL
MODEL 4
REMARK VINA RESULT:    -5.480      2.390      2.877
REMARK INTER + INTRA:          -6.232
REMARK INTER:                  -6.072
REMARK INTRA:                  -0.160
REMARK UNBOUND:                -0.112
REMARK  Name = 1550473
REMARK  2 active torsions:
REMARK  status: ('A' for Active; 'I' for Inactive)
REMARK    1  A    between atoms: N_1  and  C_4
REMARK    2  A    between atoms: C_4  and  C_5
REMARK                            x       y       z     vdW  Elec       q    Type
REMARK                         _______ _______ _______ _____ _____    ______ ____
ROOT
ATOM      1  N   UNL     1       1.824  -8.105 -11.648  0.00  0.00    -0.354 N 
ATOM      2  N   UNL     1       3.872  -9.000 -12.256  0.00  0.00    -0.372 N 
ATOM      3  N   UNL     1       3.707  -6.736 -11.916  0.00  0.00    -0.372 N 
ATOM      4  C   UNL     1       3.121  -7.938 -11.936  0.00  0.00    +0.166 C 
ATOM      5  H   UNL     1       1.433  -9.038 -11.710  0.00  0.00    +0.163 HD
ATOM      6  H   UNL     1       4.854  -8.905 -12.476  0.00  0.00    +0.159 HD
ATOM      7  H   UNL     1       3.489  -9.937 -12.273  0.00  0.00    +0.159 HD
ATOM      8  H   UNL     1       3.195  -5.895 -11.688  0.00  0.00    +0.159 HD
ATOM      9  H   UNL     1       4.687  -6.620 -12.144  0.00  0.00    +0.159 HD
ENDROOT
BRANCH   1  10
ATOM     10  C   UNL     1       0.933  -7.022 -11.234  0.00  0.00    +0.151 C 
BRANCH  10  11
ATOM     11  C   UNL     1       0.241  -6.466 -12.448  0.00  0.00    -0.028 A 
ATOM     12  C   UNL     1       0.538  -5.174 -12.908  0.00  0.00    +0.005 A 
ATOM     13  C   UNL     1      -0.710  -7.227 -13.146  0.00  0.00    +0.005 A 
ATOM     14  C   UNL     1      -0.082  -4.668 -14.053  0.00  0.00    +0.000 A 
ATOM     15  C   UNL     1      -1.327  -6.717 -14.288  0.00  0.00    +0.000 A 
ATOM     16  C   UNL     1      -1.011  -5.439 -14.742  0.00  0.00    +0.000 A 
ENDBRANCH  10  11
ENDBRANCH   1  10
TORSDOF 2
ENDMDL
MODEL 5
REMARK VINA RESULT:    -5.449     35.090     37.172
REMARK INTER + INTRA:          -6.198
REMARK INTER:                  -6.020
REMARK INTRA:                  -0.178
REMARK UNBOUND:                -0.112
REMARK  Name = 1550473
REMARK  2 active torsions:
REMARK  status: ('A' for Active; 'I' for Inactive)
REMARK    1  A    between atoms: N_1  and  C_4
REMARK    2  A    between atoms: C_4  and  C_5
REMARK                            x       y       z     vdW  Elec       q    Type
REMARK                         _______ _______ _______ _____ _____    ______ ____
ROOT
ATOM      1  N   UNL     1       7.321   0.877  23.353  0.00  0.00    -0.354 N 
ATOM      2  N   UNL     1       8.327   2.082  21.650  0.00  0.00    -0.372 N 
ATOM      3  N   UNL     1       7.643  -0.068  21.233  0.00  0.00    -0.372 N 
ATOM      4  C   UNL     1       7.757   0.953  22.089  0.00  0.00    +0.166 C 
ATOM      5  H   UNL     1       7.464   1.676  23.961  0.00  0.00    +0.163 HD
ATOM      6  H   UNL     1       8.663   2.170  20.700  0.00  0.00    +0.159 HD
ATOM      7  H   UNL     1       8.427   2.895  22.246  0.00  0.00    +0.159 HD
ATOM      8  H   UNL     1       7.227  -0.949  21.504  0.00  0.00    +0.159 HD
ATOM      9  H   UNL     1       7.983  -0.003  20.282  0.00  0.00    +0.159 HD
ENDROOT
BRANCH   1  10
ATOM     10  C   UNL     1       6.637  -0.287  23.914  0.00  0.00    +0.151 C 
BRANCH  10  11
ATOM     11  C   UNL     1       7.633  -1.127  24.664  0.00  0.00    -0.028 A 
ATOM     12  C   UNL     1       8.000  -2.394  24.186  0.00  0.00    +0.005 A 
ATOM     13  C   UNL     1       8.219  -0.660  25.851  0.00  0.00    +0.005 A 
ATOM     14  C   UNL     1       8.947  -3.162  24.866  0.00  0.00    +0.000 A 
ATOM     15  C   UNL     1       9.164  -1.431  26.527  0.00  0.00    +0.000 A 
ATOM     16  C   UNL     1       9.530  -2.681  26.034  0.00  0.00    +0.000 A 
ENDBRANCH  10  11
ENDBRANCH   1  10
TORSDOF 2
ENDMDL
MODEL 6
REMARK VINA RESULT:    -5.067     29.175     30.292
REMARK INTER + INTRA:          -5.771
REMARK INTER:                  -5.659
REMARK INTRA:                  -0.111
REMARK UNBOUND:                -0.112
REMARK  Name = 1550473
REMARK  2 active torsions:
REMARK  status: ('A' for Active; 'I' for Inactive)
REMARK    1  A    between atoms: N_1  and  C_4
REMARK    2  A    between atoms: C_4  and  C_5
REMARK                            x       y       z     vdW  Elec       q    Type
REMARK                         _______ _______ _______ _____ _____    ______ ____
ROOT
ATOM      1  N   UNL     1      -4.518  -7.970  19.064  0.00  0.00    -0.354 N 
ATOM      2  N   UNL     1      -2.688  -7.658  20.448  0.00  0.00    -0.372 N 
ATOM      3  N   UNL     1      -4.782  -7.171  21.251  0.00  0.00    -0.372 N 
ATOM      4  C   UNL     1      -4.010  -7.601  20.247  0.00  0.00    +0.166 C 
ATOM      5  H   UNL     1      -3.877  -8.257  18.333  0.00  0.00    +0.163 HD
ATOM      6  H   UNL     1      -2.276  -7.389  21.332  0.00  0.00    +0.159 HD
ATOM      7  H   UNL     1      -2.054  -7.989  19.731  0.00  0.00    +0.159 HD
ATOM      8  H   UNL     1      -5.786  -7.099  21.162  0.00  0.00    +0.159 HD
ATOM      9  H   UNL     1      -4.387  -6.887  22.139  0.00  0.00    +0.159 HD
ENDROOT
BRANCH   1  10
ATOM     10  C   UNL     1      -5.948  -7.996  18.761  0.00  0.00    +0.151 C 
BRANCH  10  11
ATOM     11  C   UNL     1      -6.138  -8.397  17.324  0.00  0.00    -0.028 A 
ATOM     12  C   UNL     1      -7.122  -7.780  16.537  0.00  0.00    +0.005 A 
ATOM     13  C   UNL     1      -5.334  -9.389  16.742  0.00  0.00    +0.005 A 
ATOM     14  C   UNL     1      -7.279  -8.131  15.194  0.00  0.00    +0.000 A 
ATOM     15  C   UNL     1      -5.494  -9.737  15.401  0.00  0.00    +0.000 A 
ATOM     16  C   UNL     1      -6.465  -9.106  14.626  0.00  0.00    +0.000 A 
ENDBRANCH  10  11
ENDBRANCH   1  10
TORSDOF 2
ENDMDL
MODEL 7
REMARK VINA RESULT:    -5.044      2.749      3.358
REMARK INTER + INTRA:          -5.746
REMARK INTER:                  -5.611
REMARK INTRA:                  -0.135
REMARK UNBOUND:                -0.112
REMARK  Name = 1550473
REMARK  2 active torsions:
REMARK  status: ('A' for Active; 'I' for Inactive)
REMARK    1  A    between atoms: N_1  and  C_4
REMARK    2  A    between atoms: C_4  and  C_5
REMARK                            x       y       z     vdW  Elec       q    Type
REMARK                         _______ _______ _______ _____ _____    ______ ____
ROOT
ATOM      1  N   UNL     1       3.531  -7.933 -10.800  0.00  0.00    -0.354 N 
ATOM      2  N   UNL     1       5.691  -7.769  -9.979  0.00  0.00    -0.372 N 
ATOM      3  N   UNL     1       5.277  -7.140 -12.146  0.00  0.00    -0.372 N 
ATOM      4  C   UNL     1       4.819  -7.614 -10.983  0.00  0.00    +0.166 C 
ATOM      5  H   UNL     1       3.253  -8.316  -9.903  0.00  0.00    +0.163 HD
ATOM      6  H   UNL     1       6.668  -7.534 -10.087  0.00  0.00    +0.159 HD
ATOM      7  H   UNL     1       5.401  -8.109  -9.070  0.00  0.00    +0.159 HD
ATOM      8  H   UNL     1       4.672  -7.005 -12.945  0.00  0.00    +0.159 HD
ATOM      9  H   UNL     1       6.254  -6.910 -12.277  0.00  0.00    +0.159 HD
ENDROOT
BRANCH   1  10
ATOM     10  C   UNL     1       2.492  -7.752 -11.811  0.00  0.00    +0.151 C 
BRANCH  10  11
ATOM     11  C   UNL     1       1.365  -6.949 -11.220  0.00  0.00    -0.028 A 
ATOM     12  C   UNL     1       0.041  -7.177 -11.623  0.00  0.00    +0.005 A 
ATOM     13  C   UNL     1       1.615  -5.964 -10.253  0.00  0.00    +0.005 A 
ATOM     14  C   UNL     1      -1.008  -6.453 -11.052  0.00  0.00    +0.000 A 
ATOM     15  C   UNL     1       0.565  -5.243  -9.686  0.00  0.00    +0.000 A 
ATOM     16  C   UNL     1      -0.747  -5.489 -10.084  0.00  0.00    +0.000 A 
ENDBRANCH  10  11
ENDBRANCH   1  10
TORSDOF 2
ENDMDL
MODEL 8
REMARK VINA RESULT:    -4.951      3.211      4.090
REMARK INTER + INTRA:          -5.642
REMARK INTER:                  -5.504
REMARK INTRA:                  -0.138
REMARK UNBOUND:                -0.112
REMARK  Name = 1550473
REMARK  2 active torsions:
REMARK  status: ('A' for Active; 'I' for Inactive)
REMARK    1  A    between atoms: N_1  and  C_4
REMARK    2  A    between atoms: C_4  and  C_5
REMARK                            x       y       z     vdW  Elec       q    Type
REMARK                         _______ _______ _______ _____ _____    ______ ____
ROOT
ATOM      1  N   UNL     1       4.003  -7.538 -11.714  0.00  0.00    -0.354 N 
ATOM      2  N   UNL     1       6.195  -8.212 -12.037  0.00  0.00    -0.372 N 
ATOM      3  N   UNL     1       4.501  -9.692 -12.490  0.00  0.00    -0.372 N 
ATOM      4  C   UNL     1       4.884  -8.478 -12.079  0.00  0.00    +0.166 C 
ATOM      5  H   UNL     1       4.358  -6.648 -11.383  0.00  0.00    +0.163 HD
ATOM      6  H   UNL     1       6.883  -8.901 -12.309  0.00  0.00    +0.159 HD
ATOM      7  H   UNL     1       6.545  -7.306 -11.749  0.00  0.00    +0.159 HD
ATOM      8  H   UNL     1       3.527  -9.958 -12.539  0.00  0.00    +0.159 HD
ATOM      9  H   UNL     1       5.176 -10.399 -12.755  0.00  0.00    +0.159 HD
ENDROOT
BRANCH   1  10
ATOM     10  C   UNL     1       2.552  -7.708 -11.774  0.00  0.00    +0.151 C 
BRANCH  10  11
ATOM     11  C   UNL     1       1.935  -6.465 -12.352  0.00  0.00    -0.028 A 
ATOM     12  C   UNL     1       0.566  -6.424 -12.654  0.00  0.00    +0.005 A 
ATOM     13  C   UNL     1       2.712  -5.322 -12.594  0.00  0.00    +0.005 A 
ATOM     14  C   UNL     1      -0.014  -5.260 -13.163  0.00  0.00    +0.000 A 
ATOM     15  C   UNL     1       2.129  -4.162 -13.103  0.00  0.00    +0.000 A 
ATOM     16  C   UNL     1       0.766  -4.130 -13.385  0.00  0.00    +0.000 A 
ENDBRANCH  10  11
ENDBRANCH   1  10
TORSDOF 2
ENDMDL
MODEL 9
REMARK VINA RESULT:    -4.882      3.679      4.202
REMARK INTER + INTRA:          -5.564
REMARK INTER:                  -5.471
REMARK INTRA:                  -0.093
REMARK UNBOUND:                -0.112
REMARK  Name = 1550473
REMARK  2 active torsions:
REMARK  status: ('A' for Active; 'I' for Inactive)
REMARK    1  A    between atoms: N_1  and  C_4
REMARK    2  A    between atoms: C_4  and  C_5
REMARK                            x       y       z     vdW  Elec       q    Type
REMARK                         _______ _______ _______ _____ _____    ______ ____
ROOT
ATOM      1  N   UNL     1       4.096  -8.485 -12.221  0.00  0.00    -0.354 N 
ATOM      2  N   UNL     1       5.665 -10.021 -12.957  0.00  0.00    -0.372 N 
ATOM      3  N   UNL     1       5.502  -9.594 -10.709  0.00  0.00    -0.372 N 
ATOM      4  C   UNL     1       5.078  -9.357 -11.955  0.00  0.00    +0.166 C 
ATOM      5  H   UNL     1       3.842  -8.327 -13.189  0.00  0.00    +0.163 HD
ATOM      6  H   UNL     1       6.406 -10.688 -12.787  0.00  0.00    +0.159 HD
ATOM      7  H   UNL     1       5.377  -9.896 -13.920  0.00  0.00    +0.159 HD
ATOM      8  H   UNL     1       5.104  -9.121  -9.909  0.00  0.00    +0.159 HD
ATOM      9  H   UNL     1       6.250 -10.249 -10.519  0.00  0.00    +0.159 HD
ENDROOT
BRANCH   1  10
ATOM     10  C   UNL     1       3.356  -7.750 -11.197  0.00  0.00    +0.151 C 
BRANCH  10  11
ATOM     11  C   UNL     1       2.117  -7.162 -11.814  0.00  0.00    -0.028 A 
ATOM     12  C   UNL     1       2.129  -5.857 -12.329  0.00  0.00    +0.005 A 
ATOM     13  C   UNL     1       0.930  -7.906 -11.891  0.00  0.00    +0.005 A 
ATOM     14  C   UNL     1       0.987  -5.321 -12.929  0.00  0.00    +0.000 A 
ATOM     15  C   UNL     1      -0.209  -7.367 -12.490  0.00  0.00    +0.000 A 
ATOM     16  C   UNL     1      -0.179  -6.076 -13.011  0.00  0.00    +0.000 A 
ENDBRANCH  10  11
ENDBRANCH   1  10
TORSDOF 2
ENDMDL
