MODEL 1
REMARK VINA RESULT:    -4.940      0.000      0.000
REMARK INTER + INTRA:          -5.610
REMARK INTER:                  -5.517
REMARK INTRA:                  -0.093
REMARK UNBOUND:                -0.093
REMARK  Name = 1550473
REMARK  2 active torsions:
REMARK  status: ('A' for Active; 'I' for Inactive)
REMARK    1  A    between atoms: N_1  and  C_4
REMARK    2  A    between atoms: C_4  and  C_5
REMARK                            x       y       z     vdW  Elec       q    Type
REMARK                         _______ _______ _______ _____ _____    ______ ____
ROOT
ATOM      1  N   UNL     1      -7.408  -0.663   8.948  0.00  0.00    -0.354 N 
ATOM      2  N   UNL     1      -7.559  -2.974   8.899  0.00  0.00    -0.372 N 
ATOM      3  N   UNL     1      -8.849  -1.747   7.451  0.00  0.00    -0.372 N 
ATOM      4  C   UNL     1      -7.939  -1.779   8.431  0.00  0.00    +0.166 C 
ATOM      5  H   UNL     1      -6.746  -0.754   9.710  0.00  0.00    +0.163 HD
ATOM      6  H   UNL     1      -7.940  -3.833   8.526  0.00  0.00    +0.159 HD
ATOM      7  H   UNL     1      -6.863  -3.063   9.629  0.00  0.00    +0.159 HD
ATOM      8  H   UNL     1      -9.183  -0.877   7.058  0.00  0.00    +0.159 HD
ATOM      9  H   UNL     1      -9.251  -2.596   7.073  0.00  0.00    +0.159 HD
ENDROOT
BRANCH   1  10
ATOM     10  C   UNL     1      -7.714   0.685   8.473  0.00  0.00    +0.151 C 
BRANCH  10  11
ATOM     11  C   UNL     1      -6.754   1.657   9.100  0.00  0.00    -0.028 A 
ATOM     12  C   UNL     1      -5.729   2.236   8.338  0.00  0.00    +0.005 A 
ATOM     13  C   UNL     1      -6.867   2.007  10.454  0.00  0.00    +0.005 A 
ATOM     14  C   UNL     1      -4.854   3.162   8.912  0.00  0.00    +0.000 A 
ATOM     15  C   UNL     1      -5.991   2.932  11.024  0.00  0.00    +0.000 A 
ATOM     16  C   UNL     1      -4.987   3.511  10.252  0.00  0.00    +0.000 A 
ENDBRANCH  10  11
ENDBRANCH   1  10
TORSDOF 2
ENDMDL
MODEL 2
REMARK VINA RESULT:    -4.764     19.354     20.416
REMARK INTER + INTRA:          -5.414
REMARK INTER:                  -5.296
REMARK INTRA:                  -0.118
REMARK UNBOUND:                -0.093
REMARK  Name = 1550473
REMARK  2 active torsions:
REMARK  status: ('A' for Active; 'I' for Inactive)
REMARK    1  A    between atoms: N_1  and  C_4
REMARK    2  A    between atoms: C_4  and  C_5
REMARK                            x       y       z     vdW  Elec       q    Type
REMARK                         _______ _______ _______ _____ _____    ______ ____
ROOT
ATOM      1  N   UNL     1      -7.125   2.808 -12.748  0.00  0.00    -0.354 N 
ATOM      2  N   UNL     1      -7.446   5.101 -12.790  0.00  0.00    -0.372 N 
ATOM      3  N   UNL     1      -8.975   3.787 -11.694  0.00  0.00    -0.372 N 
ATOM      4  C   UNL     1      -7.849   3.883 -12.409  0.00  0.00    +0.166 C 
ATOM      5  H   UNL     1      -6.297   2.944 -13.317  0.00  0.00    +0.163 HD
ATOM      6  H   UNL     1      -7.970   5.931 -12.546  0.00  0.00    +0.159 HD
ATOM      7  H   UNL     1      -6.594   5.239 -13.319  0.00  0.00    +0.159 HD
ATOM      8  H   UNL     1      -9.336   2.896 -11.381  0.00  0.00    +0.159 HD
ATOM      9  H   UNL     1      -9.519   4.605 -11.450  0.00  0.00    +0.159 HD
ENDROOT
BRANCH   1  10
ATOM     10  C   UNL     1      -7.448   1.442 -12.337  0.00  0.00    +0.151 C 
BRANCH  10  11
ATOM     11  C   UNL     1      -6.904   1.203 -10.956  0.00  0.00    -0.028 A 
ATOM     12  C   UNL     1      -5.564   1.491 -10.658  0.00  0.00    +0.005 A 
ATOM     13  C   UNL     1      -7.726   0.695  -9.938  0.00  0.00    +0.005 A 
ATOM     14  C   UNL     1      -5.067   1.297  -9.367  0.00  0.00    +0.000 A 
ATOM     15  C   UNL     1      -7.226   0.502  -8.650  0.00  0.00    +0.000 A 
ATOM     16  C   UNL     1      -5.897   0.806  -8.365  0.00  0.00    +0.000 A 
ENDBRANCH  10  11
ENDBRANCH   1  10
TORSDOF 2
ENDMDL
MODEL 3
REMARK VINA RESULT:    -4.748      4.604      6.296
REMARK INTER + INTRA:          -5.396
REMARK INTER:                  -5.244
REMARK INTRA:                  -0.151
REMARK UNBOUND:                -0.093
REMARK  Name = 1550473
REMARK  2 active torsions:
REMARK  status: ('A' for Active; 'I' for Inactive)
REMARK    1  A    between atoms: N_1  and  C_4
REMARK    2  A    between atoms: C_4  and  C_5
REMARK                            x       y       z     vdW  Elec       q    Type
REMARK                         _______ _______ _______ _____ _____    ______ ____
ROOT
ATOM      1  N   UNL     1      -6.219   5.418  12.166  0.00  0.00    -0.354 N 
ATOM      2  N   UNL     1      -6.444   7.723  12.122  0.00  0.00    -0.372 N 
ATOM      3  N   UNL     1      -4.339   6.816  12.223  0.00  0.00    -0.372 N 
ATOM      4  C   UNL     1      -5.663   6.637  12.171  0.00  0.00    +0.166 C 
ATOM      5  H   UNL     1      -7.230   5.350  12.156  0.00  0.00    +0.163 HD
ATOM      6  H   UNL     1      -6.053   8.655  12.121  0.00  0.00    +0.159 HD
ATOM      7  H   UNL     1      -7.453   7.651  12.066  0.00  0.00    +0.159 HD
ATOM      8  H   UNL     1      -3.695   6.038  12.267  0.00  0.00    +0.159 HD
ATOM      9  H   UNL     1      -3.929   7.742  12.234  0.00  0.00    +0.159 HD
ENDROOT
BRANCH   1  10
ATOM     10  C   UNL     1      -5.455   4.171  12.162  0.00  0.00    +0.151 C 
BRANCH  10  11
ATOM     11  C   UNL     1      -5.737   3.427  10.886  0.00  0.00    -0.028 A 
ATOM     12  C   UNL     1      -4.839   3.494   9.811  0.00  0.00    +0.005 A 
ATOM     13  C   UNL     1      -6.896   2.649  10.748  0.00  0.00    +0.005 A 
ATOM     14  C   UNL     1      -5.085   2.778   8.636  0.00  0.00    +0.000 A 
ATOM     15  C   UNL     1      -7.139   1.937   9.574  0.00  0.00    +0.000 A 
ATOM     16  C   UNL     1      -6.231   2.000   8.519  0.00  0.00    +0.000 A 
ENDBRANCH  10  11
ENDBRANCH   1  10
TORSDOF 2
ENDMDL
MODEL 4
REMARK VINA RESULT:    -4.486      4.552      6.296
REMARK INTER + INTRA:          -5.104
REMARK INTER:                  -4.974
REMARK INTRA:                  -0.130
REMARK UNBOUND:                -0.093
REMARK  Name = 1550473
REMARK  2 active torsions:
REMARK  status: ('A' for Active; 'I' for Inactive)
REMARK    1  A    between atoms: N_1  and  C_4
REMARK    2  A    between atoms: C_4  and  C_5
REMARK                            x       y       z     vdW  Elec       q    Type
REMARK                         _______ _______ _______ _____ _____    ______ ____
ROOT
ATOM      1  N   UNL     1      -4.933   4.947  12.156  0.00  0.00    -0.354 N 
ATOM      2  N   UNL     1      -3.249   6.234  13.091  0.00  0.00    -0.372 N 
ATOM      3  N   UNL     1      -4.520   4.903  14.463  0.00  0.00    -0.372 N 
ATOM      4  C   UNL     1      -4.246   5.352  13.233  0.00  0.00    +0.166 C 
ATOM      5  H   UNL     1      -4.696   5.347  11.256  0.00  0.00    +0.163 HD
ATOM      6  H   UNL     1      -2.711   6.555  13.884  0.00  0.00    +0.159 HD
ATOM      7  H   UNL     1      -2.985   6.597  12.183  0.00  0.00    +0.159 HD
ATOM      8  H   UNL     1      -5.264   4.241  14.638  0.00  0.00    +0.159 HD
ATOM      9  H   UNL     1      -4.000   5.222  15.271  0.00  0.00    +0.159 HD
ENDROOT
BRANCH   1  10
ATOM     10  C   UNL     1      -6.001   3.950  12.195  0.00  0.00    +0.151 C 
BRANCH  10  11
ATOM     11  C   UNL     1      -6.066   3.248  10.867  0.00  0.00    -0.028 A 
ATOM     12  C   UNL     1      -7.149   2.413  10.555  0.00  0.00    +0.005 A 
ATOM     13  C   UNL     1      -5.051   3.418   9.913  0.00  0.00    +0.005 A 
ATOM     14  C   UNL     1      -7.226   1.784   9.310  0.00  0.00    +0.000 A 
ATOM     15  C   UNL     1      -5.130   2.788   8.671  0.00  0.00    +0.000 A 
ATOM     16  C   UNL     1      -6.219   1.973   8.369  0.00  0.00    +0.000 A 
ENDBRANCH  10  11
ENDBRANCH   1  10
TORSDOF 2
ENDMDL
MODEL 5
REMARK VINA RESULT:    -4.483     28.613     29.562
REMARK INTER + INTRA:          -5.100
REMARK INTER:                  -5.003
REMARK INTRA:                  -0.097
REMARK UNBOUND:                -0.093
REMARK  Name = 1550473
REMARK  2 active torsions:
REMARK  status: ('A' for Active; 'I' for Inactive)
REMARK    1  A    between atoms: N_1  and  C_4
REMARK    2  A    between atoms: C_4  and  C_5
REMARK                            x       y       z     vdW  Elec       q    Type
REMARK                         _______ _______ _______ _____ _____    ______ ____
ROOT
ATOM      1  N   UNL     1     -13.247   1.582 -19.738  0.00  0.00    -0.354 N 
ATOM      2  N   UNL     1     -14.768   3.123 -18.917  0.00  0.00    -0.372 N 
ATOM      3  N   UNL     1     -15.250   2.021 -20.872  0.00  0.00    -0.372 N 
ATOM      4  C   UNL     1     -14.413   2.231 -19.850  0.00  0.00    +0.166 C 
ATOM      5  H   UNL     1     -12.643   1.808 -18.956  0.00  0.00    +0.163 HD
ATOM      6  H   UNL     1     -15.644   3.626 -18.973  0.00  0.00    +0.159 HD
ATOM      7  H   UNL     1     -14.184   3.313 -18.112  0.00  0.00    +0.159 HD
ATOM      8  H   UNL     1     -15.038   1.366 -21.612  0.00  0.00    +0.159 HD
ATOM      9  H   UNL     1     -16.126   2.523 -20.951  0.00  0.00    +0.159 HD
ENDROOT
BRANCH   1  10
ATOM     10  C   UNL     1     -12.791   0.553 -20.671  0.00  0.00    +0.151 C 
BRANCH  10  11
ATOM     11  C   UNL     1     -11.741  -0.288 -20.000  0.00  0.00    -0.028 A 
ATOM     12  C   UNL     1     -10.503   0.267 -19.645  0.00  0.00    +0.005 A 
ATOM     13  C   UNL     1     -11.980  -1.641 -19.710  0.00  0.00    +0.005 A 
ATOM     14  C   UNL     1      -9.538  -0.506 -18.995  0.00  0.00    +0.000 A 
ATOM     15  C   UNL     1     -11.014  -2.409 -19.061  0.00  0.00    +0.000 A 
ATOM     16  C   UNL     1      -9.794  -1.841 -18.701  0.00  0.00    +0.000 A 
ENDBRANCH  10  11
ENDBRANCH   1  10
TORSDOF 2
ENDMDL
MODEL 6
REMARK VINA RESULT:    -4.456     29.410     30.705
REMARK INTER + INTRA:          -5.070
REMARK INTER:                  -4.958
REMARK INTRA:                  -0.112
REMARK UNBOUND:                -0.093
REMARK  Name = 1550473
REMARK  2 active torsions:
REMARK  status: ('A' for Active; 'I' for Inactive)
REMARK    1  A    between atoms: N_1  and  C_4
REMARK    2  A    between atoms: C_4  and  C_5
REMARK                            x       y       z     vdW  Elec       q    Type
REMARK                         _______ _______ _______ _____ _____    ______ ____
ROOT
ATOM      1  N   UNL     1     -13.694   1.277 -20.809  0.00  0.00    -0.354 N 
ATOM      2  N   UNL     1     -15.736   2.351 -21.019  0.00  0.00    -0.372 N 
ATOM      3  N   UNL     1     -14.675   2.372 -18.984  0.00  0.00    -0.372 N 
ATOM      4  C   UNL     1     -14.688   1.994 -20.267  0.00  0.00    +0.166 C 
ATOM      5  H   UNL     1     -13.778   0.996 -21.780  0.00  0.00    +0.163 HD
ATOM      6  H   UNL     1     -16.499   2.895 -20.638  0.00  0.00    +0.159 HD
ATOM      7  H   UNL     1     -15.795   2.108 -22.000  0.00  0.00    +0.159 HD
ATOM      8  H   UNL     1     -13.916   2.130 -18.362  0.00  0.00    +0.159 HD
ATOM      9  H   UNL     1     -15.435   2.907 -18.582  0.00  0.00    +0.159 HD
ENDROOT
BRANCH   1  10
ATOM     10  C   UNL     1     -12.484   0.883 -20.091  0.00  0.00    +0.151 C 
BRANCH  10  11
ATOM     11  C   UNL     1     -12.089  -0.504 -20.518  0.00  0.00    -0.028 A 
ATOM     12  C   UNL     1     -11.861  -1.505 -19.562  0.00  0.00    +0.005 A 
ATOM     13  C   UNL     1     -11.948  -0.825 -21.876  0.00  0.00    +0.005 A 
ATOM     14  C   UNL     1     -11.524  -2.801 -19.959  0.00  0.00    +0.000 A 
ATOM     15  C   UNL     1     -11.610  -2.120 -22.269  0.00  0.00    +0.000 A 
ATOM     16  C   UNL     1     -11.401  -3.108 -21.310  0.00  0.00    +0.000 A 
ENDBRANCH  10  11
ENDBRANCH   1  10
TORSDOF 2
ENDMDL
MODEL 7
REMARK VINA RESULT:    -4.382     22.117     23.653
REMARK INTER + INTRA:          -4.988
REMARK INTER:                  -4.851
REMARK INTRA:                  -0.136
REMARK UNBOUND:                -0.093
REMARK  Name = 1550473
REMARK  2 active torsions:
REMARK  status: ('A' for Active; 'I' for Inactive)
REMARK    1  A    between atoms: N_1  and  C_4
REMARK    2  A    between atoms: C_4  and  C_5
REMARK                            x       y       z     vdW  Elec       q    Type
REMARK                         _______ _______ _______ _____ _____    ______ ____
ROOT
ATOM      1  N   UNL     1       1.158  -6.327 -10.488  0.00  0.00    -0.354 N 
ATOM      2  N   UNL     1       2.327  -4.611 -11.514  0.00  0.00    -0.372 N 
ATOM      3  N   UNL     1       3.144  -5.498  -9.562  0.00  0.00    -0.372 N 
ATOM      4  C   UNL     1       2.203  -5.490 -10.512  0.00  0.00    +0.166 C 
ATOM      5  H   UNL     1       0.463  -6.250 -11.222  0.00  0.00    +0.163 HD
ATOM      6  H   UNL     1       3.107  -3.969 -11.560  0.00  0.00    +0.159 HD
ATOM      7  H   UNL     1       1.656  -4.567 -12.270  0.00  0.00    +0.159 HD
ATOM      8  H   UNL     1       3.106  -6.134  -8.776  0.00  0.00    +0.159 HD
ATOM      9  H   UNL     1       3.926  -4.856  -9.585  0.00  0.00    +0.159 HD
ENDROOT
BRANCH   1  10
ATOM     10  C   UNL     1       0.958  -7.358  -9.471  0.00  0.00    +0.151 C 
BRANCH  10  11
ATOM     11  C   UNL     1       0.912  -8.705 -10.140  0.00  0.00    -0.028 A 
ATOM     12  C   UNL     1      -0.124  -9.606  -9.853  0.00  0.00    +0.005 A 
ATOM     13  C   UNL     1       1.896  -9.082 -11.065  0.00  0.00    +0.005 A 
ATOM     14  C   UNL     1      -0.184 -10.845 -10.496  0.00  0.00    +0.000 A 
ATOM     15  C   UNL     1       1.833 -10.320 -11.704  0.00  0.00    +0.000 A 
ATOM     16  C   UNL     1       0.791 -11.200 -11.421  0.00  0.00    +0.000 A 
ENDBRANCH  10  11
ENDBRANCH   1  10
TORSDOF 2
ENDMDL
MODEL 8
REMARK VINA RESULT:    -4.327      1.501      2.440
REMARK INTER + INTRA:          -4.926
REMARK INTER:                  -4.799
REMARK INTRA:                  -0.126
REMARK UNBOUND:                -0.093
REMARK  Name = 1550473
REMARK  2 active torsions:
REMARK  status: ('A' for Active; 'I' for Inactive)
REMARK    1  A    between atoms: N_1  and  C_4
REMARK    2  A    between atoms: C_4  and  C_5
REMARK                            x       y       z     vdW  Elec       q    Type
REMARK                         _______ _______ _______ _____ _____    ______ ____
ROOT
ATOM      1  N   UNL     1      -8.711  -0.603   7.491  0.00  0.00    -0.354 N 
ATOM      2  N   UNL     1      -9.898  -1.100   5.565  0.00  0.00    -0.372 N 
ATOM      3  N   UNL     1      -9.348  -2.804   7.000  0.00  0.00    -0.372 N 
ATOM      4  C   UNL     1      -9.311  -1.502   6.699  0.00  0.00    +0.166 C 
ATOM      5  H   UNL     1      -8.691   0.365   7.192  0.00  0.00    +0.163 HD
ATOM      6  H   UNL     1     -10.361  -1.755   4.949  0.00  0.00    +0.159 HD
ATOM      7  H   UNL     1      -9.916  -0.125   5.291  0.00  0.00    +0.159 HD
ATOM      8  H   UNL     1      -8.919  -3.172   7.838  0.00  0.00    +0.159 HD
ATOM      9  H   UNL     1      -9.796  -3.477   6.390  0.00  0.00    +0.159 HD
ENDROOT
BRANCH   1  10
ATOM     10  C   UNL     1      -8.090  -0.929   8.773  0.00  0.00    +0.151 C 
BRANCH  10  11
ATOM     11  C   UNL     1      -7.127   0.165   9.145  0.00  0.00    -0.028 A 
ATOM     12  C   UNL     1      -6.363   0.073  10.317  0.00  0.00    +0.005 A 
ATOM     13  C   UNL     1      -6.969   1.293   8.325  0.00  0.00    +0.005 A 
ATOM     14  C   UNL     1      -5.446   1.074  10.647  0.00  0.00    +0.000 A 
ATOM     15  C   UNL     1      -6.054   2.291   8.658  0.00  0.00    +0.000 A 
ATOM     16  C   UNL     1      -5.291   2.180   9.818  0.00  0.00    +0.000 A 
ENDBRANCH  10  11
ENDBRANCH   1  10
TORSDOF 2
ENDMDL
MODEL 9
REMARK VINA RESULT:    -4.136     13.501     14.121
REMARK INTER + INTRA:          -4.712
REMARK INTER:                  -4.575
REMARK INTRA:                  -0.137
REMARK UNBOUND:                -0.093
REMARK  Name = 1550473
REMARK  2 active torsions:
REMARK  status: ('A' for Active; 'I' for Inactive)
REMARK    1  A    between atoms: N_1  and  C_4
REMARK    2  A    between atoms: C_4  and  C_5
REMARK                            x       y       z     vdW  Elec       q    Type
REMARK                         _______ _______ _______ _____ _____    ______ ____
ROOT
ATOM      1  N   UNL     1       6.914  -4.758  10.948  0.00  0.00    -0.354 N 
ATOM      2  N   UNL     1       7.978  -4.108   8.996  0.00  0.00    -0.372 N 
ATOM      3  N   UNL     1       6.554  -5.907   8.938  0.00  0.00    -0.372 N 
ATOM      4  C   UNL     1       7.140  -4.931   9.639  0.00  0.00    +0.166 C 
ATOM      5  H   UNL     1       7.413  -4.018  11.429  0.00  0.00    +0.163 HD
ATOM      6  H   UNL     1       8.165  -4.212   8.008  0.00  0.00    +0.159 HD
ATOM      7  H   UNL     1       8.440  -3.341   9.469  0.00  0.00    +0.159 HD
ATOM      8  H   UNL     1       5.916  -6.565   9.366  0.00  0.00    +0.159 HD
ATOM      9  H   UNL     1       6.738  -6.034   7.951  0.00  0.00    +0.159 HD
ENDROOT
BRANCH   1  10
ATOM     10  C   UNL     1       5.980  -5.565  11.731  0.00  0.00    +0.151 C 
BRANCH  10  11
ATOM     11  C   UNL     1       5.169  -4.659  12.616  0.00  0.00    -0.028 A 
ATOM     12  C   UNL     1       4.030  -5.141  13.276  0.00  0.00    +0.005 A 
ATOM     13  C   UNL     1       5.539  -3.318  12.802  0.00  0.00    +0.005 A 
ATOM     14  C   UNL     1       3.294  -4.308  14.122  0.00  0.00    +0.000 A 
ATOM     15  C   UNL     1       4.801  -2.488  13.647  0.00  0.00    +0.000 A 
ATOM     16  C   UNL     1       3.680  -2.984  14.308  0.00  0.00    +0.000 A 
ENDBRANCH  10  11
ENDBRANCH   1  10
TORSDOF 2
ENDMDL
