MODEL 1
REMARK VINA RESULT:    -5.373      0.000      0.000
REMARK INTER + INTRA:          -6.108
REMARK INTER:                  -6.001
REMARK INTRA:                  -0.108
REMARK UNBOUND:                -0.108
REMARK  Name = 1550473
REMARK  2 active torsions:
REMARK  status: ('A' for Active; 'I' for Inactive)
REMARK    1  A    between atoms: N_1  and  C_4
REMARK    2  A    between atoms: C_4  and  C_5
REMARK                            x       y       z     vdW  Elec       q    Type
REMARK                         _______ _______ _______ _____ _____    ______ ____
ROOT
ATOM      1  N   UNL     1      -9.551   1.912 -14.959  0.00  0.00    -0.354 N 
ATOM      2  N   UNL     1      -8.142   3.298 -13.753  0.00  0.00    -0.372 N 
ATOM      3  N   UNL     1     -10.382   3.789 -13.828  0.00  0.00    -0.372 N 
ATOM      4  C   UNL     1      -9.370   2.992 -14.188  0.00  0.00    +0.166 C 
ATOM      5  H   UNL     1      -8.739   1.366 -15.221  0.00  0.00    +0.163 HD
ATOM      6  H   UNL     1      -7.974   4.105 -13.167  0.00  0.00    +0.159 HD
ATOM      7  H   UNL     1      -7.338   2.724 -13.979  0.00  0.00    +0.159 HD
ATOM      8  H   UNL     1     -11.332   3.616 -14.128  0.00  0.00    +0.159 HD
ATOM      9  H   UNL     1     -10.233   4.608 -13.252  0.00  0.00    +0.159 HD
ENDROOT
BRANCH   1  10
ATOM     10  C   UNL     1     -10.856   1.461 -15.441  0.00  0.00    +0.151 C 
BRANCH  10  11
ATOM     11  C   UNL     1     -10.707   0.932 -16.840  0.00  0.00    -0.028 A 
ATOM     12  C   UNL     1     -10.406  -0.420 -17.063  0.00  0.00    +0.005 A 
ATOM     13  C   UNL     1     -10.871   1.776 -17.949  0.00  0.00    +0.005 A 
ATOM     14  C   UNL     1     -10.297  -0.918 -18.363  0.00  0.00    +0.000 A 
ATOM     15  C   UNL     1     -10.760   1.275 -19.246  0.00  0.00    +0.000 A 
ATOM     16  C   UNL     1     -10.476  -0.072 -19.453  0.00  0.00    +0.000 A 
ENDBRANCH  10  11
ENDBRANCH   1  10
TORSDOF 2
ENDMDL
MODEL 2
REMARK VINA RESULT:    -4.784     23.269     24.314
REMARK INTER + INTRA:          -5.451
REMARK INTER:                  -5.341
REMARK INTRA:                  -0.109
REMARK UNBOUND:                -0.108
REMARK  Name = 1550473
REMARK  2 active torsions:
REMARK  status: ('A' for Active; 'I' for Inactive)
REMARK    1  A    between atoms: N_1  and  C_4
REMARK    2  A    between atoms: C_4  and  C_5
REMARK                            x       y       z     vdW  Elec       q    Type
REMARK                         _______ _______ _______ _____ _____    ______ ____
ROOT
ATOM      1  N   UNL     1       4.726 -12.693  -1.485  0.00  0.00    -0.354 N 
ATOM      2  N   UNL     1       4.799 -13.079   0.797  0.00  0.00    -0.372 N 
ATOM      3  N   UNL     1       6.463 -13.942  -0.527  0.00  0.00    -0.372 N 
ATOM      4  C   UNL     1       5.331 -13.237  -0.421  0.00  0.00    +0.166 C 
ATOM      5  H   UNL     1       3.854 -12.197  -1.342  0.00  0.00    +0.163 HD
ATOM      6  H   UNL     1       5.235 -13.475   1.619  0.00  0.00    +0.159 HD
ATOM      7  H   UNL     1       3.952 -12.543   0.944  0.00  0.00    +0.159 HD
ATOM      8  H   UNL     1       6.912 -14.102  -1.419  0.00  0.00    +0.159 HD
ATOM      9  H   UNL     1       6.908 -14.355   0.283  0.00  0.00    +0.159 HD
ENDROOT
BRANCH   1  10
ATOM     10  C   UNL     1       5.252 -12.761  -2.848  0.00  0.00    +0.151 C 
BRANCH  10  11
ATOM     11  C   UNL     1       4.734 -11.588  -3.633  0.00  0.00    -0.028 A 
ATOM     12  C   UNL     1       3.868 -11.784  -4.719  0.00  0.00    +0.005 A 
ATOM     13  C   UNL     1       5.100 -10.277  -3.292  0.00  0.00    +0.005 A 
ATOM     14  C   UNL     1       3.363 -10.693  -5.430  0.00  0.00    +0.000 A 
ATOM     15  C   UNL     1       4.594  -9.190  -4.005  0.00  0.00    +0.000 A 
ATOM     16  C   UNL     1       3.724  -9.398  -5.072  0.00  0.00    +0.000 A 
ENDBRANCH  10  11
ENDBRANCH   1  10
TORSDOF 2
ENDMDL
MODEL 3
REMARK VINA RESULT:    -4.563     24.070     25.208
REMARK INTER + INTRA:          -5.204
REMARK INTER:                  -5.084
REMARK INTRA:                  -0.121
REMARK UNBOUND:                -0.108
REMARK  Name = 1550473
REMARK  2 active torsions:
REMARK  status: ('A' for Active; 'I' for Inactive)
REMARK    1  A    between atoms: N_1  and  C_4
REMARK    2  A    between atoms: C_4  and  C_5
REMARK                            x       y       z     vdW  Elec       q    Type
REMARK                         _______ _______ _______ _____ _____    ______ ____
ROOT
ATOM      1  N   UNL     1       5.608 -10.769  -3.029  0.00  0.00    -0.354 N 
ATOM      2  N   UNL     1       6.153  -8.522  -3.155  0.00  0.00    -0.372 N 
ATOM      3  N   UNL     1       4.298  -9.278  -4.275  0.00  0.00    -0.372 N 
ATOM      4  C   UNL     1       5.347  -9.538  -3.487  0.00  0.00    +0.166 C 
ATOM      5  H   UNL     1       6.436 -10.906  -2.460  0.00  0.00    +0.163 HD
ATOM      6  H   UNL     1       5.980  -7.581  -3.483  0.00  0.00    +0.159 HD
ATOM      7  H   UNL     1       6.954  -8.653  -2.549  0.00  0.00    +0.159 HD
ATOM      8  H   UNL     1       3.655 -10.001  -4.566  0.00  0.00    +0.159 HD
ATOM      9  H   UNL     1       4.115  -8.345  -4.622  0.00  0.00    +0.159 HD
ENDROOT
BRANCH   1  10
ATOM     10  C   UNL     1       4.763 -11.934  -3.288  0.00  0.00    +0.151 C 
BRANCH  10  11
ATOM     11  C   UNL     1       4.911 -12.910  -2.153  0.00  0.00    -0.028 A 
ATOM     12  C   UNL     1       4.850 -12.470  -0.823  0.00  0.00    +0.005 A 
ATOM     13  C   UNL     1       5.107 -14.277  -2.403  0.00  0.00    +0.005 A 
ATOM     14  C   UNL     1       4.957 -13.381   0.231  0.00  0.00    +0.000 A 
ATOM     15  C   UNL     1       5.215 -15.183  -1.348  0.00  0.00    +0.000 A 
ATOM     16  C   UNL     1       5.138 -14.735  -0.031  0.00  0.00    +0.000 A 
ENDBRANCH  10  11
ENDBRANCH   1  10
TORSDOF 2
ENDMDL
MODEL 4
REMARK VINA RESULT:    -4.468     24.640     25.591
REMARK INTER + INTRA:          -5.098
REMARK INTER:                  -4.972
REMARK INTRA:                  -0.127
REMARK UNBOUND:                -0.108
REMARK  Name = 1550473
REMARK  2 active torsions:
REMARK  status: ('A' for Active; 'I' for Inactive)
REMARK    1  A    between atoms: N_1  and  C_4
REMARK    2  A    between atoms: C_4  and  C_5
REMARK                            x       y       z     vdW  Elec       q    Type
REMARK                         _______ _______ _______ _____ _____    ______ ____
ROOT
ATOM      1  N   UNL     1       5.541 -13.685  -0.681  0.00  0.00    -0.354 N 
ATOM      2  N   UNL     1       6.045 -15.353   0.846  0.00  0.00    -0.372 N 
ATOM      3  N   UNL     1       4.713 -13.607   1.510  0.00  0.00    -0.372 N 
ATOM      4  C   UNL     1       5.428 -14.202   0.550  0.00  0.00    +0.166 C 
ATOM      5  H   UNL     1       6.122 -14.170  -1.355  0.00  0.00    +0.163 HD
ATOM      6  H   UNL     1       5.976 -15.769   1.765  0.00  0.00    +0.159 HD
ATOM      7  H   UNL     1       6.588 -15.858   0.156  0.00  0.00    +0.159 HD
ATOM      8  H   UNL     1       4.228 -12.734   1.353  0.00  0.00    +0.159 HD
ATOM      9  H   UNL     1       4.641 -14.002   2.440  0.00  0.00    +0.159 HD
ENDROOT
BRANCH   1  10
ATOM     10  C   UNL     1       4.865 -12.466  -1.120  0.00  0.00    +0.151 C 
BRANCH  10  11
ATOM     11  C   UNL     1       4.788 -12.461  -2.622  0.00  0.00    -0.028 A 
ATOM     12  C   UNL     1       4.432 -11.294  -3.313  0.00  0.00    +0.005 A 
ATOM     13  C   UNL     1       5.075 -13.620  -3.360  0.00  0.00    +0.005 A 
ATOM     14  C   UNL     1       4.390 -11.281  -4.709  0.00  0.00    +0.000 A 
ATOM     15  C   UNL     1       5.031 -13.603  -4.754  0.00  0.00    +0.000 A 
ATOM     16  C   UNL     1       4.691 -12.432  -5.428  0.00  0.00    +0.000 A 
ENDBRANCH  10  11
ENDBRANCH   1  10
TORSDOF 2
ENDMDL
MODEL 5
REMARK VINA RESULT:    -4.456     28.599     31.029
REMARK INTER + INTRA:          -5.085
REMARK INTER:                  -4.958
REMARK INTRA:                  -0.126
REMARK UNBOUND:                -0.108
REMARK  Name = 1550473
REMARK  2 active torsions:
REMARK  status: ('A' for Active; 'I' for Inactive)
REMARK    1  A    between atoms: N_1  and  C_4
REMARK    2  A    between atoms: C_4  and  C_5
REMARK                            x       y       z     vdW  Elec       q    Type
REMARK                         _______ _______ _______ _____ _____    ______ ____
ROOT
ATOM      1  N   UNL     1      -1.294  -5.314  10.674  0.00  0.00    -0.354 N 
ATOM      2  N   UNL     1      -1.352  -6.531   8.705  0.00  0.00    -0.372 N 
ATOM      3  N   UNL     1      -2.300  -4.442   8.745  0.00  0.00    -0.372 N 
ATOM      4  C   UNL     1      -1.650  -5.419   9.387  0.00  0.00    +0.166 C 
ATOM      5  H   UNL     1      -0.830  -6.102  11.111  0.00  0.00    +0.163 HD
ATOM      6  H   UNL     1      -1.605  -6.638   7.731  0.00  0.00    +0.159 HD
ATOM      7  H   UNL     1      -0.847  -7.299   9.131  0.00  0.00    +0.159 HD
ATOM      8  H   UNL     1      -2.559  -3.579   9.205  0.00  0.00    +0.159 HD
ATOM      9  H   UNL     1      -2.572  -4.535   7.774  0.00  0.00    +0.159 HD
ENDROOT
BRANCH   1  10
ATOM     10  C   UNL     1      -1.523  -4.123  11.491  0.00  0.00    +0.151 C 
BRANCH  10  11
ATOM     11  C   UNL     1      -0.591  -4.151  12.671  0.00  0.00    -0.028 A 
ATOM     12  C   UNL     1      -0.797  -3.291  13.760  0.00  0.00    +0.005 A 
ATOM     13  C   UNL     1       0.496  -5.037  12.708  0.00  0.00    +0.005 A 
ATOM     14  C   UNL     1       0.051  -3.337  14.870  0.00  0.00    +0.000 A 
ATOM     15  C   UNL     1       1.340  -5.080  13.817  0.00  0.00    +0.000 A 
ATOM     16  C   UNL     1       1.116  -4.231  14.899  0.00  0.00    +0.000 A 
ENDBRANCH  10  11
ENDBRANCH   1  10
TORSDOF 2
ENDMDL
MODEL 6
REMARK VINA RESULT:    -4.441     15.972     16.703
REMARK INTER + INTRA:          -5.068
REMARK INTER:                  -4.940
REMARK INTRA:                  -0.128
REMARK UNBOUND:                -0.108
REMARK  Name = 1550473
REMARK  2 active torsions:
REMARK  status: ('A' for Active; 'I' for Inactive)
REMARK    1  A    between atoms: N_1  and  C_4
REMARK    2  A    between atoms: C_4  and  C_5
REMARK                            x       y       z     vdW  Elec       q    Type
REMARK                         _______ _______ _______ _____ _____    ______ ____
ROOT
ATOM      1  N   UNL     1     -11.922  -3.458  -0.483  0.00  0.00    -0.354 N 
ATOM      2  N   UNL     1     -12.529  -5.441  -1.515  0.00  0.00    -0.372 N 
ATOM      3  N   UNL     1     -10.356  -5.167  -0.831  0.00  0.00    -0.372 N 
ATOM      4  C   UNL     1     -11.596  -4.676  -0.936  0.00  0.00    +0.166 C 
ATOM      5  H   UNL     1     -12.872  -3.133  -0.621  0.00  0.00    +0.163 HD
ATOM      6  H   UNL     1     -12.313  -6.365  -1.863  0.00  0.00    +0.159 HD
ATOM      7  H   UNL     1     -13.488  -5.131  -1.610  0.00  0.00    +0.159 HD
ATOM      8  H   UNL     1      -9.605  -4.637  -0.409  0.00  0.00    +0.159 HD
ATOM      9  H   UNL     1     -10.118  -6.085  -1.183  0.00  0.00    +0.159 HD
ENDROOT
BRANCH   1  10
ATOM     10  C   UNL     1     -10.994  -2.568   0.211  0.00  0.00    +0.151 C 
BRANCH  10  11
ATOM     11  C   UNL     1     -11.173  -1.169  -0.309  0.00  0.00    -0.028 A 
ATOM     12  C   UNL     1     -10.087  -0.282  -0.358  0.00  0.00    +0.005 A 
ATOM     13  C   UNL     1     -12.426  -0.724  -0.759  0.00  0.00    +0.005 A 
ATOM     14  C   UNL     1     -10.247   1.008  -0.869  0.00  0.00    +0.000 A 
ATOM     15  C   UNL     1     -12.582   0.565  -1.268  0.00  0.00    +0.000 A 
ATOM     16  C   UNL     1     -11.492   1.430  -1.325  0.00  0.00    +0.000 A 
ENDBRANCH  10  11
ENDBRANCH   1  10
TORSDOF 2
ENDMDL
MODEL 7
REMARK VINA RESULT:    -4.430     19.891     22.192
REMARK INTER + INTRA:          -5.056
REMARK INTER:                  -4.888
REMARK INTRA:                  -0.168
REMARK UNBOUND:                -0.108
REMARK  Name = 1550473
REMARK  2 active torsions:
REMARK  status: ('A' for Active; 'I' for Inactive)
REMARK    1  A    between atoms: N_1  and  C_4
REMARK    2  A    between atoms: C_4  and  C_5
REMARK                            x       y       z     vdW  Elec       q    Type
REMARK                         _______ _______ _______ _____ _____    ______ ____
ROOT
ATOM      1  N   UNL     1       6.920   4.115  -5.667  0.00  0.00    -0.354 N 
ATOM      2  N   UNL     1       7.609   3.696  -7.839  0.00  0.00    -0.372 N 
ATOM      3  N   UNL     1       6.488   2.053  -6.694  0.00  0.00    -0.372 N 
ATOM      4  C   UNL     1       7.000   3.288  -6.718  0.00  0.00    +0.166 C 
ATOM      5  H   UNL     1       7.355   5.028  -5.739  0.00  0.00    +0.163 HD
ATOM      6  H   UNL     1       7.681   3.096  -8.649  0.00  0.00    +0.159 HD
ATOM      7  H   UNL     1       8.002   4.625  -7.923  0.00  0.00    +0.159 HD
ATOM      8  H   UNL     1       6.021   1.683  -5.877  0.00  0.00    +0.159 HD
ATOM      9  H   UNL     1       6.561   1.434  -7.491  0.00  0.00    +0.159 HD
ENDROOT
BRANCH   1  10
ATOM     10  C   UNL     1       6.232   3.788  -4.420  0.00  0.00    +0.151 C 
BRANCH  10  11
ATOM     11  C   UNL     1       7.252   3.428  -3.375  0.00  0.00    -0.028 A 
ATOM     12  C   UNL     1       8.419   4.193  -3.227  0.00  0.00    +0.005 A 
ATOM     13  C   UNL     1       7.056   2.328  -2.527  0.00  0.00    +0.005 A 
ATOM     14  C   UNL     1       9.353   3.877  -2.237  0.00  0.00    +0.000 A 
ATOM     15  C   UNL     1       7.991   2.016  -1.540  0.00  0.00    +0.000 A 
ATOM     16  C   UNL     1       9.138   2.792  -1.394  0.00  0.00    +0.000 A 
ENDBRANCH  10  11
ENDBRANCH   1  10
TORSDOF 2
ENDMDL
MODEL 8
REMARK VINA RESULT:    -4.376     16.154     17.183
REMARK INTER + INTRA:          -4.995
REMARK INTER:                  -4.856
REMARK INTRA:                  -0.139
REMARK UNBOUND:                -0.108
REMARK  Name = 1550473
REMARK  2 active torsions:
REMARK  status: ('A' for Active; 'I' for Inactive)
REMARK    1  A    between atoms: N_1  and  C_4
REMARK    2  A    between atoms: C_4  and  C_5
REMARK                            x       y       z     vdW  Elec       q    Type
REMARK                         _______ _______ _______ _____ _____    ______ ____
ROOT
ATOM      1  N   UNL     1     -10.810 -10.818  -5.489  0.00  0.00    -0.354 N 
ATOM      2  N   UNL     1     -12.158 -12.394  -6.521  0.00  0.00    -0.372 N 
ATOM      3  N   UNL     1     -10.949 -13.010  -4.670  0.00  0.00    -0.372 N 
ATOM      4  C   UNL     1     -11.296 -12.065  -5.551  0.00  0.00    +0.166 C 
ATOM      5  H   UNL     1     -11.088 -10.157  -6.205  0.00  0.00    +0.163 HD
ATOM      6  H   UNL     1     -12.544 -13.326  -6.591  0.00  0.00    +0.159 HD
ATOM      7  H   UNL     1     -12.470 -11.719  -7.208  0.00  0.00    +0.159 HD
ATOM      8  H   UNL     1     -10.298 -12.827  -3.918  0.00  0.00    +0.159 HD
ATOM      9  H   UNL     1     -11.316 -13.951  -4.731  0.00  0.00    +0.159 HD
ENDROOT
BRANCH   1  10
ATOM     10  C   UNL     1      -9.907 -10.344  -4.442  0.00  0.00    +0.151 C 
BRANCH  10  11
ATOM     11  C   UNL     1     -10.428  -9.042  -3.898  0.00  0.00    -0.028 A 
ATOM     12  C   UNL     1      -9.593  -7.917  -3.822  0.00  0.00    +0.005 A 
ATOM     13  C   UNL     1     -11.757  -8.926  -3.461  0.00  0.00    +0.005 A 
ATOM     14  C   UNL     1     -10.085  -6.700  -3.344  0.00  0.00    +0.000 A 
ATOM     15  C   UNL     1     -12.243  -7.709  -2.984  0.00  0.00    +0.000 A 
ATOM     16  C   UNL     1     -11.408  -6.596  -2.928  0.00  0.00    +0.000 A 
ENDBRANCH  10  11
ENDBRANCH   1  10
TORSDOF 2
ENDMDL
MODEL 9
REMARK VINA RESULT:    -4.311      4.169      6.223
REMARK INTER + INTRA:          -4.922
REMARK INTER:                  -4.796
REMARK INTRA:                  -0.126
REMARK UNBOUND:                -0.108
REMARK  Name = 1550473
REMARK  2 active torsions:
REMARK  status: ('A' for Active; 'I' for Inactive)
REMARK    1  A    between atoms: N_1  and  C_4
REMARK    2  A    between atoms: C_4  and  C_5
REMARK                            x       y       z     vdW  Elec       q    Type
REMARK                         _______ _______ _______ _____ _____    ______ ____
ROOT
ATOM      1  N   UNL     1     -11.255   2.326 -13.530  0.00  0.00    -0.354 N 
ATOM      2  N   UNL     1      -9.753   1.791 -15.210  0.00  0.00    -0.372 N 
ATOM      3  N   UNL     1      -9.188   3.418 -13.694  0.00  0.00    -0.372 N 
ATOM      4  C   UNL     1     -10.074   2.517 -14.133  0.00  0.00    +0.166 C 
ATOM      5  H   UNL     1     -11.895   1.649 -13.929  0.00  0.00    +0.163 HD
ATOM      6  H   UNL     1      -8.868   1.910 -15.684  0.00  0.00    +0.159 HD
ATOM      7  H   UNL     1     -10.376   1.083 -15.579  0.00  0.00    +0.159 HD
ATOM      8  H   UNL     1      -9.372   4.003 -12.890  0.00  0.00    +0.159 HD
ATOM      9  H   UNL     1      -8.301   3.561 -14.162  0.00  0.00    +0.159 HD
ENDROOT
BRANCH   1  10
ATOM     10  C   UNL     1     -11.678   3.028 -12.319  0.00  0.00    +0.151 C 
BRANCH  10  11
ATOM     11  C   UNL     1     -12.728   2.210 -11.619  0.00  0.00    -0.028 A 
ATOM     12  C   UNL     1     -13.284   1.082 -12.241  0.00  0.00    +0.005 A 
ATOM     13  C   UNL     1     -13.167   2.553 -10.331  0.00  0.00    +0.005 A 
ATOM     14  C   UNL     1     -14.238   0.305 -11.580  0.00  0.00    +0.000 A 
ATOM     15  C   UNL     1     -14.120   1.775  -9.675  0.00  0.00    +0.000 A 
ATOM     16  C   UNL     1     -14.653   0.649 -10.298  0.00  0.00    +0.000 A 
ENDBRANCH  10  11
ENDBRANCH   1  10
TORSDOF 2
ENDMDL
