MODEL 1
REMARK VINA RESULT:    -5.088      0.000      0.000
REMARK INTER + INTRA:          -5.849
REMARK INTER:                  -5.683
REMARK INTRA:                  -0.166
REMARK UNBOUND:                -0.166
REMARK  Name = 1550473
REMARK  2 active torsions:
REMARK  status: ('A' for Active; 'I' for Inactive)
REMARK    1  A    between atoms: N_1  and  C_4
REMARK    2  A    between atoms: C_4  and  C_5
REMARK                            x       y       z     vdW  Elec       q    Type
REMARK                         _______ _______ _______ _____ _____    ______ ____
ROOT
ATOM      1  N   UNL     1     -15.027   7.840  13.624  0.00  0.00    -0.354 N 
ATOM      2  N   UNL     1     -16.550   9.454  14.288  0.00  0.00    -0.372 N 
ATOM      3  N   UNL     1     -14.351  10.050  14.014  0.00  0.00    -0.372 N 
ATOM      4  C   UNL     1     -15.297   9.106  13.971  0.00  0.00    +0.166 C 
ATOM      5  H   UNL     1     -15.782   7.165  13.641  0.00  0.00    +0.163 HD
ATOM      6  H   UNL     1     -16.785  10.401  14.551  0.00  0.00    +0.159 HD
ATOM      7  H   UNL     1     -17.311   8.787  14.260  0.00  0.00    +0.159 HD
ATOM      8  H   UNL     1     -13.385   9.851  13.792  0.00  0.00    +0.159 HD
ATOM      9  H   UNL     1     -14.564  11.002  14.285  0.00  0.00    +0.159 HD
ENDROOT
BRANCH   1  10
ATOM     10  C   UNL     1     -13.706   7.370  13.209  0.00  0.00    +0.151 C 
BRANCH  10  11
ATOM     11  C   UNL     1     -13.758   6.976  11.759  0.00  0.00    -0.028 A 
ATOM     12  C   UNL     1     -13.848   5.625  11.392  0.00  0.00    +0.005 A 
ATOM     13  C   UNL     1     -13.724   7.948  10.748  0.00  0.00    +0.005 A 
ATOM     14  C   UNL     1     -13.927   5.259  10.046  0.00  0.00    +0.000 A 
ATOM     15  C   UNL     1     -13.802   7.579   9.405  0.00  0.00    +0.000 A 
ATOM     16  C   UNL     1     -13.906   6.235   9.054  0.00  0.00    +0.000 A 
ENDBRANCH  10  11
ENDBRANCH   1  10
TORSDOF 2
ENDMDL
MODEL 2
REMARK VINA RESULT:    -5.045     10.895     12.560
REMARK INTER + INTRA:          -5.800
REMARK INTER:                  -5.669
REMARK INTRA:                  -0.131
REMARK UNBOUND:                -0.166
REMARK  Name = 1550473
REMARK  2 active torsions:
REMARK  status: ('A' for Active; 'I' for Inactive)
REMARK    1  A    between atoms: N_1  and  C_4
REMARK    2  A    between atoms: C_4  and  C_5
REMARK                            x       y       z     vdW  Elec       q    Type
REMARK                         _______ _______ _______ _____ _____    ______ ____
ROOT
ATOM      1  N   UNL     1     -20.044  -3.782   8.800  0.00  0.00    -0.354 N 
ATOM      2  N   UNL     1     -21.557  -5.291   9.694  0.00  0.00    -0.372 N 
ATOM      3  N   UNL     1     -20.804  -5.613   7.551  0.00  0.00    -0.372 N 
ATOM      4  C   UNL     1     -20.792  -4.887   8.673  0.00  0.00    +0.166 C 
ATOM      5  H   UNL     1     -20.102  -3.259   9.666  0.00  0.00    +0.163 HD
ATOM      6  H   UNL     1     -22.129  -6.122   9.628  0.00  0.00    +0.159 HD
ATOM      7  H   UNL     1     -21.579  -4.791  10.574  0.00  0.00    +0.159 HD
ATOM      8  H   UNL     1     -20.253  -5.359   6.742  0.00  0.00    +0.159 HD
ATOM      9  H   UNL     1     -21.378  -6.442   7.462  0.00  0.00    +0.159 HD
ENDROOT
BRANCH   1  10
ATOM     10  C   UNL     1     -19.135  -3.287   7.768  0.00  0.00    +0.151 C 
BRANCH  10  11
ATOM     11  C   UNL     1     -17.974  -2.595   8.428  0.00  0.00    -0.028 A 
ATOM     12  C   UNL     1     -17.930  -2.450   9.822  0.00  0.00    +0.005 A 
ATOM     13  C   UNL     1     -16.911  -2.089   7.664  0.00  0.00    +0.005 A 
ATOM     14  C   UNL     1     -16.837  -1.835  10.437  0.00  0.00    +0.000 A 
ATOM     15  C   UNL     1     -15.822  -1.474   8.282  0.00  0.00    +0.000 A 
ATOM     16  C   UNL     1     -15.784  -1.349   9.668  0.00  0.00    +0.000 A 
ENDBRANCH  10  11
ENDBRANCH   1  10
TORSDOF 2
ENDMDL
MODEL 3
REMARK VINA RESULT:    -5.030      2.492      3.457
REMARK INTER + INTRA:          -5.783
REMARK INTER:                  -5.608
REMARK INTRA:                  -0.175
REMARK UNBOUND:                -0.166
REMARK  Name = 1550473
REMARK  2 active torsions:
REMARK  status: ('A' for Active; 'I' for Inactive)
REMARK    1  A    between atoms: N_1  and  C_4
REMARK    2  A    between atoms: C_4  and  C_5
REMARK                            x       y       z     vdW  Elec       q    Type
REMARK                         _______ _______ _______ _____ _____    ______ ____
ROOT
ATOM      1  N   UNL     1     -12.868   6.682  12.945  0.00  0.00    -0.354 N 
ATOM      2  N   UNL     1     -14.246   4.914  13.530  0.00  0.00    -0.372 N 
ATOM      3  N   UNL     1     -14.501   6.923  14.608  0.00  0.00    -0.372 N 
ATOM      4  C   UNL     1     -13.864   6.187  13.692  0.00  0.00    +0.166 C 
ATOM      5  H   UNL     1     -12.405   6.063  12.289  0.00  0.00    +0.163 HD
ATOM      6  H   UNL     1     -14.996   4.514  14.077  0.00  0.00    +0.159 HD
ATOM      7  H   UNL     1     -13.812   4.311  12.841  0.00  0.00    +0.159 HD
ATOM      8  H   UNL     1     -14.257   7.889  14.783  0.00  0.00    +0.159 HD
ATOM      9  H   UNL     1     -15.247   6.537  15.173  0.00  0.00    +0.159 HD
ENDROOT
BRANCH   1  10
ATOM     10  C   UNL     1     -12.412   8.069  13.006  0.00  0.00    +0.151 C 
BRANCH  10  11
ATOM     11  C   UNL     1     -13.113   8.864  11.939  0.00  0.00    -0.028 A 
ATOM     12  C   UNL     1     -14.154   9.742  12.275  0.00  0.00    +0.005 A 
ATOM     13  C   UNL     1     -12.737   8.749  10.592  0.00  0.00    +0.005 A 
ATOM     14  C   UNL     1     -14.786  10.503  11.288  0.00  0.00    +0.000 A 
ATOM     15  C   UNL     1     -13.371   9.510   9.610  0.00  0.00    +0.000 A 
ATOM     16  C   UNL     1     -14.393  10.389   9.959  0.00  0.00    +0.000 A 
ENDBRANCH  10  11
ENDBRANCH   1  10
TORSDOF 2
ENDMDL
MODEL 4
REMARK VINA RESULT:    -5.013     12.920     14.324
REMARK INTER + INTRA:          -5.765
REMARK INTER:                  -5.636
REMARK INTRA:                  -0.129
REMARK UNBOUND:                -0.166
REMARK  Name = 1550473
REMARK  2 active torsions:
REMARK  status: ('A' for Active; 'I' for Inactive)
REMARK    1  A    between atoms: N_1  and  C_4
REMARK    2  A    between atoms: C_4  and  C_5
REMARK                            x       y       z     vdW  Elec       q    Type
REMARK                         _______ _______ _______ _____ _____    ______ ____
ROOT
ATOM      1  N   UNL     1     -12.696   9.764  -1.897  0.00  0.00    -0.354 N 
ATOM      2  N   UNL     1     -11.295  11.420  -1.084  0.00  0.00    -0.372 N 
ATOM      3  N   UNL     1     -10.918  10.580  -3.186  0.00  0.00    -0.372 N 
ATOM      4  C   UNL     1     -11.644  10.577  -2.064  0.00  0.00    +0.166 C 
ATOM      5  H   UNL     1     -13.187   9.788  -1.011  0.00  0.00    +0.163 HD
ATOM      6  H   UNL     1     -10.509  12.047  -1.183  0.00  0.00    +0.159 HD
ATOM      7  H   UNL     1     -11.816  11.474  -0.218  0.00  0.00    +0.159 HD
ATOM      8  H   UNL     1     -11.125   9.964  -3.961  0.00  0.00    +0.159 HD
ATOM      9  H   UNL     1     -10.119  11.193  -3.299  0.00  0.00    +0.159 HD
ENDROOT
BRANCH   1  10
ATOM     10  C   UNL     1     -13.191   8.847  -2.922  0.00  0.00    +0.151 C 
BRANCH  10  11
ATOM     11  C   UNL     1     -13.899   7.700  -2.255  0.00  0.00    -0.028 A 
ATOM     12  C   UNL     1     -14.522   6.704  -3.021  0.00  0.00    +0.005 A 
ATOM     13  C   UNL     1     -13.945   7.600  -0.856  0.00  0.00    +0.005 A 
ATOM     14  C   UNL     1     -15.154   5.623  -2.402  0.00  0.00    +0.000 A 
ATOM     15  C   UNL     1     -14.578   6.519  -0.241  0.00  0.00    +0.000 A 
ATOM     16  C   UNL     1     -15.179   5.530  -1.015  0.00  0.00    +0.000 A 
ENDBRANCH  10  11
ENDBRANCH   1  10
TORSDOF 2
ENDMDL
MODEL 5
REMARK VINA RESULT:    -4.987      8.763     10.314
REMARK INTER + INTRA:          -5.736
REMARK INTER:                  -5.562
REMARK INTRA:                  -0.174
REMARK UNBOUND:                -0.166
REMARK  Name = 1550473
REMARK  2 active torsions:
REMARK  status: ('A' for Active; 'I' for Inactive)
REMARK    1  A    between atoms: N_1  and  C_4
REMARK    2  A    between atoms: C_4  and  C_5
REMARK                            x       y       z     vdW  Elec       q    Type
REMARK                         _______ _______ _______ _____ _____    ______ ____
ROOT
ATOM      1  N   UNL     1     -18.446  -2.952   9.659  0.00  0.00    -0.354 N 
ATOM      2  N   UNL     1     -20.464  -3.158   8.541  0.00  0.00    -0.372 N 
ATOM      3  N   UNL     1     -20.291  -1.631  10.245  0.00  0.00    -0.372 N 
ATOM      4  C   UNL     1     -19.721  -2.577   9.491  0.00  0.00    +0.166 C 
ATOM      5  H   UNL     1     -18.082  -3.696   9.075  0.00  0.00    +0.163 HD
ATOM      6  H   UNL     1     -21.428  -2.894   8.388  0.00  0.00    +0.159 HD
ATOM      7  H   UNL     1     -20.084  -3.870   7.928  0.00  0.00    +0.159 HD
ATOM      8  H   UNL     1     -19.786  -1.158  10.982  0.00  0.00    +0.159 HD
ATOM      9  H   UNL     1     -21.258  -1.361  10.115  0.00  0.00    +0.159 HD
ENDROOT
BRANCH   1  10
ATOM     10  C   UNL     1     -17.536  -2.345  10.629  0.00  0.00    +0.151 C 
BRANCH  10  11
ATOM     11  C   UNL     1     -16.673  -1.333   9.926  0.00  0.00    -0.028 A 
ATOM     12  C   UNL     1     -16.035  -1.657   8.720  0.00  0.00    +0.005 A 
ATOM     13  C   UNL     1     -16.494  -0.047  10.458  0.00  0.00    +0.005 A 
ATOM     14  C   UNL     1     -15.258  -0.708   8.051  0.00  0.00    +0.000 A 
ATOM     15  C   UNL     1     -15.716   0.897   9.788  0.00  0.00    +0.000 A 
ATOM     16  C   UNL     1     -15.100   0.567   8.584  0.00  0.00    +0.000 A 
ENDBRANCH  10  11
ENDBRANCH   1  10
TORSDOF 2
ENDMDL
MODEL 6
REMARK VINA RESULT:    -4.985     33.380     34.129
REMARK INTER + INTRA:          -5.733
REMARK INTER:                  -5.582
REMARK INTRA:                  -0.152
REMARK UNBOUND:                -0.166
REMARK  Name = 1550473
REMARK  2 active torsions:
REMARK  status: ('A' for Active; 'I' for Inactive)
REMARK    1  A    between atoms: N_1  and  C_4
REMARK    2  A    between atoms: C_4  and  C_5
REMARK                            x       y       z     vdW  Elec       q    Type
REMARK                         _______ _______ _______ _____ _____    ______ ____
ROOT
ATOM      1  N   UNL     1       4.624   6.300 -15.951  0.00  0.00    -0.354 N 
ATOM      2  N   UNL     1       5.262   4.948 -14.181  0.00  0.00    -0.372 N 
ATOM      3  N   UNL     1       5.657   4.230 -16.324  0.00  0.00    -0.372 N 
ATOM      4  C   UNL     1       5.178   5.166 -15.499  0.00  0.00    +0.166 C 
ATOM      5  H   UNL     1       4.252   6.956 -15.274  0.00  0.00    +0.163 HD
ATOM      6  H   UNL     1       5.678   4.104 -13.811  0.00  0.00    +0.159 HD
ATOM      7  H   UNL     1       4.931   5.627 -13.507  0.00  0.00    +0.159 HD
ATOM      8  H   UNL     1       5.619   4.331 -17.330  0.00  0.00    +0.159 HD
ATOM      9  H   UNL     1       6.066   3.373 -15.973  0.00  0.00    +0.159 HD
ENDROOT
BRANCH   1  10
ATOM     10  C   UNL     1       4.532   6.658 -17.365  0.00  0.00    +0.151 C 
BRANCH  10  11
ATOM     11  C   UNL     1       3.087   6.867 -17.726  0.00  0.00    -0.028 A 
ATOM     12  C   UNL     1       2.154   5.834 -17.554  0.00  0.00    +0.005 A 
ATOM     13  C   UNL     1       2.644   8.097 -18.235  0.00  0.00    +0.005 A 
ATOM     14  C   UNL     1       0.807   6.037 -17.861  0.00  0.00    +0.000 A 
ATOM     15  C   UNL     1       1.298   8.295 -18.541  0.00  0.00    +0.000 A 
ATOM     16  C   UNL     1       0.379   7.266 -18.352  0.00  0.00    +0.000 A 
ENDBRANCH  10  11
ENDBRANCH   1  10
TORSDOF 2
ENDMDL
MODEL 7
REMARK VINA RESULT:    -4.970      1.608      2.365
REMARK INTER + INTRA:          -5.716
REMARK INTER:                  -5.591
REMARK INTRA:                  -0.125
REMARK UNBOUND:                -0.166
REMARK  Name = 1550473
REMARK  2 active torsions:
REMARK  status: ('A' for Active; 'I' for Inactive)
REMARK    1  A    between atoms: N_1  and  C_4
REMARK    2  A    between atoms: C_4  and  C_5
REMARK                            x       y       z     vdW  Elec       q    Type
REMARK                         _______ _______ _______ _____ _____    ______ ____
ROOT
ATOM      1  N   UNL     1     -15.338   8.894  15.043  0.00  0.00    -0.354 N 
ATOM      2  N   UNL     1     -15.710   9.107  17.319  0.00  0.00    -0.372 N 
ATOM      3  N   UNL     1     -16.979  10.350  15.866  0.00  0.00    -0.372 N 
ATOM      4  C   UNL     1     -16.008   9.451  16.060  0.00  0.00    +0.166 C 
ATOM      5  H   UNL     1     -14.592   8.241  15.258  0.00  0.00    +0.163 HD
ATOM      6  H   UNL     1     -16.201   9.508  18.107  0.00  0.00    +0.159 HD
ATOM      7  H   UNL     1     -14.996   8.420  17.529  0.00  0.00    +0.159 HD
ATOM      8  H   UNL     1     -17.248  10.656  14.941  0.00  0.00    +0.159 HD
ATOM      9  H   UNL     1     -17.474  10.771  16.642  0.00  0.00    +0.159 HD
ENDROOT
BRANCH   1  10
ATOM     10  C   UNL     1     -15.622   9.159  13.634  0.00  0.00    +0.151 C 
BRANCH  10  11
ATOM     11  C   UNL     1     -14.924   8.128  12.790  0.00  0.00    -0.028 A 
ATOM     12  C   UNL     1     -14.245   7.058  13.390  0.00  0.00    +0.005 A 
ATOM     13  C   UNL     1     -14.944   8.213  11.389  0.00  0.00    +0.005 A 
ATOM     14  C   UNL     1     -13.623   6.083  12.605  0.00  0.00    +0.000 A 
ATOM     15  C   UNL     1     -14.320   7.239  10.609  0.00  0.00    +0.000 A 
ATOM     16  C   UNL     1     -13.662   6.173  11.218  0.00  0.00    +0.000 A 
ENDBRANCH  10  11
ENDBRANCH   1  10
TORSDOF 2
ENDMDL
MODEL 8
REMARK VINA RESULT:    -4.960     12.927     14.362
REMARK INTER + INTRA:          -5.705
REMARK INTER:                  -5.600
REMARK INTRA:                  -0.105
REMARK UNBOUND:                -0.166
REMARK  Name = 1550473
REMARK  2 active torsions:
REMARK  status: ('A' for Active; 'I' for Inactive)
REMARK    1  A    between atoms: N_1  and  C_4
REMARK    2  A    between atoms: C_4  and  C_5
REMARK                            x       y       z     vdW  Elec       q    Type
REMARK                         _______ _______ _______ _____ _____    ______ ____
ROOT
ATOM      1  N   UNL     1      -6.840  -4.741  15.666  0.00  0.00    -0.354 N 
ATOM      2  N   UNL     1      -4.707  -5.074  16.507  0.00  0.00    -0.372 N 
ATOM      3  N   UNL     1      -5.605  -6.653  15.105  0.00  0.00    -0.372 N 
ATOM      4  C   UNL     1      -5.732  -5.490  15.753  0.00  0.00    +0.166 C 
ATOM      5  H   UNL     1      -6.885  -3.885  16.206  0.00  0.00    +0.163 HD
ATOM      6  H   UNL     1      -3.857  -5.616  16.588  0.00  0.00    +0.159 HD
ATOM      7  H   UNL     1      -4.737  -4.195  17.008  0.00  0.00    +0.159 HD
ATOM      8  H   UNL     1      -6.345  -7.025  14.524  0.00  0.00    +0.159 HD
ATOM      9  H   UNL     1      -4.767  -7.215  15.183  0.00  0.00    +0.159 HD
ENDROOT
BRANCH   1  10
ATOM     10  C   UNL     1      -7.990  -5.078  14.830  0.00  0.00    +0.151 C 
BRANCH  10  11
ATOM     11  C   UNL     1      -9.106  -4.112  15.119  0.00  0.00    -0.028 A 
ATOM     12  C   UNL     1      -9.577  -3.939  16.429  0.00  0.00    +0.005 A 
ATOM     13  C   UNL     1      -9.694  -3.363  14.088  0.00  0.00    +0.005 A 
ATOM     14  C   UNL     1     -10.593  -3.020  16.702  0.00  0.00    +0.000 A 
ATOM     15  C   UNL     1     -10.709  -2.447  14.365  0.00  0.00    +0.000 A 
ATOM     16  C   UNL     1     -11.156  -2.274  15.672  0.00  0.00    +0.000 A 
ENDBRANCH  10  11
ENDBRANCH   1  10
TORSDOF 2
ENDMDL
MODEL 9
REMARK VINA RESULT:    -4.848     14.683     15.999
REMARK INTER + INTRA:          -5.581
REMARK INTER:                  -5.452
REMARK INTRA:                  -0.129
REMARK UNBOUND:                -0.166
REMARK  Name = 1550473
REMARK  2 active torsions:
REMARK  status: ('A' for Active; 'I' for Inactive)
REMARK    1  A    between atoms: N_1  and  C_4
REMARK    2  A    between atoms: C_4  and  C_5
REMARK                            x       y       z     vdW  Elec       q    Type
REMARK                         _______ _______ _______ _____ _____    ______ ____
ROOT
ATOM      1  N   UNL     1      -8.197  -5.238  13.940  0.00  0.00    -0.354 N 
ATOM      2  N   UNL     1      -9.216  -3.158  13.964  0.00  0.00    -0.372 N 
ATOM      3  N   UNL     1      -7.812  -3.726  15.688  0.00  0.00    -0.372 N 
ATOM      4  C   UNL     1      -8.400  -4.054  14.533  0.00  0.00    +0.166 C 
ATOM      5  H   UNL     1      -8.696  -5.438  13.081  0.00  0.00    +0.163 HD
ATOM      6  H   UNL     1      -9.386  -2.255  14.386  0.00  0.00    +0.159 HD
ATOM      7  H   UNL     1      -9.677  -3.343  13.081  0.00  0.00    +0.159 HD
ATOM      8  H   UNL     1      -7.190  -4.359  16.172  0.00  0.00    +0.159 HD
ATOM      9  H   UNL     1      -7.979  -2.831  16.132  0.00  0.00    +0.159 HD
ENDROOT
BRANCH   1  10
ATOM     10  C   UNL     1      -7.287  -6.262  14.450  0.00  0.00    +0.151 C 
BRANCH  10  11
ATOM     11  C   UNL     1      -7.731  -7.608  13.947  0.00  0.00    -0.028 A 
ATOM     12  C   UNL     1      -6.926  -8.741  14.139  0.00  0.00    +0.005 A 
ATOM     13  C   UNL     1      -8.958  -7.759  13.283  0.00  0.00    +0.005 A 
ATOM     14  C   UNL     1      -7.352  -9.996  13.699  0.00  0.00    +0.000 A 
ATOM     15  C   UNL     1      -9.379  -9.014  12.844  0.00  0.00    +0.000 A 
ATOM     16  C   UNL     1      -8.577 -10.133  13.055  0.00  0.00    +0.000 A 
ENDBRANCH  10  11
ENDBRANCH   1  10
TORSDOF 2
ENDMDL
