MODEL 1
REMARK VINA RESULT:    -5.576      0.000      0.000
REMARK INTER + INTRA:          -6.322
REMARK INTER:                  -6.227
REMARK INTRA:                  -0.095
REMARK UNBOUND:                -0.095
REMARK  Name = 1550473
REMARK  2 active torsions:
REMARK  status: ('A' for Active; 'I' for Inactive)
REMARK    1  A    between atoms: N_1  and  C_4
REMARK    2  A    between atoms: C_4  and  C_5
REMARK                            x       y       z     vdW  Elec       q    Type
REMARK                         _______ _______ _______ _____ _____    ______ ____
ROOT
ATOM      1  N   UNL     1      -2.025  -0.836 -13.921  0.00  0.00    -0.354 N 
ATOM      2  N   UNL     1      -0.867  -2.792 -13.475  0.00  0.00    -0.372 N 
ATOM      3  N   UNL     1       0.190  -0.780 -13.156  0.00  0.00    -0.372 N 
ATOM      4  C   UNL     1      -0.906  -1.455 -13.520  0.00  0.00    +0.166 C 
ATOM      5  H   UNL     1      -2.811  -1.405 -14.212  0.00  0.00    +0.163 HD
ATOM      6  H   UNL     1      -0.038  -3.286 -13.173  0.00  0.00    +0.159 HD
ATOM      7  H   UNL     1      -1.669  -3.357 -13.723  0.00  0.00    +0.159 HD
ATOM      8  H   UNL     1       0.227   0.230 -13.173  0.00  0.00    +0.159 HD
ATOM      9  H   UNL     1       1.033  -1.257 -12.863  0.00  0.00    +0.159 HD
ENDROOT
BRANCH   1  10
ATOM     10  C   UNL     1      -2.189   0.616 -13.954  0.00  0.00    +0.151 C 
BRANCH  10  11
ATOM     11  C   UNL     1      -3.447   0.950 -14.707  0.00  0.00    -0.028 A 
ATOM     12  C   UNL     1      -4.704   0.630 -14.172  0.00  0.00    +0.005 A 
ATOM     13  C   UNL     1      -3.390   1.593 -15.953  0.00  0.00    +0.005 A 
ATOM     14  C   UNL     1      -5.873   0.967 -14.857  0.00  0.00    +0.000 A 
ATOM     15  C   UNL     1      -4.560   1.928 -16.635  0.00  0.00    +0.000 A 
ATOM     16  C   UNL     1      -5.802   1.617 -16.085  0.00  0.00    +0.000 A 
ENDBRANCH  10  11
ENDBRANCH   1  10
TORSDOF 2
ENDMDL
MODEL 2
REMARK VINA RESULT:    -5.432     13.626     14.462
REMARK INTER + INTRA:          -6.162
REMARK INTER:                  -6.027
REMARK INTRA:                  -0.135
REMARK UNBOUND:                -0.095
REMARK  Name = 1550473
REMARK  2 active torsions:
REMARK  status: ('A' for Active; 'I' for Inactive)
REMARK    1  A    between atoms: N_1  and  C_4
REMARK    2  A    between atoms: C_4  and  C_5
REMARK                            x       y       z     vdW  Elec       q    Type
REMARK                         _______ _______ _______ _____ _____    ______ ____
ROOT
ATOM      1  N   UNL     1      -2.618   7.288  -3.499  0.00  0.00    -0.354 N 
ATOM      2  N   UNL     1      -2.701   9.402  -4.443  0.00  0.00    -0.372 N 
ATOM      3  N   UNL     1      -4.146   8.892  -2.735  0.00  0.00    -0.372 N 
ATOM      4  C   UNL     1      -3.157   8.514  -3.551  0.00  0.00    +0.166 C 
ATOM      5  H   UNL     1      -1.892   7.053  -4.166  0.00  0.00    +0.163 HD
ATOM      6  H   UNL     1      -3.085  10.335  -4.503  0.00  0.00    +0.159 HD
ATOM      7  H   UNL     1      -1.943   9.179  -5.077  0.00  0.00    +0.159 HD
ATOM      8  H   UNL     1      -4.539   8.267  -2.044  0.00  0.00    +0.159 HD
ATOM      9  H   UNL     1      -4.552   9.818  -2.787  0.00  0.00    +0.159 HD
ENDROOT
BRANCH   1  10
ATOM     10  C   UNL     1      -3.006   6.265  -2.530  0.00  0.00    +0.151 C 
BRANCH  10  11
ATOM     11  C   UNL     1      -1.787   5.479  -2.131  0.00  0.00    -0.028 A 
ATOM     12  C   UNL     1      -1.904   4.356  -1.300  0.00  0.00    +0.005 A 
ATOM     13  C   UNL     1      -0.512   5.850  -2.587  0.00  0.00    +0.005 A 
ATOM     14  C   UNL     1      -0.776   3.609  -0.953  0.00  0.00    +0.000 A 
ATOM     15  C   UNL     1       0.612   5.101  -2.238  0.00  0.00    +0.000 A 
ATOM     16  C   UNL     1       0.479   3.979  -1.423  0.00  0.00    +0.000 A 
ENDBRANCH  10  11
ENDBRANCH   1  10
TORSDOF 2
ENDMDL
MODEL 3
REMARK VINA RESULT:    -5.239      4.227      5.621
REMARK INTER + INTRA:          -5.946
REMARK INTER:                  -5.807
REMARK INTRA:                  -0.139
REMARK UNBOUND:                -0.095
REMARK  Name = 1550473
REMARK  2 active torsions:
REMARK  status: ('A' for Active; 'I' for Inactive)
REMARK    1  A    between atoms: N_1  and  C_4
REMARK    2  A    between atoms: C_4  and  C_5
REMARK                            x       y       z     vdW  Elec       q    Type
REMARK                         _______ _______ _______ _____ _____    ______ ____
ROOT
ATOM      1  N   UNL     1      -4.138   3.311 -18.418  0.00  0.00    -0.354 N 
ATOM      2  N   UNL     1      -5.151   3.968 -20.395  0.00  0.00    -0.372 N 
ATOM      3  N   UNL     1      -3.301   2.615 -20.493  0.00  0.00    -0.372 N 
ATOM      4  C   UNL     1      -4.188   3.292 -19.757  0.00  0.00    +0.166 C 
ATOM      5  H   UNL     1      -4.822   3.868 -17.919  0.00  0.00    +0.163 HD
ATOM      6  H   UNL     1      -5.216   3.970 -21.404  0.00  0.00    +0.159 HD
ATOM      7  H   UNL     1      -5.861   4.487 -19.892  0.00  0.00    +0.159 HD
ATOM      8  H   UNL     1      -2.546   2.090 -20.073  0.00  0.00    +0.159 HD
ATOM      9  H   UNL     1      -3.342   2.615 -21.505  0.00  0.00    +0.159 HD
ENDROOT
BRANCH   1  10
ATOM     10  C   UNL     1      -3.163   2.565 -17.626  0.00  0.00    +0.151 C 
BRANCH  10  11
ATOM     11  C   UNL     1      -3.863   1.924 -16.459  0.00  0.00    -0.028 A 
ATOM     12  C   UNL     1      -3.129   1.425 -15.374  0.00  0.00    +0.005 A 
ATOM     13  C   UNL     1      -5.262   1.819 -16.431  0.00  0.00    +0.005 A 
ATOM     14  C   UNL     1      -3.781   0.857 -14.277  0.00  0.00    +0.000 A 
ATOM     15  C   UNL     1      -5.910   1.251 -15.334  0.00  0.00    +0.000 A 
ATOM     16  C   UNL     1      -5.169   0.772 -14.256  0.00  0.00    +0.000 A 
ENDBRANCH  10  11
ENDBRANCH   1  10
TORSDOF 2
ENDMDL
MODEL 4
REMARK VINA RESULT:    -5.231     12.539     13.018
REMARK INTER + INTRA:          -5.937
REMARK INTER:                  -5.805
REMARK INTRA:                  -0.131
REMARK UNBOUND:                -0.095
REMARK  Name = 1550473
REMARK  2 active torsions:
REMARK  status: ('A' for Active; 'I' for Inactive)
REMARK    1  A    between atoms: N_1  and  C_4
REMARK    2  A    between atoms: C_4  and  C_5
REMARK                            x       y       z     vdW  Elec       q    Type
REMARK                         _______ _______ _______ _____ _____    ______ ____
ROOT
ATOM      1  N   UNL     1       1.105   5.841  -4.007  0.00  0.00    -0.354 N 
ATOM      2  N   UNL     1       2.976   4.527  -3.638  0.00  0.00    -0.372 N 
ATOM      3  N   UNL     1       2.957   6.677  -2.838  0.00  0.00    -0.372 N 
ATOM      4  C   UNL     1       2.335   5.693  -3.496  0.00  0.00    +0.166 C 
ATOM      5  H   UNL     1       0.701   5.067  -4.520  0.00  0.00    +0.163 HD
ATOM      6  H   UNL     1       3.903   4.384  -3.261  0.00  0.00    +0.159 HD
ATOM      7  H   UNL     1       2.551   3.739  -4.113  0.00  0.00    +0.159 HD
ATOM      8  H   UNL     1       2.529   7.583  -2.701  0.00  0.00    +0.159 HD
ATOM      9  H   UNL     1       3.889   6.557  -2.463  0.00  0.00    +0.159 HD
ENDROOT
BRANCH   1  10
ATOM     10  C   UNL     1       0.300   7.052  -3.860  0.00  0.00    +0.151 C 
BRANCH  10  11
ATOM     11  C   UNL     1      -1.132   6.663  -3.614  0.00  0.00    -0.028 A 
ATOM     12  C   UNL     1      -2.175   7.336  -4.266  0.00  0.00    +0.005 A 
ATOM     13  C   UNL     1      -1.452   5.618  -2.733  0.00  0.00    +0.005 A 
ATOM     14  C   UNL     1      -3.503   6.956  -4.061  0.00  0.00    +0.000 A 
ATOM     15  C   UNL     1      -2.779   5.242  -2.530  0.00  0.00    +0.000 A 
ATOM     16  C   UNL     1      -3.804   5.909  -3.196  0.00  0.00    +0.000 A 
ENDBRANCH  10  11
ENDBRANCH   1  10
TORSDOF 2
ENDMDL
MODEL 5
REMARK VINA RESULT:    -5.164     12.173     13.431
REMARK INTER + INTRA:          -5.863
REMARK INTER:                  -5.706
REMARK INTRA:                  -0.156
REMARK UNBOUND:                -0.095
REMARK  Name = 1550473
REMARK  2 active torsions:
REMARK  status: ('A' for Active; 'I' for Inactive)
REMARK    1  A    between atoms: N_1  and  C_4
REMARK    2  A    between atoms: C_4  and  C_5
REMARK                            x       y       z     vdW  Elec       q    Type
REMARK                         _______ _______ _______ _____ _____    ______ ____
ROOT
ATOM      1  N   UNL     1       1.044   6.144  -3.213  0.00  0.00    -0.354 N 
ATOM      2  N   UNL     1       3.244   6.705  -2.755  0.00  0.00    -0.372 N 
ATOM      3  N   UNL     1       2.818   4.960  -4.183  0.00  0.00    -0.372 N 
ATOM      4  C   UNL     1       2.355   5.931  -3.388  0.00  0.00    +0.166 C 
ATOM      5  H   UNL     1       0.757   6.877  -2.573  0.00  0.00    +0.163 HD
ATOM      6  H   UNL     1       4.239   6.570  -2.871  0.00  0.00    +0.159 HD
ATOM      7  H   UNL     1       2.954   7.466  -2.153  0.00  0.00    +0.159 HD
ATOM      8  H   UNL     1       2.199   4.337  -4.684  0.00  0.00    +0.159 HD
ATOM      9  H   UNL     1       3.811   4.802  -4.302  0.00  0.00    +0.159 HD
ENDROOT
BRANCH   1  10
ATOM     10  C   UNL     1      -0.006   5.392  -3.897  0.00  0.00    +0.151 C 
BRANCH  10  11
ATOM     11  C   UNL     1      -0.433   4.242  -3.027  0.00  0.00    -0.028 A 
ATOM     12  C   UNL     1      -0.636   4.427  -1.652  0.00  0.00    +0.005 A 
ATOM     13  C   UNL     1      -0.643   2.966  -3.573  0.00  0.00    +0.005 A 
ATOM     14  C   UNL     1      -1.061   3.366  -0.848  0.00  0.00    +0.000 A 
ATOM     15  C   UNL     1      -1.067   1.910  -2.768  0.00  0.00    +0.000 A 
ATOM     16  C   UNL     1      -1.279   2.111  -1.406  0.00  0.00    +0.000 A 
ENDBRANCH  10  11
ENDBRANCH   1  10
TORSDOF 2
ENDMDL
MODEL 6
REMARK VINA RESULT:    -5.131     12.891     13.834
REMARK INTER + INTRA:          -5.826
REMARK INTER:                  -5.686
REMARK INTRA:                  -0.140
REMARK UNBOUND:                -0.095
REMARK  Name = 1550473
REMARK  2 active torsions:
REMARK  status: ('A' for Active; 'I' for Inactive)
REMARK    1  A    between atoms: N_1  and  C_4
REMARK    2  A    between atoms: C_4  and  C_5
REMARK                            x       y       z     vdW  Elec       q    Type
REMARK                         _______ _______ _______ _____ _____    ______ ____
ROOT
ATOM      1  N   UNL     1      -1.663   8.759  -4.230  0.00  0.00    -0.354 N 
ATOM      2  N   UNL     1      -0.502  10.381  -5.407  0.00  0.00    -0.372 N 
ATOM      3  N   UNL     1      -1.763   8.857  -6.570  0.00  0.00    -0.372 N 
ATOM      4  C   UNL     1      -1.318   9.320  -5.397  0.00  0.00    +0.166 C 
ATOM      5  H   UNL     1      -1.267   9.138  -3.378  0.00  0.00    +0.163 HD
ATOM      6  H   UNL     1      -0.227  10.828  -6.271  0.00  0.00    +0.159 HD
ATOM      7  H   UNL     1      -0.145  10.786  -4.550  0.00  0.00    +0.159 HD
ATOM      8  H   UNL     1      -2.377   8.056  -6.631  0.00  0.00    +0.159 HD
ATOM      9  H   UNL     1      -1.490   9.284  -7.446  0.00  0.00    +0.159 HD
ENDROOT
BRANCH   1  10
ATOM     10  C   UNL     1      -2.588   7.634  -4.106  0.00  0.00    +0.151 C 
BRANCH  10  11
ATOM     11  C   UNL     1      -1.974   6.588  -3.218  0.00  0.00    -0.028 A 
ATOM     12  C   UNL     1      -2.783   5.769  -2.417  0.00  0.00    +0.005 A 
ATOM     13  C   UNL     1      -0.583   6.407  -3.176  0.00  0.00    +0.005 A 
ATOM     14  C   UNL     1      -2.215   4.777  -1.613  0.00  0.00    +0.000 A 
ATOM     15  C   UNL     1      -0.019   5.416  -2.372  0.00  0.00    +0.000 A 
ATOM     16  C   UNL     1      -0.836   4.600  -1.593  0.00  0.00    +0.000 A 
ENDBRANCH  10  11
ENDBRANCH   1  10
TORSDOF 2
ENDMDL
MODEL 7
REMARK VINA RESULT:    -5.125     12.199     13.425
REMARK INTER + INTRA:          -5.819
REMARK INTER:                  -5.676
REMARK INTRA:                  -0.143
REMARK UNBOUND:                -0.095
REMARK  Name = 1550473
REMARK  2 active torsions:
REMARK  status: ('A' for Active; 'I' for Inactive)
REMARK    1  A    between atoms: N_1  and  C_4
REMARK    2  A    between atoms: C_4  and  C_5
REMARK                            x       y       z     vdW  Elec       q    Type
REMARK                         _______ _______ _______ _____ _____    ______ ____
ROOT
ATOM      1  N   UNL     1      -0.794   6.268  -3.505  0.00  0.00    -0.354 N 
ATOM      2  N   UNL     1       0.518   7.486  -4.973  0.00  0.00    -0.372 N 
ATOM      3  N   UNL     1       1.073   7.465  -2.747  0.00  0.00    -0.372 N 
ATOM      4  C   UNL     1       0.258   7.066  -3.730  0.00  0.00    +0.166 C 
ATOM      5  H   UNL     1      -1.391   6.026  -4.287  0.00  0.00    +0.163 HD
ATOM      6  H   UNL     1       1.307   8.086  -5.174  0.00  0.00    +0.159 HD
ATOM      7  H   UNL     1      -0.053   7.205  -5.761  0.00  0.00    +0.159 HD
ATOM      8  H   UNL     1       0.928   7.187  -1.785  0.00  0.00    +0.159 HD
ATOM      9  H   UNL     1       1.860   8.074  -2.926  0.00  0.00    +0.159 HD
ENDROOT
BRANCH   1  10
ATOM     10  C   UNL     1      -1.133   5.711  -2.196  0.00  0.00    +0.151 C 
BRANCH  10  11
ATOM     11  C   UNL     1      -1.080   4.210  -2.273  0.00  0.00    -0.028 A 
ATOM     12  C   UNL     1      -1.240   3.432  -1.116  0.00  0.00    +0.005 A 
ATOM     13  C   UNL     1      -0.877   3.559  -3.499  0.00  0.00    +0.005 A 
ATOM     14  C   UNL     1      -1.221   2.037  -1.191  0.00  0.00    +0.000 A 
ATOM     15  C   UNL     1      -0.858   2.166  -3.570  0.00  0.00    +0.000 A 
ATOM     16  C   UNL     1      -1.032   1.406  -2.416  0.00  0.00    +0.000 A 
ENDBRANCH  10  11
ENDBRANCH   1  10
TORSDOF 2
ENDMDL
MODEL 8
REMARK VINA RESULT:    -5.047     12.569     13.510
REMARK INTER + INTRA:          -5.731
REMARK INTER:                  -5.587
REMARK INTRA:                  -0.144
REMARK UNBOUND:                -0.095
REMARK  Name = 1550473
REMARK  2 active torsions:
REMARK  status: ('A' for Active; 'I' for Inactive)
REMARK    1  A    between atoms: N_1  and  C_4
REMARK    2  A    between atoms: C_4  and  C_5
REMARK                            x       y       z     vdW  Elec       q    Type
REMARK                         _______ _______ _______ _____ _____    ______ ____
ROOT
ATOM      1  N   UNL     1      -1.337   9.608  -4.980  0.00  0.00    -0.354 N 
ATOM      2  N   UNL     1      -2.192  11.491  -6.023  0.00  0.00    -0.372 N 
ATOM      3  N   UNL     1      -1.597   9.686  -7.308  0.00  0.00    -0.372 N 
ATOM      4  C   UNL     1      -1.702  10.248  -6.099  0.00  0.00    +0.166 C 
ATOM      5  H   UNL     1      -1.413  10.101  -4.097  0.00  0.00    +0.163 HD
ATOM      6  H   UNL     1      -2.480  11.997  -6.850  0.00  0.00    +0.159 HD
ATOM      7  H   UNL     1      -2.311  11.964  -5.135  0.00  0.00    +0.159 HD
ATOM      8  H   UNL     1      -1.229   8.752  -7.434  0.00  0.00    +0.159 HD
ATOM      9  H   UNL     1      -1.868  10.180  -8.148  0.00  0.00    +0.159 HD
ENDROOT
BRANCH   1  10
ATOM     10  C   UNL     1      -0.842   8.233  -4.948  0.00  0.00    +0.151 C 
BRANCH  10  11
ATOM     11  C   UNL     1      -1.795   7.386  -4.152  0.00  0.00    -0.028 A 
ATOM     12  C   UNL     1      -3.136   7.262  -4.544  0.00  0.00    +0.005 A 
ATOM     13  C   UNL     1      -1.363   6.701  -3.006  0.00  0.00    +0.005 A 
ATOM     14  C   UNL     1      -4.015   6.451  -3.822  0.00  0.00    +0.000 A 
ATOM     15  C   UNL     1      -2.243   5.893  -2.286  0.00  0.00    +0.000 A 
ATOM     16  C   UNL     1      -3.568   5.767  -2.696  0.00  0.00    +0.000 A 
ENDBRANCH  10  11
ENDBRANCH   1  10
TORSDOF 2
ENDMDL
MODEL 9
REMARK VINA RESULT:    -4.977     12.873     13.437
REMARK INTER + INTRA:          -5.653
REMARK INTER:                  -5.504
REMARK INTRA:                  -0.149
REMARK UNBOUND:                -0.095
REMARK  Name = 1550473
REMARK  2 active torsions:
REMARK  status: ('A' for Active; 'I' for Inactive)
REMARK    1  A    between atoms: N_1  and  C_4
REMARK    2  A    between atoms: C_4  and  C_5
REMARK                            x       y       z     vdW  Elec       q    Type
REMARK                         _______ _______ _______ _____ _____    ______ ____
ROOT
ATOM      1  N   UNL     1       2.462   3.520  -2.531  0.00  0.00    -0.354 N 
ATOM      2  N   UNL     1       3.972   3.203  -4.258  0.00  0.00    -0.372 N 
ATOM      3  N   UNL     1       2.435   1.559  -3.813  0.00  0.00    -0.372 N 
ATOM      4  C   UNL     1       2.945   2.760  -3.523  0.00  0.00    +0.166 C 
ATOM      5  H   UNL     1       2.912   4.408  -2.342  0.00  0.00    +0.163 HD
ATOM      6  H   UNL     1       4.356   2.654  -5.015  0.00  0.00    +0.159 HD
ATOM      7  H   UNL     1       4.390   4.111  -4.097  0.00  0.00    +0.159 HD
ATOM      8  H   UNL     1       1.663   1.165  -3.292  0.00  0.00    +0.159 HD
ATOM      9  H   UNL     1       2.813   0.989  -4.560  0.00  0.00    +0.159 HD
ENDROOT
BRANCH   1  10
ATOM     10  C   UNL     1       1.312   3.154  -1.706  0.00  0.00    +0.151 C 
BRANCH  10  11
ATOM     11  C   UNL     1       0.237   4.193  -1.872  0.00  0.00    -0.028 A 
ATOM     12  C   UNL     1       0.540   5.449  -2.417  0.00  0.00    +0.005 A 
ATOM     13  C   UNL     1      -1.087   3.924  -1.492  0.00  0.00    +0.005 A 
ATOM     14  C   UNL     1      -0.464   6.404  -2.599  0.00  0.00    +0.000 A 
ATOM     15  C   UNL     1      -2.086   4.880  -1.675  0.00  0.00    +0.000 A 
ATOM     16  C   UNL     1      -1.774   6.119  -2.230  0.00  0.00    +0.000 A 
ENDBRANCH  10  11
ENDBRANCH   1  10
TORSDOF 2
ENDMDL
