MODEL 1
REMARK VINA RESULT:    -4.587      0.000      0.000
REMARK INTER + INTRA:          -5.233
REMARK INTER:                  -5.123
REMARK INTRA:                  -0.110
REMARK UNBOUND:                -0.110
REMARK  Name = 1550473
REMARK  2 active torsions:
REMARK  status: ('A' for Active; 'I' for Inactive)
REMARK    1  A    between atoms: N_1  and  C_4
REMARK    2  A    between atoms: C_4  and  C_5
REMARK                            x       y       z     vdW  Elec       q    Type
REMARK                         _______ _______ _______ _____ _____    ______ ____
ROOT
ATOM      1  N   UNL     1      17.499   1.241  10.778  0.00  0.00    -0.354 N 
ATOM      2  N   UNL     1      18.801   2.504  12.218  0.00  0.00    -0.372 N 
ATOM      3  N   UNL     1      16.651   1.987  12.831  0.00  0.00    -0.372 N 
ATOM      4  C   UNL     1      17.639   1.902  11.934  0.00  0.00    +0.166 C 
ATOM      5  H   UNL     1      18.276   1.239  10.127  0.00  0.00    +0.163 HD
ATOM      6  H   UNL     1      18.937   3.007  13.084  0.00  0.00    +0.159 HD
ATOM      7  H   UNL     1      19.591   2.462  11.586  0.00  0.00    +0.159 HD
ATOM      8  H   UNL     1      15.748   1.560  12.674  0.00  0.00    +0.159 HD
ATOM      9  H   UNL     1      16.764   2.496  13.698  0.00  0.00    +0.159 HD
ENDROOT
BRANCH   1  10
ATOM     10  C   UNL     1      16.294   0.506  10.396  0.00  0.00    +0.151 C 
BRANCH  10  11
ATOM     11  C   UNL     1      16.534  -0.182   9.081  0.00  0.00    -0.028 A 
ATOM     12  C   UNL     1      15.567  -0.135   8.066  0.00  0.00    +0.005 A 
ATOM     13  C   UNL     1      17.728  -0.879   8.842  0.00  0.00    +0.005 A 
ATOM     14  C   UNL     1      15.802  -0.749   6.833  0.00  0.00    +0.000 A 
ATOM     15  C   UNL     1      17.958  -1.492   7.610  0.00  0.00    +0.000 A 
ATOM     16  C   UNL     1      16.996  -1.424   6.605  0.00  0.00    +0.000 A 
ENDBRANCH  10  11
ENDBRANCH   1  10
TORSDOF 2
ENDMDL
MODEL 2
REMARK VINA RESULT:    -4.500     22.451     23.550
REMARK INTER + INTRA:          -5.136
REMARK INTER:                  -4.967
REMARK INTRA:                  -0.169
REMARK UNBOUND:                -0.110
REMARK  Name = 1550473
REMARK  2 active torsions:
REMARK  status: ('A' for Active; 'I' for Inactive)
REMARK    1  A    between atoms: N_1  and  C_4
REMARK    2  A    between atoms: C_4  and  C_5
REMARK                            x       y       z     vdW  Elec       q    Type
REMARK                         _______ _______ _______ _____ _____    ______ ____
ROOT
ATOM      1  N   UNL     1       3.340  14.045  -0.941  0.00  0.00    -0.354 N 
ATOM      2  N   UNL     1       3.986  14.448  -3.129  0.00  0.00    -0.372 N 
ATOM      3  N   UNL     1       2.474  12.774  -2.709  0.00  0.00    -0.372 N 
ATOM      4  C   UNL     1       3.261  13.751  -2.246  0.00  0.00    +0.166 C 
ATOM      5  H   UNL     1       3.979  14.777  -0.651  0.00  0.00    +0.163 HD
ATOM      6  H   UNL     1       3.944  14.250  -4.120  0.00  0.00    +0.159 HD
ATOM      7  H   UNL     1       4.588  15.209  -2.841  0.00  0.00    +0.159 HD
ATOM      8  H   UNL     1       1.906  12.207  -2.093  0.00  0.00    +0.159 HD
ATOM      9  H   UNL     1       2.427  12.553  -3.696  0.00  0.00    +0.159 HD
ENDROOT
BRANCH   1  10
ATOM     10  C   UNL     1       2.552  13.382   0.096  0.00  0.00    +0.151 C 
BRANCH  10  11
ATOM     11  C   UNL     1       1.475  14.319   0.569  0.00  0.00    -0.028 A 
ATOM     12  C   UNL     1       0.122  14.004   0.376  0.00  0.00    +0.005 A 
ATOM     13  C   UNL     1       1.801  15.522   1.215  0.00  0.00    +0.005 A 
ATOM     14  C   UNL     1      -0.879  14.860   0.842  0.00  0.00    +0.000 A 
ATOM     15  C   UNL     1       0.798  16.374   1.678  0.00  0.00    +0.000 A 
ATOM     16  C   UNL     1      -0.541  16.041   1.493  0.00  0.00    +0.000 A 
ENDBRANCH  10  11
ENDBRANCH   1  10
TORSDOF 2
ENDMDL
MODEL 3
REMARK VINA RESULT:    -4.453     22.950     24.055
REMARK INTER + INTRA:          -5.083
REMARK INTER:                  -4.987
REMARK INTRA:                  -0.096
REMARK UNBOUND:                -0.110
REMARK  Name = 1550473
REMARK  2 active torsions:
REMARK  status: ('A' for Active; 'I' for Inactive)
REMARK    1  A    between atoms: N_1  and  C_4
REMARK    2  A    between atoms: C_4  and  C_5
REMARK                            x       y       z     vdW  Elec       q    Type
REMARK                         _______ _______ _______ _____ _____    ______ ____
ROOT
ATOM      1  N   UNL     1       1.780  13.880   0.398  0.00  0.00    -0.354 N 
ATOM      2  N   UNL     1       3.054  11.962   0.157  0.00  0.00    -0.372 N 
ATOM      3  N   UNL     1       2.634  13.254  -1.692  0.00  0.00    -0.372 N 
ATOM      4  C   UNL     1       2.481  13.045  -0.380  0.00  0.00    +0.166 C 
ATOM      5  H   UNL     1       1.675  13.650   1.379  0.00  0.00    +0.163 HD
ATOM      6  H   UNL     1       3.592  11.315  -0.405  0.00  0.00    +0.159 HD
ATOM      7  H   UNL     1       2.986  11.759   1.147  0.00  0.00    +0.159 HD
ATOM      8  H   UNL     1       2.222  14.050  -2.160  0.00  0.00    +0.159 HD
ATOM      9  H   UNL     1       3.159  12.612  -2.273  0.00  0.00    +0.159 HD
ENDROOT
BRANCH   1  10
ATOM     10  C   UNL     1       1.161  15.116  -0.079  0.00  0.00    +0.151 C 
BRANCH  10  11
ATOM     11  C   UNL     1       0.199  15.617   0.963  0.00  0.00    -0.028 A 
ATOM     12  C   UNL     1      -1.065  15.028   1.107  0.00  0.00    +0.005 A 
ATOM     13  C   UNL     1       0.549  16.678   1.814  0.00  0.00    +0.005 A 
ATOM     14  C   UNL     1      -1.948  15.474   2.094  0.00  0.00    +0.000 A 
ATOM     15  C   UNL     1      -0.335  17.120   2.798  0.00  0.00    +0.000 A 
ATOM     16  C   UNL     1      -1.582  16.516   2.939  0.00  0.00    +0.000 A 
ENDBRANCH  10  11
ENDBRANCH   1  10
TORSDOF 2
ENDMDL
MODEL 4
REMARK VINA RESULT:    -4.251     14.832     16.440
REMARK INTER + INTRA:          -4.858
REMARK INTER:                  -4.683
REMARK INTRA:                  -0.174
REMARK UNBOUND:                -0.110
REMARK  Name = 1550473
REMARK  2 active torsions:
REMARK  status: ('A' for Active; 'I' for Inactive)
REMARK    1  A    between atoms: N_1  and  C_4
REMARK    2  A    between atoms: C_4  and  C_5
REMARK                            x       y       z     vdW  Elec       q    Type
REMARK                         _______ _______ _______ _____ _____    ______ ____
ROOT
ATOM      1  N   UNL     1      22.300  11.371  21.256  0.00  0.00    -0.354 N 
ATOM      2  N   UNL     1      23.244  13.477  21.448  0.00  0.00    -0.372 N 
ATOM      3  N   UNL     1      22.234  12.543  23.284  0.00  0.00    -0.372 N 
ATOM      4  C   UNL     1      22.585  12.450  21.997  0.00  0.00    +0.166 C 
ATOM      5  H   UNL     1      22.568  11.374  20.278  0.00  0.00    +0.163 HD
ATOM      6  H   UNL     1      23.477  14.303  21.983  0.00  0.00    +0.159 HD
ATOM      7  H   UNL     1      23.551  13.459  20.483  0.00  0.00    +0.159 HD
ATOM      8  H   UNL     1      21.729  11.805  23.756  0.00  0.00    +0.159 HD
ATOM      9  H   UNL     1      22.447  13.366  23.833  0.00  0.00    +0.159 HD
ENDROOT
BRANCH   1  10
ATOM     10  C   UNL     1      21.634  10.176  21.772  0.00  0.00    +0.151 C 
BRANCH  10  11
ATOM     11  C   UNL     1      20.217  10.149  21.271  0.00  0.00    -0.028 A 
ATOM     12  C   UNL     1      19.946   9.915  19.915  0.00  0.00    +0.005 A 
ATOM     13  C   UNL     1      19.140  10.350  22.148  0.00  0.00    +0.005 A 
ATOM     14  C   UNL     1      18.628   9.860  19.454  0.00  0.00    +0.000 A 
ATOM     15  C   UNL     1      17.826  10.295  21.684  0.00  0.00    +0.000 A 
ATOM     16  C   UNL     1      17.570  10.047  20.338  0.00  0.00    +0.000 A 
ENDBRANCH  10  11
ENDBRANCH   1  10
TORSDOF 2
ENDMDL
MODEL 5
REMARK VINA RESULT:    -4.227     28.019     29.769
REMARK INTER + INTRA:          -4.831
REMARK INTER:                  -4.698
REMARK INTRA:                  -0.133
REMARK UNBOUND:                -0.110
REMARK  Name = 1550473
REMARK  2 active torsions:
REMARK  status: ('A' for Active; 'I' for Inactive)
REMARK    1  A    between atoms: N_1  and  C_4
REMARK    2  A    between atoms: C_4  and  C_5
REMARK                            x       y       z     vdW  Elec       q    Type
REMARK                         _______ _______ _______ _____ _____    ______ ____
ROOT
ATOM      1  N   UNL     1      -6.250  -9.252  -8.781  0.00  0.00    -0.354 N 
ATOM      2  N   UNL     1      -7.878 -10.899  -8.780  0.00  0.00    -0.372 N 
ATOM      3  N   UNL     1      -8.419  -8.805  -8.015  0.00  0.00    -0.372 N 
ATOM      4  C   UNL     1      -7.506  -9.639  -8.524  0.00  0.00    +0.166 C 
ATOM      5  H   UNL     1      -5.598  -9.941  -9.139  0.00  0.00    +0.163 HD
ATOM      6  H   UNL     1      -8.820 -11.219  -8.600  0.00  0.00    +0.159 HD
ATOM      7  H   UNL     1      -7.237 -11.573  -9.181  0.00  0.00    +0.159 HD
ATOM      8  H   UNL     1      -8.200  -7.842  -7.794  0.00  0.00    +0.159 HD
ATOM      9  H   UNL     1      -9.364  -9.109  -7.816  0.00  0.00    +0.159 HD
ENDROOT
BRANCH   1  10
ATOM     10  C   UNL     1      -5.759  -7.889  -8.589  0.00  0.00    +0.151 C 
BRANCH  10  11
ATOM     11  C   UNL     1      -4.469  -7.936  -7.817  0.00  0.00    -0.028 A 
ATOM     12  C   UNL     1      -3.241  -7.753  -8.471  0.00  0.00    +0.005 A 
ATOM     13  C   UNL     1      -4.468  -8.157  -6.432  0.00  0.00    +0.005 A 
ATOM     14  C   UNL     1      -2.045  -7.767  -7.750  0.00  0.00    +0.000 A 
ATOM     15  C   UNL     1      -3.271  -8.170  -5.716  0.00  0.00    +0.000 A 
ATOM     16  C   UNL     1      -2.060  -7.973  -6.375  0.00  0.00    +0.000 A 
ENDBRANCH  10  11
ENDBRANCH   1  10
TORSDOF 2
ENDMDL
MODEL 6
REMARK VINA RESULT:    -4.123     14.386     15.322
REMARK INTER + INTRA:          -4.714
REMARK INTER:                  -4.605
REMARK INTRA:                  -0.109
REMARK UNBOUND:                -0.110
REMARK  Name = 1550473
REMARK  2 active torsions:
REMARK  status: ('A' for Active; 'I' for Inactive)
REMARK    1  A    between atoms: N_1  and  C_4
REMARK    2  A    between atoms: C_4  and  C_5
REMARK                            x       y       z     vdW  Elec       q    Type
REMARK                         _______ _______ _______ _____ _____    ______ ____
ROOT
ATOM      1  N   UNL     1      20.721  11.778  18.084  0.00  0.00    -0.354 N 
ATOM      2  N   UNL     1      20.965  12.818  16.029  0.00  0.00    -0.372 N 
ATOM      3  N   UNL     1      22.746  11.670  16.909  0.00  0.00    -0.372 N 
ATOM      4  C   UNL     1      21.479  12.081  17.021  0.00  0.00    +0.166 C 
ATOM      5  H   UNL     1      19.777  12.145  18.122  0.00  0.00    +0.163 HD
ATOM      6  H   UNL     1      21.512  13.059  15.213  0.00  0.00    +0.159 HD
ATOM      7  H   UNL     1      20.007  13.145  16.048  0.00  0.00    +0.159 HD
ATOM      8  H   UNL     1      23.195  11.116  17.627  0.00  0.00    +0.159 HD
ATOM      9  H   UNL     1      23.313  11.912  16.106  0.00  0.00    +0.159 HD
ENDROOT
BRANCH   1  10
ATOM     10  C   UNL     1      21.167  10.937  19.193  0.00  0.00    +0.151 C 
BRANCH  10  11
ATOM     11  C   UNL     1      19.976  10.549  20.025  0.00  0.00    -0.028 A 
ATOM     12  C   UNL     1      18.846   9.974  19.426  0.00  0.00    +0.005 A 
ATOM     13  C   UNL     1      19.974  10.748  21.414  0.00  0.00    +0.005 A 
ATOM     14  C   UNL     1      17.751   9.586  20.202  0.00  0.00    +0.000 A 
ATOM     15  C   UNL     1      18.879  10.359  22.186  0.00  0.00    +0.000 A 
ATOM     16  C   UNL     1      17.769   9.776  21.580  0.00  0.00    +0.000 A 
ENDBRANCH  10  11
ENDBRANCH   1  10
TORSDOF 2
ENDMDL
MODEL 7
REMARK VINA RESULT:    -4.046     11.165     12.656
REMARK INTER + INTRA:          -4.629
REMARK INTER:                  -4.492
REMARK INTRA:                  -0.137
REMARK UNBOUND:                -0.110
REMARK  Name = 1550473
REMARK  2 active torsions:
REMARK  status: ('A' for Active; 'I' for Inactive)
REMARK    1  A    between atoms: N_1  and  C_4
REMARK    2  A    between atoms: C_4  and  C_5
REMARK                            x       y       z     vdW  Elec       q    Type
REMARK                         _______ _______ _______ _____ _____    ______ ____
ROOT
ATOM      1  N   UNL     1      17.760  -0.966  23.382  0.00  0.00    -0.354 N 
ATOM      2  N   UNL     1      18.878   0.883  24.215  0.00  0.00    -0.372 N 
ATOM      3  N   UNL     1      19.838  -1.188  24.441  0.00  0.00    -0.372 N 
ATOM      4  C   UNL     1      18.820  -0.438  24.008  0.00  0.00    +0.166 C 
ATOM      5  H   UNL     1      17.007  -0.347  23.105  0.00  0.00    +0.163 HD
ATOM      6  H   UNL     1      19.666   1.311  24.682  0.00  0.00    +0.159 HD
ATOM      7  H   UNL     1      18.145   1.505  23.896  0.00  0.00    +0.159 HD
ATOM      8  H   UNL     1      19.853  -2.192  24.322  0.00  0.00    +0.159 HD
ATOM      9  H   UNL     1      20.631  -0.780  24.921  0.00  0.00    +0.159 HD
ENDROOT
BRANCH   1  10
ATOM     10  C   UNL     1      17.624  -2.385  23.060  0.00  0.00    +0.151 C 
BRANCH  10  11
ATOM     11  C   UNL     1      17.089  -2.523  21.661  0.00  0.00    -0.028 A 
ATOM     12  C   UNL     1      16.260  -3.601  21.319  0.00  0.00    +0.005 A 
ATOM     13  C   UNL     1      17.403  -1.575  20.675  0.00  0.00    +0.005 A 
ATOM     14  C   UNL     1      15.738  -3.713  20.028  0.00  0.00    +0.000 A 
ATOM     15  C   UNL     1      16.880  -1.690  19.387  0.00  0.00    +0.000 A 
ATOM     16  C   UNL     1      16.046  -2.758  19.064  0.00  0.00    +0.000 A 
ENDBRANCH  10  11
ENDBRANCH   1  10
TORSDOF 2
ENDMDL
MODEL 8
REMARK VINA RESULT:    -3.988      8.039      9.729
REMARK INTER + INTRA:          -4.564
REMARK INTER:                  -4.497
REMARK INTRA:                  -0.067
REMARK UNBOUND:                -0.110
REMARK  Name = 1550473
REMARK  2 active torsions:
REMARK  status: ('A' for Active; 'I' for Inactive)
REMARK    1  A    between atoms: N_1  and  C_4
REMARK    2  A    between atoms: C_4  and  C_5
REMARK                            x       y       z     vdW  Elec       q    Type
REMARK                         _______ _______ _______ _____ _____    ______ ____
ROOT
ATOM      1  N   UNL     1      20.178  10.738  10.962  0.00  0.00    -0.354 N 
ATOM      2  N   UNL     1      19.681  12.865  10.193  0.00  0.00    -0.372 N 
ATOM      3  N   UNL     1      18.677  12.118  12.116  0.00  0.00    -0.372 N 
ATOM      4  C   UNL     1      19.513  11.893  11.098  0.00  0.00    +0.166 C 
ATOM      5  H   UNL     1      20.774  10.617  10.151  0.00  0.00    +0.163 HD
ATOM      6  H   UNL     1      19.195  13.749  10.271  0.00  0.00    +0.159 HD
ATOM      7  H   UNL     1      20.312  12.759   9.408  0.00  0.00    +0.159 HD
ATOM      8  H   UNL     1      18.502  11.423  12.830  0.00  0.00    +0.159 HD
ATOM      9  H   UNL     1      18.173  12.992  12.205  0.00  0.00    +0.159 HD
ENDROOT
BRANCH   1  10
ATOM     10  C   UNL     1      20.107   9.636  11.921  0.00  0.00    +0.151 C 
BRANCH  10  11
ATOM     11  C   UNL     1      19.162   8.590  11.398  0.00  0.00    -0.028 A 
ATOM     12  C   UNL     1      18.833   7.473  12.179  0.00  0.00    +0.005 A 
ATOM     13  C   UNL     1      18.586   8.713  10.124  0.00  0.00    +0.005 A 
ATOM     14  C   UNL     1      17.932   6.516  11.706  0.00  0.00    +0.000 A 
ATOM     15  C   UNL     1      17.687   7.755   9.655  0.00  0.00    +0.000 A 
ATOM     16  C   UNL     1      17.359   6.658  10.447  0.00  0.00    +0.000 A 
ENDBRANCH  10  11
ENDBRANCH   1  10
TORSDOF 2
ENDMDL
MODEL 9
REMARK VINA RESULT:    -3.909     30.951     32.297
REMARK INTER + INTRA:          -4.475
REMARK INTER:                  -4.330
REMARK INTRA:                  -0.146
REMARK UNBOUND:                -0.110
REMARK  Name = 1550473
REMARK  2 active torsions:
REMARK  status: ('A' for Active; 'I' for Inactive)
REMARK    1  A    between atoms: N_1  and  C_4
REMARK    2  A    between atoms: C_4  and  C_5
REMARK                            x       y       z     vdW  Elec       q    Type
REMARK                         _______ _______ _______ _____ _____    ______ ____
ROOT
ATOM      1  N   UNL     1       2.127  -8.093 -18.602  0.00  0.00    -0.354 N 
ATOM      2  N   UNL     1       4.242  -8.666 -19.351  0.00  0.00    -0.372 N 
ATOM      3  N   UNL     1       3.026 -10.214 -18.171  0.00  0.00    -0.372 N 
ATOM      4  C   UNL     1       3.117  -8.990 -18.702  0.00  0.00    +0.166 C 
ATOM      5  H   UNL     1       2.269  -7.172 -19.000  0.00  0.00    +0.163 HD
ATOM      6  H   UNL     1       5.005  -9.323 -19.445  0.00  0.00    +0.159 HD
ATOM      7  H   UNL     1       4.364  -7.761 -19.787  0.00  0.00    +0.159 HD
ATOM      8  H   UNL     1       2.206 -10.518 -17.663  0.00  0.00    +0.159 HD
ATOM      9  H   UNL     1       3.784 -10.881 -18.244  0.00  0.00    +0.159 HD
ENDROOT
BRANCH   1  10
ATOM     10  C   UNL     1       0.840  -8.364 -17.963  0.00  0.00    +0.151 C 
BRANCH  10  11
ATOM     11  C   UNL     1       0.553  -7.281 -16.959  0.00  0.00    -0.028 A 
ATOM     12  C   UNL     1       1.459  -7.012 -15.923  0.00  0.00    +0.005 A 
ATOM     13  C   UNL     1      -0.621  -6.517 -17.043  0.00  0.00    +0.005 A 
ATOM     14  C   UNL     1       1.208  -5.986 -15.009  0.00  0.00    +0.000 A 
ATOM     15  C   UNL     1      -0.869  -5.494 -16.127  0.00  0.00    +0.000 A 
ATOM     16  C   UNL     1       0.047  -5.228 -15.112  0.00  0.00    +0.000 A 
ENDBRANCH  10  11
ENDBRANCH   1  10
TORSDOF 2
ENDMDL
