MODEL 1
REMARK VINA RESULT:    -4.685      0.000      0.000
REMARK INTER + INTRA:          -5.363
REMARK INTER:                  -5.233
REMARK INTRA:                  -0.130
REMARK UNBOUND:                -0.130
REMARK  Name = 1550473
REMARK  2 active torsions:
REMARK  status: ('A' for Active; 'I' for Inactive)
REMARK    1  A    between atoms: N_1  and  C_4
REMARK    2  A    between atoms: C_4  and  C_5
REMARK                            x       y       z     vdW  Elec       q    Type
REMARK                         _______ _______ _______ _____ _____    ______ ____
ROOT
ATOM      1  N   UNL     1       6.865  19.072   6.535  0.00  0.00    -0.354 N 
ATOM      2  N   UNL     1       5.738  18.303   8.406  0.00  0.00    -0.372 N 
ATOM      3  N   UNL     1       7.809  17.440   7.926  0.00  0.00    -0.372 N 
ATOM      4  C   UNL     1       6.813  18.275   7.610  0.00  0.00    +0.166 C 
ATOM      5  H   UNL     1       6.065  19.661   6.333  0.00  0.00    +0.163 HD
ATOM      6  H   UNL     1       5.672  17.715   9.226  0.00  0.00    +0.159 HD
ATOM      7  H   UNL     1       4.959  18.925   8.227  0.00  0.00    +0.159 HD
ATOM      8  H   UNL     1       8.646  17.367   7.363  0.00  0.00    +0.159 HD
ATOM      9  H   UNL     1       7.757  16.835   8.736  0.00  0.00    +0.159 HD
ENDROOT
BRANCH   1  10
ATOM     10  C   UNL     1       8.013  19.157   5.634  0.00  0.00    +0.151 C 
BRANCH  10  11
ATOM     11  C   UNL     1       7.529  19.498   4.252  0.00  0.00    -0.028 A 
ATOM     12  C   UNL     1       8.403  20.060   3.310  0.00  0.00    +0.005 A 
ATOM     13  C   UNL     1       6.199  19.255   3.876  0.00  0.00    +0.005 A 
ATOM     14  C   UNL     1       7.961  20.348   2.016  0.00  0.00    +0.000 A 
ATOM     15  C   UNL     1       5.762  19.545   2.583  0.00  0.00    +0.000 A 
ATOM     16  C   UNL     1       6.644  20.089   1.653  0.00  0.00    +0.000 A 
ENDBRANCH  10  11
ENDBRANCH   1  10
TORSDOF 2
ENDMDL
MODEL 2
REMARK VINA RESULT:    -4.618      3.069      3.989
REMARK INTER + INTRA:          -5.289
REMARK INTER:                  -5.134
REMARK INTRA:                  -0.154
REMARK UNBOUND:                -0.130
REMARK  Name = 1550473
REMARK  2 active torsions:
REMARK  status: ('A' for Active; 'I' for Inactive)
REMARK    1  A    between atoms: N_1  and  C_4
REMARK    2  A    between atoms: C_4  and  C_5
REMARK                            x       y       z     vdW  Elec       q    Type
REMARK                         _______ _______ _______ _____ _____    ______ ____
ROOT
ATOM      1  N   UNL     1      10.826  19.700   4.318  0.00  0.00    -0.354 N 
ATOM      2  N   UNL     1      12.791  18.646   3.692  0.00  0.00    -0.372 N 
ATOM      3  N   UNL     1      11.282  17.501   4.987  0.00  0.00    -0.372 N 
ATOM      4  C   UNL     1      11.619  18.620   4.338  0.00  0.00    +0.166 C 
ATOM      5  H   UNL     1      11.152  20.528   3.833  0.00  0.00    +0.163 HD
ATOM      6  H   UNL     1      13.409  17.845   3.686  0.00  0.00    +0.159 HD
ATOM      7  H   UNL     1      13.093  19.459   3.169  0.00  0.00    +0.159 HD
ATOM      8  H   UNL     1      10.414  17.419   5.500  0.00  0.00    +0.159 HD
ATOM      9  H   UNL     1      11.893  16.693   5.003  0.00  0.00    +0.159 HD
ENDROOT
BRANCH   1  10
ATOM     10  C   UNL     1       9.506  19.757   4.945  0.00  0.00    +0.151 C 
BRANCH  10  11
ATOM     11  C   UNL     1       8.455  19.829   3.872  0.00  0.00    -0.028 A 
ATOM     12  C   UNL     1       7.150  19.382   4.123  0.00  0.00    +0.005 A 
ATOM     13  C   UNL     1       8.757  20.347   2.603  0.00  0.00    +0.005 A 
ATOM     14  C   UNL     1       6.165  19.476   3.136  0.00  0.00    +0.000 A 
ATOM     15  C   UNL     1       7.772  20.439   1.621  0.00  0.00    +0.000 A 
ATOM     16  C   UNL     1       6.476  20.006   1.888  0.00  0.00    +0.000 A 
ENDBRANCH  10  11
ENDBRANCH   1  10
TORSDOF 2
ENDMDL
MODEL 3
REMARK VINA RESULT:    -4.375     11.065     12.482
REMARK INTER + INTRA:          -5.017
REMARK INTER:                  -4.836
REMARK INTRA:                  -0.181
REMARK UNBOUND:                -0.130
REMARK  Name = 1550473
REMARK  2 active torsions:
REMARK  status: ('A' for Active; 'I' for Inactive)
REMARK    1  A    between atoms: N_1  and  C_4
REMARK    2  A    between atoms: C_4  and  C_5
REMARK                            x       y       z     vdW  Elec       q    Type
REMARK                         _______ _______ _______ _____ _____    ______ ____
ROOT
ATOM      1  N   UNL     1       6.679   9.661   9.281  0.00  0.00    -0.354 N 
ATOM      2  N   UNL     1       4.493  10.420   9.379  0.00  0.00    -0.372 N 
ATOM      3  N   UNL     1       4.928   8.222   9.876  0.00  0.00    -0.372 N 
ATOM      4  C   UNL     1       5.381   9.427   9.512  0.00  0.00    +0.166 C 
ATOM      5  H   UNL     1       6.955  10.589   8.978  0.00  0.00    +0.163 HD
ATOM      6  H   UNL     1       3.507  10.274   9.550  0.00  0.00    +0.159 HD
ATOM      7  H   UNL     1       4.777  11.357   9.121  0.00  0.00    +0.159 HD
ATOM      8  H   UNL     1       5.546   7.430   9.988  0.00  0.00    +0.159 HD
ATOM      9  H   UNL     1       3.944   8.054  10.041  0.00  0.00    +0.159 HD
ENDROOT
BRANCH   1  10
ATOM     10  C   UNL     1       7.733   8.662   9.449  0.00  0.00    +0.151 C 
BRANCH  10  11
ATOM     11  C   UNL     1       8.363   8.837  10.804  0.00  0.00    -0.028 A 
ATOM     12  C   UNL     1       8.948  10.060  11.165  0.00  0.00    +0.005 A 
ATOM     13  C   UNL     1       8.375   7.785  11.732  0.00  0.00    +0.005 A 
ATOM     14  C   UNL     1       9.506  10.232  12.434  0.00  0.00    +0.000 A 
ATOM     15  C   UNL     1       8.934   7.960  12.998  0.00  0.00    +0.000 A 
ATOM     16  C   UNL     1       9.498   9.184  13.349  0.00  0.00    +0.000 A 
ENDBRANCH  10  11
ENDBRANCH   1  10
TORSDOF 2
ENDMDL
MODEL 4
REMARK VINA RESULT:    -4.101     16.193     17.124
REMARK INTER + INTRA:          -4.711
REMARK INTER:                  -4.588
REMARK INTRA:                  -0.122
REMARK UNBOUND:                -0.130
REMARK  Name = 1550473
REMARK  2 active torsions:
REMARK  status: ('A' for Active; 'I' for Inactive)
REMARK    1  A    between atoms: N_1  and  C_4
REMARK    2  A    between atoms: C_4  and  C_5
REMARK                            x       y       z     vdW  Elec       q    Type
REMARK                         _______ _______ _______ _____ _____    ______ ____
ROOT
ATOM      1  N   UNL     1       4.454   8.761  -8.588  0.00  0.00    -0.354 N 
ATOM      2  N   UNL     1       5.210   6.572  -8.616  0.00  0.00    -0.372 N 
ATOM      3  N   UNL     1       6.690   8.263  -9.080  0.00  0.00    -0.372 N 
ATOM      4  C   UNL     1       5.449   7.881  -8.762  0.00  0.00    +0.166 C 
ATOM      5  H   UNL     1       3.528   8.405  -8.378  0.00  0.00    +0.163 HD
ATOM      6  H   UNL     1       5.942   5.885  -8.737  0.00  0.00    +0.159 HD
ATOM      7  H   UNL     1       4.295   6.223  -8.360  0.00  0.00    +0.159 HD
ATOM      8  H   UNL     1       6.934   9.236  -9.211  0.00  0.00    +0.159 HD
ATOM      9  H   UNL     1       7.433   7.590  -9.217  0.00  0.00    +0.159 HD
ENDROOT
BRANCH   1  10
ATOM     10  C   UNL     1       4.620  10.211  -8.672  0.00  0.00    +0.151 C 
BRANCH  10  11
ATOM     11  C   UNL     1       3.264  10.859  -8.720  0.00  0.00    -0.028 A 
ATOM     12  C   UNL     1       3.115  12.221  -8.418  0.00  0.00    +0.005 A 
ATOM     13  C   UNL     1       2.125  10.119  -9.071  0.00  0.00    +0.005 A 
ATOM     14  C   UNL     1       1.860  12.831  -8.491  0.00  0.00    +0.000 A 
ATOM     15  C   UNL     1       0.874  10.731  -9.142  0.00  0.00    +0.000 A 
ATOM     16  C   UNL     1       0.742  12.087  -8.854  0.00  0.00    +0.000 A 
ENDBRANCH  10  11
ENDBRANCH   1  10
TORSDOF 2
ENDMDL
MODEL 5
REMARK VINA RESULT:    -3.965      3.853      5.174
REMARK INTER + INTRA:          -4.559
REMARK INTER:                  -4.404
REMARK INTRA:                  -0.155
REMARK UNBOUND:                -0.130
REMARK  Name = 1550473
REMARK  2 active torsions:
REMARK  status: ('A' for Active; 'I' for Inactive)
REMARK    1  A    between atoms: N_1  and  C_4
REMARK    2  A    between atoms: C_4  and  C_5
REMARK                            x       y       z     vdW  Elec       q    Type
REMARK                         _______ _______ _______ _____ _____    ______ ____
ROOT
ATOM      1  N   UNL     1       7.257  21.594   1.419  0.00  0.00    -0.354 N 
ATOM      2  N   UNL     1       6.713  23.845   1.457  0.00  0.00    -0.372 N 
ATOM      3  N   UNL     1       5.030  22.295   1.633  0.00  0.00    -0.372 N 
ATOM      4  C   UNL     1       6.334  22.562   1.503  0.00  0.00    +0.166 C 
ATOM      5  H   UNL     1       8.226  21.863   1.291  0.00  0.00    +0.163 HD
ATOM      6  H   UNL     1       6.040  24.597   1.521  0.00  0.00    +0.159 HD
ATOM      7  H   UNL     1       7.686  24.111   1.376  0.00  0.00    +0.159 HD
ATOM      8  H   UNL     1       4.679  21.347   1.667  0.00  0.00    +0.159 HD
ATOM      9  H   UNL     1       4.340  23.033   1.687  0.00  0.00    +0.159 HD
ENDROOT
BRANCH   1  10
ATOM     10  C   UNL     1       6.955  20.167   1.512  0.00  0.00    +0.151 C 
BRANCH  10  11
ATOM     11  C   UNL     1       7.000  19.749   2.956  0.00  0.00    -0.028 A 
ATOM     12  C   UNL     1       8.197  19.830   3.684  0.00  0.00    +0.005 A 
ATOM     13  C   UNL     1       5.849  19.275   3.604  0.00  0.00    +0.005 A 
ATOM     14  C   UNL     1       8.233  19.470   5.033  0.00  0.00    +0.000 A 
ATOM     15  C   UNL     1       5.889  18.916   4.951  0.00  0.00    +0.000 A 
ATOM     16  C   UNL     1       7.080  19.016   5.666  0.00  0.00    +0.000 A 
ENDBRANCH  10  11
ENDBRANCH   1  10
TORSDOF 2
ENDMDL
MODEL 6
REMARK VINA RESULT:    -3.932     11.462     12.083
REMARK INTER + INTRA:          -4.522
REMARK INTER:                  -4.393
REMARK INTRA:                  -0.129
REMARK UNBOUND:                -0.130
REMARK  Name = 1550473
REMARK  2 active torsions:
REMARK  status: ('A' for Active; 'I' for Inactive)
REMARK    1  A    between atoms: N_1  and  C_4
REMARK    2  A    between atoms: C_4  and  C_5
REMARK                            x       y       z     vdW  Elec       q    Type
REMARK                         _______ _______ _______ _____ _____    ______ ____
ROOT
ATOM      1  N   UNL     1      16.746  13.401   1.867  0.00  0.00    -0.354 N 
ATOM      2  N   UNL     1      14.991  13.270   0.361  0.00  0.00    -0.372 N 
ATOM      3  N   UNL     1      15.242  11.605   1.920  0.00  0.00    -0.372 N 
ATOM      4  C   UNL     1      15.671  12.757   1.394  0.00  0.00    +0.166 C 
ATOM      5  H   UNL     1      17.038  14.255   1.405  0.00  0.00    +0.163 HD
ATOM      6  H   UNL     1      14.174  12.808  -0.015  0.00  0.00    +0.159 HD
ATOM      7  H   UNL     1      15.258  14.147  -0.069  0.00  0.00    +0.159 HD
ATOM      8  H   UNL     1      15.715  11.162   2.697  0.00  0.00    +0.159 HD
ATOM      9  H   UNL     1      14.433  11.121   1.550  0.00  0.00    +0.159 HD
ENDROOT
BRANCH   1  10
ATOM     10  C   UNL     1      17.524  12.955   3.022  0.00  0.00    +0.151 C 
BRANCH  10  11
ATOM     11  C   UNL     1      17.716  14.113   3.961  0.00  0.00    -0.028 A 
ATOM     12  C   UNL     1      17.958  15.402   3.463  0.00  0.00    +0.005 A 
ATOM     13  C   UNL     1      17.651  13.930   5.351  0.00  0.00    +0.005 A 
ATOM     14  C   UNL     1      18.107  16.483   4.335  0.00  0.00    +0.000 A 
ATOM     15  C   UNL     1      17.801  15.012   6.218  0.00  0.00    +0.000 A 
ATOM     16  C   UNL     1      18.026  16.289   5.710  0.00  0.00    +0.000 A 
ENDBRANCH  10  11
ENDBRANCH   1  10
TORSDOF 2
ENDMDL
MODEL 7
REMARK VINA RESULT:    -3.870     50.096     51.156
REMARK INTER + INTRA:          -4.453
REMARK INTER:                  -4.360
REMARK INTRA:                  -0.093
REMARK UNBOUND:                -0.130
REMARK  Name = 1550473
REMARK  2 active torsions:
REMARK  status: ('A' for Active; 'I' for Inactive)
REMARK    1  A    between atoms: N_1  and  C_4
REMARK    2  A    between atoms: C_4  and  C_5
REMARK                            x       y       z     vdW  Elec       q    Type
REMARK                         _______ _______ _______ _____ _____    ______ ____
ROOT
ATOM      1  N   UNL     1     -31.201  -7.328 -15.863  0.00  0.00    -0.354 N 
ATOM      2  N   UNL     1     -29.624  -8.780 -14.988  0.00  0.00    -0.372 N 
ATOM      3  N   UNL     1     -30.231  -8.999 -17.190  0.00  0.00    -0.372 N 
ATOM      4  C   UNL     1     -30.363  -8.360 -16.022  0.00  0.00    +0.166 C 
ATOM      5  H   UNL     1     -31.277  -6.906 -14.945  0.00  0.00    +0.163 HD
ATOM      6  H   UNL     1     -28.980  -9.555 -15.079  0.00  0.00    +0.159 HD
ATOM      7  H   UNL     1     -29.668  -8.328 -14.083  0.00  0.00    +0.159 HD
ATOM      8  H   UNL     1     -30.765  -8.734 -18.007  0.00  0.00    +0.159 HD
ATOM      9  H   UNL     1     -29.601  -9.783 -17.297  0.00  0.00    +0.159 HD
ENDROOT
BRANCH   1  10
ATOM     10  C   UNL     1     -32.010  -6.758 -16.939  0.00  0.00    +0.151 C 
BRANCH  10  11
ATOM     11  C   UNL     1     -32.636  -5.478 -16.459  0.00  0.00    -0.028 A 
ATOM     12  C   UNL     1     -31.908  -4.279 -16.476  0.00  0.00    +0.005 A 
ATOM     13  C   UNL     1     -33.959  -5.456 -15.990  0.00  0.00    +0.005 A 
ATOM     14  C   UNL     1     -32.499  -3.084 -16.058  0.00  0.00    +0.000 A 
ATOM     15  C   UNL     1     -34.544  -4.261 -15.573  0.00  0.00    +0.000 A 
ATOM     16  C   UNL     1     -33.815  -3.075 -15.609  0.00  0.00    +0.000 A 
ENDBRANCH  10  11
ENDBRANCH   1  10
TORSDOF 2
ENDMDL
MODEL 8
REMARK VINA RESULT:    -3.844     12.240     13.164
REMARK INTER + INTRA:          -4.423
REMARK INTER:                  -4.286
REMARK INTRA:                  -0.138
REMARK UNBOUND:                -0.130
REMARK  Name = 1550473
REMARK  2 active torsions:
REMARK  status: ('A' for Active; 'I' for Inactive)
REMARK    1  A    between atoms: N_1  and  C_4
REMARK    2  A    between atoms: C_4  and  C_5
REMARK                            x       y       z     vdW  Elec       q    Type
REMARK                         _______ _______ _______ _____ _____    ______ ____
ROOT
ATOM      1  N   UNL     1      18.028  13.900   4.193  0.00  0.00    -0.354 N 
ATOM      2  N   UNL     1      17.330  16.104   4.066  0.00  0.00    -0.372 N 
ATOM      3  N   UNL     1      17.247  15.030   6.092  0.00  0.00    -0.372 N 
ATOM      4  C   UNL     1      17.539  14.996   4.787  0.00  0.00    +0.166 C 
ATOM      5  H   UNL     1      18.200  13.929   3.195  0.00  0.00    +0.163 HD
ATOM      6  H   UNL     1      16.966  16.948   4.487  0.00  0.00    +0.159 HD
ATOM      7  H   UNL     1      17.547  16.146   3.078  0.00  0.00    +0.159 HD
ATOM      8  H   UNL     1      17.376  14.225   6.690  0.00  0.00    +0.159 HD
ATOM      9  H   UNL     1      16.870  15.861   6.529  0.00  0.00    +0.159 HD
ENDROOT
BRANCH   1  10
ATOM     10  C   UNL     1      18.342  12.658   4.899  0.00  0.00    +0.151 C 
BRANCH  10  11
ATOM     11  C   UNL     1      17.937  11.491   4.043  0.00  0.00    -0.028 A 
ATOM     12  C   UNL     1      17.168  11.688   2.886  0.00  0.00    +0.005 A 
ATOM     13  C   UNL     1      18.324  10.184   4.379  0.00  0.00    +0.005 A 
ATOM     14  C   UNL     1      16.818  10.607   2.074  0.00  0.00    +0.000 A 
ATOM     15  C   UNL     1      17.971   9.107   3.566  0.00  0.00    +0.000 A 
ATOM     16  C   UNL     1      17.220   9.319   2.412  0.00  0.00    +0.000 A 
ENDBRANCH  10  11
ENDBRANCH   1  10
TORSDOF 2
ENDMDL
MODEL 9
REMARK VINA RESULT:    -3.686     41.644     42.782
REMARK INTER + INTRA:          -4.247
REMARK INTER:                  -4.125
REMARK INTRA:                  -0.122
REMARK UNBOUND:                -0.130
REMARK  Name = 1550473
REMARK  2 active torsions:
REMARK  status: ('A' for Active; 'I' for Inactive)
REMARK    1  A    between atoms: N_1  and  C_4
REMARK    2  A    between atoms: C_4  and  C_5
REMARK                            x       y       z     vdW  Elec       q    Type
REMARK                         _______ _______ _______ _____ _____    ______ ____
ROOT
ATOM      1  N   UNL     1     -13.809  -6.426 -19.791  0.00  0.00    -0.354 N 
ATOM      2  N   UNL     1     -14.278  -4.525 -18.554  0.00  0.00    -0.372 N 
ATOM      3  N   UNL     1     -14.527  -4.454 -20.834  0.00  0.00    -0.372 N 
ATOM      4  C   UNL     1     -14.202  -5.146 -19.737  0.00  0.00    +0.166 C 
ATOM      5  H   UNL     1     -13.547  -6.886 -18.927  0.00  0.00    +0.163 HD
ATOM      6  H   UNL     1     -14.575  -3.561 -18.482  0.00  0.00    +0.159 HD
ATOM      7  H   UNL     1     -14.060  -5.001 -17.687  0.00  0.00    +0.159 HD
ATOM      8  H   UNL     1     -14.485  -4.863 -21.758  0.00  0.00    +0.159 HD
ATOM      9  H   UNL     1     -14.815  -3.485 -20.783  0.00  0.00    +0.159 HD
ENDROOT
BRANCH   1  10
ATOM     10  C   UNL     1     -13.744  -7.210 -21.024  0.00  0.00    +0.151 C 
BRANCH  10  11
ATOM     11  C   UNL     1     -13.831  -8.672 -20.681  0.00  0.00    -0.028 A 
ATOM     12  C   UNL     1     -14.636  -9.107 -19.618  0.00  0.00    +0.005 A 
ATOM     13  C   UNL     1     -13.115  -9.627 -21.419  0.00  0.00    +0.005 A 
ATOM     14  C   UNL     1     -14.741 -10.467 -19.319  0.00  0.00    +0.000 A 
ATOM     15  C   UNL     1     -13.222 -10.984 -21.116  0.00  0.00    +0.000 A 
ATOM     16  C   UNL     1     -14.036 -11.404 -20.068  0.00  0.00    +0.000 A 
ENDBRANCH  10  11
ENDBRANCH   1  10
TORSDOF 2
ENDMDL
