MODEL 1
REMARK VINA RESULT:    -4.248      0.000      0.000
REMARK INTER + INTRA:          -4.907
REMARK INTER:                  -4.745
REMARK INTRA:                  -0.162
REMARK UNBOUND:                -0.162
REMARK  Name = 1550473
REMARK  2 active torsions:
REMARK  status: ('A' for Active; 'I' for Inactive)
REMARK    1  A    between atoms: N_1  and  C_4
REMARK    2  A    between atoms: C_4  and  C_5
REMARK                            x       y       z     vdW  Elec       q    Type
REMARK                         _______ _______ _______ _____ _____    ______ ____
ROOT
ATOM      1  N   UNL     1      -2.043  -9.143 -10.389  0.00  0.00    -0.354 N 
ATOM      2  N   UNL     1      -0.652 -10.527  -9.159  0.00  0.00    -0.372 N 
ATOM      3  N   UNL     1       0.106  -8.448  -9.765  0.00  0.00    -0.372 N 
ATOM      4  C   UNL     1      -0.870  -9.361  -9.779  0.00  0.00    +0.166 C 
ATOM      5  H   UNL     1      -2.731  -9.887 -10.390  0.00  0.00    +0.163 HD
ATOM      6  H   UNL     1       0.221 -10.719  -8.687  0.00  0.00    +0.159 HD
ATOM      7  H   UNL     1      -1.359 -11.251  -9.122  0.00  0.00    +0.159 HD
ATOM      8  H   UNL     1       0.007  -7.550 -10.220  0.00  0.00    +0.159 HD
ATOM      9  H   UNL     1       0.992  -8.626  -9.309  0.00  0.00    +0.159 HD
ENDROOT
BRANCH   1  10
ATOM     10  C   UNL     1      -2.401  -7.887 -11.047  0.00  0.00    +0.151 C 
BRANCH  10  11
ATOM     11  C   UNL     1      -3.220  -7.053 -10.102  0.00  0.00    -0.028 A 
ATOM     12  C   UNL     1      -3.085  -5.657 -10.084  0.00  0.00    +0.005 A 
ATOM     13  C   UNL     1      -4.138  -7.652  -9.225  0.00  0.00    +0.005 A 
ATOM     14  C   UNL     1      -3.868  -4.879  -9.227  0.00  0.00    +0.000 A 
ATOM     15  C   UNL     1      -4.916  -6.872  -8.370  0.00  0.00    +0.000 A 
ATOM     16  C   UNL     1      -4.783  -5.486  -8.373  0.00  0.00    +0.000 A 
ENDBRANCH  10  11
ENDBRANCH   1  10
TORSDOF 2
ENDMDL
MODEL 2
REMARK VINA RESULT:    -3.966      5.409      7.833
REMARK INTER + INTRA:          -4.592
REMARK INTER:                  -4.410
REMARK INTRA:                  -0.182
REMARK UNBOUND:                -0.162
REMARK  Name = 1550473
REMARK  2 active torsions:
REMARK  status: ('A' for Active; 'I' for Inactive)
REMARK    1  A    between atoms: N_1  and  C_4
REMARK    2  A    between atoms: C_4  and  C_5
REMARK                            x       y       z     vdW  Elec       q    Type
REMARK                         _______ _______ _______ _____ _____    ______ ____
ROOT
ATOM      1  N   UNL     1      -0.788 -11.951 -11.624  0.00  0.00    -0.354 N 
ATOM      2  N   UNL     1      -0.410 -10.538  -9.829  0.00  0.00    -0.372 N 
ATOM      3  N   UNL     1       0.702 -12.543  -9.915  0.00  0.00    -0.372 N 
ATOM      4  C   UNL     1      -0.166 -11.689 -10.467  0.00  0.00    +0.166 C 
ATOM      5  H   UNL     1      -1.458 -11.276 -11.975  0.00  0.00    +0.163 HD
ATOM      6  H   UNL     1       0.047 -10.310  -8.956  0.00  0.00    +0.159 HD
ATOM      7  H   UNL     1      -1.045  -9.844 -10.205  0.00  0.00    +0.159 HD
ATOM      8  H   UNL     1       0.925 -13.431 -10.344  0.00  0.00    +0.159 HD
ATOM      9  H   UNL     1       1.160 -12.338  -9.036  0.00  0.00    +0.159 HD
ENDROOT
BRANCH   1  10
ATOM     10  C   UNL     1      -0.553 -13.151 -12.425  0.00  0.00    +0.151 C 
BRANCH  10  11
ATOM     11  C   UNL     1       0.352 -12.805 -13.576  0.00  0.00    -0.028 A 
ATOM     12  C   UNL     1       1.663 -13.301 -13.625  0.00  0.00    +0.005 A 
ATOM     13  C   UNL     1      -0.099 -11.985 -14.622  0.00  0.00    +0.005 A 
ATOM     14  C   UNL     1       2.493 -13.003 -14.708  0.00  0.00    +0.000 A 
ATOM     15  C   UNL     1       0.734 -11.690 -15.702  0.00  0.00    +0.000 A 
ATOM     16  C   UNL     1       2.029 -12.201 -15.745  0.00  0.00    +0.000 A 
ENDBRANCH  10  11
ENDBRANCH   1  10
TORSDOF 2
ENDMDL
MODEL 3
REMARK VINA RESULT:    -3.913     13.342     14.710
REMARK INTER + INTRA:          -4.532
REMARK INTER:                  -4.376
REMARK INTRA:                  -0.156
REMARK UNBOUND:                -0.162
REMARK  Name = 1550473
REMARK  2 active torsions:
REMARK  status: ('A' for Active; 'I' for Inactive)
REMARK    1  A    between atoms: N_1  and  C_4
REMARK    2  A    between atoms: C_4  and  C_5
REMARK                            x       y       z     vdW  Elec       q    Type
REMARK                         _______ _______ _______ _____ _____    ______ ____
ROOT
ATOM      1  N   UNL     1       5.529   2.691 -10.333  0.00  0.00    -0.354 N 
ATOM      2  N   UNL     1       4.931   3.944  -8.479  0.00  0.00    -0.372 N 
ATOM      3  N   UNL     1       3.489   3.841 -10.260  0.00  0.00    -0.372 N 
ATOM      4  C   UNL     1       4.651   3.484  -9.704  0.00  0.00    +0.166 C 
ATOM      5  H   UNL     1       6.406   2.482  -9.869  0.00  0.00    +0.163 HD
ATOM      6  H   UNL     1       4.287   4.541  -7.979  0.00  0.00    +0.159 HD
ATOM      7  H   UNL     1       5.788   3.696  -7.999  0.00  0.00    +0.159 HD
ATOM      8  H   UNL     1       3.220   3.533 -11.185  0.00  0.00    +0.159 HD
ATOM      9  H   UNL     1       2.836   4.448  -9.780  0.00  0.00    +0.159 HD
ENDROOT
BRANCH   1  10
ATOM     10  C   UNL     1       5.297   2.094 -11.647  0.00  0.00    +0.151 C 
BRANCH  10  11
ATOM     11  C   UNL     1       6.375   2.549 -12.590  0.00  0.00    -0.028 A 
ATOM     12  C   UNL     1       6.349   3.844 -13.130  0.00  0.00    +0.005 A 
ATOM     13  C   UNL     1       7.430   1.693 -12.944  0.00  0.00    +0.005 A 
ATOM     14  C   UNL     1       7.367   4.277 -13.983  0.00  0.00    +0.000 A 
ATOM     15  C   UNL     1       8.443   2.130 -13.797  0.00  0.00    +0.000 A 
ATOM     16  C   UNL     1       8.413   3.422 -14.314  0.00  0.00    +0.000 A 
ENDBRANCH  10  11
ENDBRANCH   1  10
TORSDOF 2
ENDMDL
MODEL 4
REMARK VINA RESULT:    -3.906     31.638     32.980
REMARK INTER + INTRA:          -4.525
REMARK INTER:                  -4.376
REMARK INTRA:                  -0.149
REMARK UNBOUND:                -0.162
REMARK  Name = 1550473
REMARK  2 active torsions:
REMARK  status: ('A' for Active; 'I' for Inactive)
REMARK    1  A    between atoms: N_1  and  C_4
REMARK    2  A    between atoms: C_4  and  C_5
REMARK                            x       y       z     vdW  Elec       q    Type
REMARK                         _______ _______ _______ _____ _____    ______ ____
ROOT
ATOM      1  N   UNL     1      -1.347  -5.738 -42.079  0.00  0.00    -0.354 N 
ATOM      2  N   UNL     1      -2.768  -3.912 -41.979  0.00  0.00    -0.372 N 
ATOM      3  N   UNL     1      -2.464  -5.185 -40.095  0.00  0.00    -0.372 N 
ATOM      4  C   UNL     1      -2.184  -4.958 -41.382  0.00  0.00    +0.166 C 
ATOM      5  H   UNL     1      -1.200  -5.531 -43.060  0.00  0.00    +0.163 HD
ATOM      6  H   UNL     1      -3.402  -3.304 -41.478  0.00  0.00    +0.159 HD
ATOM      7  H   UNL     1      -2.584  -3.680 -42.948  0.00  0.00    +0.159 HD
ATOM      8  H   UNL     1      -2.060  -5.961 -39.588  0.00  0.00    +0.159 HD
ATOM      9  H   UNL     1      -3.105  -4.594 -39.579  0.00  0.00    +0.159 HD
ENDROOT
BRANCH   1  10
ATOM     10  C   UNL     1      -0.618  -6.869 -41.508  0.00  0.00    +0.151 C 
BRANCH  10  11
ATOM     11  C   UNL     1      -1.029  -8.128 -42.221  0.00  0.00    -0.028 A 
ATOM     12  C   UNL     1      -1.954  -9.006 -41.638  0.00  0.00    +0.005 A 
ATOM     13  C   UNL     1      -0.501  -8.445 -43.482  0.00  0.00    +0.005 A 
ATOM     14  C   UNL     1      -2.358 -10.161 -42.313  0.00  0.00    +0.000 A 
ATOM     15  C   UNL     1      -0.907  -9.599 -44.152  0.00  0.00    +0.000 A 
ATOM     16  C   UNL     1      -1.837 -10.455 -43.568  0.00  0.00    +0.000 A 
ENDBRANCH  10  11
ENDBRANCH   1  10
TORSDOF 2
ENDMDL
MODEL 5
REMARK VINA RESULT:    -3.842      2.752      4.107
REMARK INTER + INTRA:          -4.453
REMARK INTER:                  -4.278
REMARK INTRA:                  -0.176
REMARK UNBOUND:                -0.162
REMARK  Name = 1550473
REMARK  2 active torsions:
REMARK  status: ('A' for Active; 'I' for Inactive)
REMARK    1  A    between atoms: N_1  and  C_4
REMARK    2  A    between atoms: C_4  and  C_5
REMARK                            x       y       z     vdW  Elec       q    Type
REMARK                         _______ _______ _______ _____ _____    ______ ____
ROOT
ATOM      1  N   UNL     1      -2.882  -6.823  -6.964  0.00  0.00    -0.354 N 
ATOM      2  N   UNL     1      -1.356  -7.355  -5.305  0.00  0.00    -0.372 N 
ATOM      3  N   UNL     1      -3.069  -8.816  -5.745  0.00  0.00    -0.372 N 
ATOM      4  C   UNL     1      -2.448  -7.663  -6.015  0.00  0.00    +0.166 C 
ATOM      5  H   UNL     1      -2.384  -5.951  -7.099  0.00  0.00    +0.163 HD
ATOM      6  H   UNL     1      -1.002  -7.971  -4.585  0.00  0.00    +0.159 HD
ATOM      7  H   UNL     1      -0.833  -6.504  -5.474  0.00  0.00    +0.159 HD
ATOM      8  H   UNL     1      -3.902  -9.104  -6.242  0.00  0.00    +0.159 HD
ATOM      9  H   UNL     1      -2.738  -9.440  -5.021  0.00  0.00    +0.159 HD
ENDROOT
BRANCH   1  10
ATOM     10  C   UNL     1      -4.029  -7.090  -7.830  0.00  0.00    +0.151 C 
BRANCH  10  11
ATOM     11  C   UNL     1      -3.546  -7.727  -9.103  0.00  0.00    -0.028 A 
ATOM     12  C   UNL     1      -3.977  -9.012  -9.464  0.00  0.00    +0.005 A 
ATOM     13  C   UNL     1      -2.662  -7.049  -9.956  0.00  0.00    +0.005 A 
ATOM     14  C   UNL     1      -3.551  -9.592 -10.662  0.00  0.00    +0.000 A 
ATOM     15  C   UNL     1      -2.239  -7.632 -11.150  0.00  0.00    +0.000 A 
ATOM     16  C   UNL     1      -2.686  -8.902 -11.504  0.00  0.00    +0.000 A 
ENDBRANCH  10  11
ENDBRANCH   1  10
TORSDOF 2
ENDMDL
MODEL 6
REMARK VINA RESULT:    -3.719     57.353     58.298
REMARK INTER + INTRA:          -4.316
REMARK INTER:                  -4.202
REMARK INTRA:                  -0.114
REMARK UNBOUND:                -0.162
REMARK  Name = 1550473
REMARK  2 active torsions:
REMARK  status: ('A' for Active; 'I' for Inactive)
REMARK    1  A    between atoms: N_1  and  C_4
REMARK    2  A    between atoms: C_4  and  C_5
REMARK                            x       y       z     vdW  Elec       q    Type
REMARK                         _______ _______ _______ _____ _____    ______ ____
ROOT
ATOM      1  N   UNL     1      11.237  10.393  42.402  0.00  0.00    -0.354 N 
ATOM      2  N   UNL     1       9.790   8.595  42.599  0.00  0.00    -0.372 N 
ATOM      3  N   UNL     1       8.921  10.718  42.556  0.00  0.00    -0.372 N 
ATOM      4  C   UNL     1       9.991   9.916  42.518  0.00  0.00    +0.166 C 
ATOM      5  H   UNL     1      12.007   9.734  42.409  0.00  0.00    +0.163 HD
ATOM      6  H   UNL     1       8.861   8.205  42.684  0.00  0.00    +0.159 HD
ATOM      7  H   UNL     1      10.559   7.936  42.560  0.00  0.00    +0.159 HD
ATOM      8  H   UNL     1       9.005  11.725  42.505  0.00  0.00    +0.159 HD
ATOM      9  H   UNL     1       7.984  10.348  42.652  0.00  0.00    +0.159 HD
ENDROOT
BRANCH   1  10
ATOM     10  C   UNL     1      11.559  11.811  42.252  0.00  0.00    +0.151 C 
BRANCH  10  11
ATOM     11  C   UNL     1      12.687  12.159  43.184  0.00  0.00    -0.028 A 
ATOM     12  C   UNL     1      13.963  11.609  42.994  0.00  0.00    +0.005 A 
ATOM     13  C   UNL     1      12.487  13.043  44.256  0.00  0.00    +0.005 A 
ATOM     14  C   UNL     1      15.019  11.955  43.842  0.00  0.00    +0.000 A 
ATOM     15  C   UNL     1      13.543  13.385  45.100  0.00  0.00    +0.000 A 
ATOM     16  C   UNL     1      14.809  12.843  44.891  0.00  0.00    +0.000 A 
ENDBRANCH  10  11
ENDBRANCH   1  10
TORSDOF 2
ENDMDL
MODEL 7
REMARK VINA RESULT:    -3.690     31.491     32.481
REMARK INTER + INTRA:          -4.283
REMARK INTER:                  -4.146
REMARK INTRA:                  -0.137
REMARK UNBOUND:                -0.162
REMARK  Name = 1550473
REMARK  2 active torsions:
REMARK  status: ('A' for Active; 'I' for Inactive)
REMARK    1  A    between atoms: N_1  and  C_4
REMARK    2  A    between atoms: C_4  and  C_5
REMARK                            x       y       z     vdW  Elec       q    Type
REMARK                         _______ _______ _______ _____ _____    ______ ____
ROOT
ATOM      1  N   UNL     1     -16.947  -3.820 -37.362  0.00  0.00    -0.354 N 
ATOM      2  N   UNL     1     -15.179  -2.620 -36.469  0.00  0.00    -0.372 N 
ATOM      3  N   UNL     1     -15.915  -2.104 -38.580  0.00  0.00    -0.372 N 
ATOM      4  C   UNL     1     -16.025  -2.854 -37.479  0.00  0.00    +0.166 C 
ATOM      5  H   UNL     1     -16.959  -4.374 -36.514  0.00  0.00    +0.163 HD
ATOM      6  H   UNL     1     -14.475  -1.896 -36.526  0.00  0.00    +0.159 HD
ATOM      7  H   UNL     1     -15.223  -3.145 -35.604  0.00  0.00    +0.159 HD
ATOM      8  H   UNL     1     -16.520  -2.234 -39.380  0.00  0.00    +0.159 HD
ATOM      9  H   UNL     1     -15.210  -1.382 -38.661  0.00  0.00    +0.159 HD
ENDROOT
BRANCH   1  10
ATOM     10  C   UNL     1     -17.950  -4.119 -38.382  0.00  0.00    +0.151 C 
BRANCH  10  11
ATOM     11  C   UNL     1     -18.072  -5.611 -38.528  0.00  0.00    -0.028 A 
ATOM     12  C   UNL     1     -17.433  -6.470 -37.622  0.00  0.00    +0.005 A 
ATOM     13  C   UNL     1     -18.831  -6.173 -39.567  0.00  0.00    +0.005 A 
ATOM     14  C   UNL     1     -17.570  -7.855 -37.739  0.00  0.00    +0.000 A 
ATOM     15  C   UNL     1     -18.965  -7.556 -39.681  0.00  0.00    +0.000 A 
ATOM     16  C   UNL     1     -18.336  -8.397 -38.765  0.00  0.00    +0.000 A 
ENDBRANCH  10  11
ENDBRANCH   1  10
TORSDOF 2
ENDMDL
MODEL 8
REMARK VINA RESULT:    -3.658     23.280     24.146
REMARK INTER + INTRA:          -4.248
REMARK INTER:                  -4.082
REMARK INTRA:                  -0.165
REMARK UNBOUND:                -0.162
REMARK  Name = 1550473
REMARK  2 active torsions:
REMARK  status: ('A' for Active; 'I' for Inactive)
REMARK    1  A    between atoms: N_1  and  C_4
REMARK    2  A    between atoms: C_4  and  C_5
REMARK                            x       y       z     vdW  Elec       q    Type
REMARK                         _______ _______ _______ _____ _____    ______ ____
ROOT
ATOM      1  N   UNL     1      -8.080  -1.781 -31.242  0.00  0.00    -0.354 N 
ATOM      2  N   UNL     1      -6.344  -0.713 -32.344  0.00  0.00    -0.372 N 
ATOM      3  N   UNL     1      -6.925  -2.839 -32.985  0.00  0.00    -0.372 N 
ATOM      4  C   UNL     1      -7.127  -1.787 -32.184  0.00  0.00    +0.166 C 
ATOM      5  H   UNL     1      -8.163  -0.964 -30.647  0.00  0.00    +0.163 HD
ATOM      6  H   UNL     1      -5.620  -0.688 -33.049  0.00  0.00    +0.159 HD
ATOM      7  H   UNL     1      -6.460   0.119 -31.778  0.00  0.00    +0.159 HD
ATOM      8  H   UNL     1      -7.478  -3.682 -32.912  0.00  0.00    +0.159 HD
ATOM      9  H   UNL     1      -6.197  -2.837 -33.689  0.00  0.00    +0.159 HD
ENDROOT
BRANCH   1  10
ATOM     10  C   UNL     1      -9.020  -2.878 -31.022  0.00  0.00    +0.151 C 
BRANCH  10  11
ATOM     11  C   UNL     1     -10.401  -2.427 -31.411  0.00  0.00    -0.028 A 
ATOM     12  C   UNL     1     -11.340  -2.080 -30.429  0.00  0.00    +0.005 A 
ATOM     13  C   UNL     1     -10.775  -2.338 -32.761  0.00  0.00    +0.005 A 
ATOM     14  C   UNL     1     -12.613  -1.632 -30.791  0.00  0.00    +0.000 A 
ATOM     15  C   UNL     1     -12.047  -1.892 -33.118  0.00  0.00    +0.000 A 
ATOM     16  C   UNL     1     -12.965  -1.536 -32.133  0.00  0.00    +0.000 A 
ENDBRANCH  10  11
ENDBRANCH   1  10
TORSDOF 2
ENDMDL
MODEL 9
REMARK VINA RESULT:    -3.636     17.665     18.547
REMARK INTER + INTRA:          -4.223
REMARK INTER:                  -4.096
REMARK INTRA:                  -0.127
REMARK UNBOUND:                -0.162
REMARK  Name = 1550473
REMARK  2 active torsions:
REMARK  status: ('A' for Active; 'I' for Inactive)
REMARK    1  A    between atoms: N_1  and  C_4
REMARK    2  A    between atoms: C_4  and  C_5
REMARK                            x       y       z     vdW  Elec       q    Type
REMARK                         _______ _______ _______ _____ _____    ______ ____
ROOT
ATOM      1  N   UNL     1       3.546 -11.455 -27.096  0.00  0.00    -0.354 N 
ATOM      2  N   UNL     1       3.508  -9.154 -27.356  0.00  0.00    -0.372 N 
ATOM      3  N   UNL     1       1.733 -10.387 -28.127  0.00  0.00    -0.372 N 
ATOM      4  C   UNL     1       2.927 -10.348 -27.526  0.00  0.00    +0.166 C 
ATOM      5  H   UNL     1       4.464 -11.360 -26.675  0.00  0.00    +0.163 HD
ATOM      6  H   UNL     1       3.063  -8.301 -27.667  0.00  0.00    +0.159 HD
ATOM      7  H   UNL     1       4.404  -9.058 -26.894  0.00  0.00    +0.159 HD
ATOM      8  H   UNL     1       1.244 -11.257 -28.290  0.00  0.00    +0.159 HD
ATOM      9  H   UNL     1       1.277  -9.545 -28.455  0.00  0.00    +0.159 HD
ENDROOT
BRANCH   1  10
ATOM     10  C   UNL     1       2.976 -12.798 -27.184  0.00  0.00    +0.151 C 
BRANCH  10  11
ATOM     11  C   UNL     1       3.169 -13.500 -25.868  0.00  0.00    -0.028 A 
ATOM     12  C   UNL     1       4.342 -13.310 -25.125  0.00  0.00    +0.005 A 
ATOM     13  C   UNL     1       2.179 -14.354 -25.357  0.00  0.00    +0.005 A 
ATOM     14  C   UNL     1       4.509 -13.939 -23.888  0.00  0.00    +0.000 A 
ATOM     15  C   UNL     1       2.349 -14.981 -24.123  0.00  0.00    +0.000 A 
ATOM     16  C   UNL     1       3.513 -14.771 -23.388  0.00  0.00    +0.000 A 
ENDBRANCH  10  11
ENDBRANCH   1  10
TORSDOF 2
ENDMDL
