MODEL 1
REMARK VINA RESULT:    -5.432      0.000      0.000
REMARK INTER + INTRA:          -6.231
REMARK INTER:                  -6.067
REMARK INTRA:                  -0.164
REMARK UNBOUND:                -0.164
REMARK  Name = 1550473
REMARK  2 active torsions:
REMARK  status: ('A' for Active; 'I' for Inactive)
REMARK    1  A    between atoms: N_1  and  C_4
REMARK    2  A    between atoms: C_4  and  C_5
REMARK                            x       y       z     vdW  Elec       q    Type
REMARK                         _______ _______ _______ _____ _____    ______ ____
ROOT
ATOM      1  N   UNL     1      11.596  -3.819  13.644  0.00  0.00    -0.354 N 
ATOM      2  N   UNL     1      12.363  -1.765  14.392  0.00  0.00    -0.372 N 
ATOM      3  N   UNL     1      12.326  -2.180  12.135  0.00  0.00    -0.372 N 
ATOM      4  C   UNL     1      12.091  -2.601  13.383  0.00  0.00    +0.166 C 
ATOM      5  H   UNL     1      11.468  -4.089  14.613  0.00  0.00    +0.163 HD
ATOM      6  H   UNL     1      12.733  -0.839  14.225  0.00  0.00    +0.159 HD
ATOM      7  H   UNL     1      12.191  -2.020  15.357  0.00  0.00    +0.159 HD
ATOM      8  H   UNL     1      12.147  -2.766  11.330  0.00  0.00    +0.159 HD
ATOM      9  H   UNL     1      12.708  -1.262  11.949  0.00  0.00    +0.159 HD
ENDROOT
BRANCH   1  10
ATOM     10  C   UNL     1      11.215  -4.785  12.615  0.00  0.00    +0.151 C 
BRANCH  10  11
ATOM     11  C   UNL     1       9.715  -4.851  12.534  0.00  0.00    -0.028 A 
ATOM     12  C   UNL     1       9.014  -5.891  13.161  0.00  0.00    +0.005 A 
ATOM     13  C   UNL     1       8.989  -3.873  11.837  0.00  0.00    +0.005 A 
ATOM     14  C   UNL     1       7.618  -5.936  13.112  0.00  0.00    +0.000 A 
ATOM     15  C   UNL     1       7.596  -3.922  11.790  0.00  0.00    +0.000 A 
ATOM     16  C   UNL     1       6.911  -4.953  12.429  0.00  0.00    +0.000 A 
ENDBRANCH  10  11
ENDBRANCH   1  10
TORSDOF 2
ENDMDL
MODEL 2
REMARK VINA RESULT:    -5.122      1.235      2.099
REMARK INTER + INTRA:          -5.885
REMARK INTER:                  -5.777
REMARK INTRA:                  -0.108
REMARK UNBOUND:                -0.164
REMARK  Name = 1550473
REMARK  2 active torsions:
REMARK  status: ('A' for Active; 'I' for Inactive)
REMARK    1  A    between atoms: N_1  and  C_4
REMARK    2  A    between atoms: C_4  and  C_5
REMARK                            x       y       z     vdW  Elec       q    Type
REMARK                         _______ _______ _______ _____ _____    ______ ____
ROOT
ATOM      1  N   UNL     1      10.589  -4.248  12.514  0.00  0.00    -0.354 N 
ATOM      2  N   UNL     1      12.760  -3.875  13.228  0.00  0.00    -0.372 N 
ATOM      3  N   UNL     1      11.792  -2.371  11.791  0.00  0.00    -0.372 N 
ATOM      4  C   UNL     1      11.699  -3.498  12.504  0.00  0.00    +0.166 C 
ATOM      5  H   UNL     1      10.593  -5.107  13.051  0.00  0.00    +0.163 HD
ATOM      6  H   UNL     1      13.611  -3.328  13.243  0.00  0.00    +0.159 HD
ATOM      7  H   UNL     1      12.746  -4.710  13.801  0.00  0.00    +0.159 HD
ATOM      8  H   UNL     1      11.028  -2.035  11.219  0.00  0.00    +0.159 HD
ATOM      9  H   UNL     1      12.638  -1.816  11.784  0.00  0.00    +0.159 HD
ENDROOT
BRANCH   1  10
ATOM     10  C   UNL     1       9.360  -3.899  11.803  0.00  0.00    +0.151 C 
BRANCH  10  11
ATOM     11  C   UNL     1       8.242  -4.776  12.295  0.00  0.00    -0.028 A 
ATOM     12  C   UNL     1       6.972  -4.237  12.548  0.00  0.00    +0.005 A 
ATOM     13  C   UNL     1       8.445  -6.149  12.504  0.00  0.00    +0.005 A 
ATOM     14  C   UNL     1       5.925  -5.057  12.976  0.00  0.00    +0.000 A 
ATOM     15  C   UNL     1       7.397  -6.964  12.932  0.00  0.00    +0.000 A 
ATOM     16  C   UNL     1       6.137  -6.418  13.165  0.00  0.00    +0.000 A 
ENDBRANCH  10  11
ENDBRANCH   1  10
TORSDOF 2
ENDMDL
MODEL 3
REMARK VINA RESULT:    -5.007      9.535     10.436
REMARK INTER + INTRA:          -5.756
REMARK INTER:                  -5.579
REMARK INTRA:                  -0.177
REMARK UNBOUND:                -0.164
REMARK  Name = 1550473
REMARK  2 active torsions:
REMARK  status: ('A' for Active; 'I' for Inactive)
REMARK    1  A    between atoms: N_1  and  C_4
REMARK    2  A    between atoms: C_4  and  C_5
REMARK                            x       y       z     vdW  Elec       q    Type
REMARK                         _______ _______ _______ _____ _____    ______ ____
ROOT
ATOM      1  N   UNL     1       4.582   2.609  16.287  0.00  0.00    -0.354 N 
ATOM      2  N   UNL     1       2.832   4.019  15.729  0.00  0.00    -0.372 N 
ATOM      3  N   UNL     1       4.983   4.794  15.542  0.00  0.00    -0.372 N 
ATOM      4  C   UNL     1       4.146   3.800  15.856  0.00  0.00    +0.166 C 
ATOM      5  H   UNL     1       3.895   1.906  16.538  0.00  0.00    +0.163 HD
ATOM      6  H   UNL     1       2.473   4.906  15.403  0.00  0.00    +0.159 HD
ATOM      7  H   UNL     1       2.149   3.300  15.936  0.00  0.00    +0.159 HD
ATOM      8  H   UNL     1       5.987   4.694  15.621  0.00  0.00    +0.159 HD
ATOM      9  H   UNL     1       4.643   5.693  15.225  0.00  0.00    +0.159 HD
ENDROOT
BRANCH   1  10
ATOM     10  C   UNL     1       5.994   2.250  16.409  0.00  0.00    +0.151 C 
BRANCH  10  11
ATOM     11  C   UNL     1       6.425   2.432  17.839  0.00  0.00    -0.028 A 
ATOM     12  C   UNL     1       7.253   3.505  18.201  0.00  0.00    +0.005 A 
ATOM     13  C   UNL     1       6.005   1.538  18.836  0.00  0.00    +0.005 A 
ATOM     14  C   UNL     1       7.629   3.692  19.534  0.00  0.00    +0.000 A 
ATOM     15  C   UNL     1       6.384   1.728  20.165  0.00  0.00    +0.000 A 
ATOM     16  C   UNL     1       7.193   2.806  20.514  0.00  0.00    +0.000 A 
ENDBRANCH  10  11
ENDBRANCH   1  10
TORSDOF 2
ENDMDL
MODEL 4
REMARK VINA RESULT:    -4.998      3.204      4.849
REMARK INTER + INTRA:          -5.746
REMARK INTER:                  -5.576
REMARK INTRA:                  -0.170
REMARK UNBOUND:                -0.164
REMARK  Name = 1550473
REMARK  2 active torsions:
REMARK  status: ('A' for Active; 'I' for Inactive)
REMARK    1  A    between atoms: N_1  and  C_4
REMARK    2  A    between atoms: C_4  and  C_5
REMARK                            x       y       z     vdW  Elec       q    Type
REMARK                         _______ _______ _______ _____ _____    ______ ____
ROOT
ATOM      1  N   UNL     1       6.886  -3.985  11.993  0.00  0.00    -0.354 N 
ATOM      2  N   UNL     1       5.232  -2.716  13.003  0.00  0.00    -0.372 N 
ATOM      3  N   UNL     1       5.759  -4.763  13.895  0.00  0.00    -0.372 N 
ATOM      4  C   UNL     1       5.970  -3.832  12.958  0.00  0.00    +0.166 C 
ATOM      5  H   UNL     1       6.977  -3.255  11.296  0.00  0.00    +0.163 HD
ATOM      6  H   UNL     1       4.535  -2.571  13.721  0.00  0.00    +0.159 HD
ATOM      7  H   UNL     1       5.356  -1.968  12.331  0.00  0.00    +0.159 HD
ATOM      8  H   UNL     1       6.279  -5.631  13.913  0.00  0.00    +0.159 HD
ATOM      9  H   UNL     1       5.058  -4.642  14.615  0.00  0.00    +0.159 HD
ENDROOT
BRANCH   1  10
ATOM     10  C   UNL     1       7.778  -5.138  11.888  0.00  0.00    +0.151 C 
BRANCH  10  11
ATOM     11  C   UNL     1       9.155  -4.737  12.340  0.00  0.00    -0.028 A 
ATOM     12  C   UNL     1       9.819  -3.661  11.732  0.00  0.00    +0.005 A 
ATOM     13  C   UNL     1       9.799  -5.425  13.381  0.00  0.00    +0.005 A 
ATOM     14  C   UNL     1      11.086  -3.270  12.173  0.00  0.00    +0.000 A 
ATOM     15  C   UNL     1      11.064  -5.031  13.817  0.00  0.00    +0.000 A 
ATOM     16  C   UNL     1      11.706  -3.952  13.214  0.00  0.00    +0.000 A 
ENDBRANCH  10  11
ENDBRANCH   1  10
TORSDOF 2
ENDMDL
MODEL 5
REMARK VINA RESULT:    -4.856     24.301     25.079
REMARK INTER + INTRA:          -5.588
REMARK INTER:                  -5.410
REMARK INTRA:                  -0.177
REMARK UNBOUND:                -0.164
REMARK  Name = 1550473
REMARK  2 active torsions:
REMARK  status: ('A' for Active; 'I' for Inactive)
REMARK    1  A    between atoms: N_1  and  C_4
REMARK    2  A    between atoms: C_4  and  C_5
REMARK                            x       y       z     vdW  Elec       q    Type
REMARK                         _______ _______ _______ _____ _____    ______ ____
ROOT
ATOM      1  N   UNL     1     -10.020   4.012  -0.315  0.00  0.00    -0.354 N 
ATOM      2  N   UNL     1      -8.833   5.276   1.220  0.00  0.00    -0.372 N 
ATOM      3  N   UNL     1     -11.028   4.772   1.659  0.00  0.00    -0.372 N 
ATOM      4  C   UNL     1      -9.971   4.679   0.846  0.00  0.00    +0.166 C 
ATOM      5  H   UNL     1      -9.193   4.004  -0.901  0.00  0.00    +0.163 HD
ATOM      6  H   UNL     1      -8.764   5.783   2.092  0.00  0.00    +0.159 HD
ATOM      7  H   UNL     1      -7.994   5.228   0.654  0.00  0.00    +0.159 HD
ATOM      8  H   UNL     1     -11.917   4.348   1.432  0.00  0.00    +0.159 HD
ATOM      9  H   UNL     1     -10.982   5.285   2.531  0.00  0.00    +0.159 HD
ENDROOT
BRANCH   1  10
ATOM     10  C   UNL     1     -11.194   3.281  -0.789  0.00  0.00    +0.151 C 
BRANCH  10  11
ATOM     11  C   UNL     1     -10.954   1.806  -0.624  0.00  0.00    -0.028 A 
ATOM     12  C   UNL     1     -10.159   1.107  -1.545  0.00  0.00    +0.005 A 
ATOM     13  C   UNL     1     -11.514   1.102   0.453  0.00  0.00    +0.005 A 
ATOM     14  C   UNL     1      -9.911  -0.258  -1.375  0.00  0.00    +0.000 A 
ATOM     15  C   UNL     1     -11.264  -0.260   0.618  0.00  0.00    +0.000 A 
ATOM     16  C   UNL     1     -10.461  -0.939  -0.295  0.00  0.00    +0.000 A 
ENDBRANCH  10  11
ENDBRANCH   1  10
TORSDOF 2
ENDMDL
MODEL 6
REMARK VINA RESULT:    -4.787     27.058     28.214
REMARK INTER + INTRA:          -5.511
REMARK INTER:                  -5.384
REMARK INTRA:                  -0.127
REMARK UNBOUND:                -0.164
REMARK  Name = 1550473
REMARK  2 active torsions:
REMARK  status: ('A' for Active; 'I' for Inactive)
REMARK    1  A    between atoms: N_1  and  C_4
REMARK    2  A    between atoms: C_4  and  C_5
REMARK                            x       y       z     vdW  Elec       q    Type
REMARK                         _______ _______ _______ _____ _____    ______ ____
ROOT
ATOM      1  N   UNL     1     -14.850   5.954   5.416  0.00  0.00    -0.354 N 
ATOM      2  N   UNL     1     -14.295   4.356   3.834  0.00  0.00    -0.372 N 
ATOM      3  N   UNL     1     -16.488   5.001   4.037  0.00  0.00    -0.372 N 
ATOM      4  C   UNL     1     -15.218   5.114   4.439  0.00  0.00    +0.166 C 
ATOM      5  H   UNL     1     -13.876   5.971   5.695  0.00  0.00    +0.163 HD
ATOM      6  H   UNL     1     -14.542   3.715   3.092  0.00  0.00    +0.159 HD
ATOM      7  H   UNL     1     -13.315   4.408   4.084  0.00  0.00    +0.159 HD
ATOM      8  H   UNL     1     -17.233   5.540   4.458  0.00  0.00    +0.159 HD
ATOM      9  H   UNL     1     -16.757   4.357   3.304  0.00  0.00    +0.159 HD
ENDROOT
BRANCH   1  10
ATOM     10  C   UNL     1     -15.768   6.862   6.102  0.00  0.00    +0.151 C 
BRANCH  10  11
ATOM     11  C   UNL     1     -15.668   6.633   7.585  0.00  0.00    -0.028 A 
ATOM     12  C   UNL     1     -14.453   6.835   8.257  0.00  0.00    +0.005 A 
ATOM     13  C   UNL     1     -16.786   6.219   8.325  0.00  0.00    +0.005 A 
ATOM     14  C   UNL     1     -14.368   6.652   9.639  0.00  0.00    +0.000 A 
ATOM     15  C   UNL     1     -16.696   6.036   9.705  0.00  0.00    +0.000 A 
ATOM     16  C   UNL     1     -15.488   6.255  10.362  0.00  0.00    +0.000 A 
ENDBRANCH  10  11
ENDBRANCH   1  10
TORSDOF 2
ENDMDL
MODEL 7
REMARK VINA RESULT:    -4.704      3.587      4.837
REMARK INTER + INTRA:          -5.418
REMARK INTER:                  -5.238
REMARK INTRA:                  -0.180
REMARK UNBOUND:                -0.164
REMARK  Name = 1550473
REMARK  2 active torsions:
REMARK  status: ('A' for Active; 'I' for Inactive)
REMARK    1  A    between atoms: N_1  and  C_4
REMARK    2  A    between atoms: C_4  and  C_5
REMARK                            x       y       z     vdW  Elec       q    Type
REMARK                         _______ _______ _______ _____ _____    ______ ____
ROOT
ATOM      1  N   UNL     1       6.860  -6.319  13.845  0.00  0.00    -0.354 N 
ATOM      2  N   UNL     1       5.278  -5.567  15.361  0.00  0.00    -0.372 N 
ATOM      3  N   UNL     1       5.134  -4.881  13.176  0.00  0.00    -0.372 N 
ATOM      4  C   UNL     1       5.767  -5.592  14.115  0.00  0.00    +0.166 C 
ATOM      5  H   UNL     1       7.311  -6.811  14.607  0.00  0.00    +0.163 HD
ATOM      6  H   UNL     1       4.454  -5.030  15.595  0.00  0.00    +0.159 HD
ATOM      7  H   UNL     1       5.704  -6.097  16.111  0.00  0.00    +0.159 HD
ATOM      8  H   UNL     1       5.456  -4.853  12.218  0.00  0.00    +0.159 HD
ATOM      9  H   UNL     1       4.314  -4.328  13.393  0.00  0.00    +0.159 HD
ENDROOT
BRANCH   1  10
ATOM     10  C   UNL     1       7.440  -6.456  12.510  0.00  0.00    +0.151 C 
BRANCH  10  11
ATOM     11  C   UNL     1       8.633  -5.548  12.398  0.00  0.00    -0.028 A 
ATOM     12  C   UNL     1       9.871  -5.927  12.939  0.00  0.00    +0.005 A 
ATOM     13  C   UNL     1       8.535  -4.309  11.747  0.00  0.00    +0.005 A 
ATOM     14  C   UNL     1      10.987  -5.097  12.808  0.00  0.00    +0.000 A 
ATOM     15  C   UNL     1       9.651  -3.482  11.619  0.00  0.00    +0.000 A 
ATOM     16  C   UNL     1      10.877  -3.878  12.148  0.00  0.00    +0.000 A 
ENDBRANCH  10  11
ENDBRANCH   1  10
TORSDOF 2
ENDMDL
MODEL 8
REMARK VINA RESULT:    -4.628      3.236      5.069
REMARK INTER + INTRA:          -5.333
REMARK INTER:                  -5.223
REMARK INTRA:                  -0.110
REMARK UNBOUND:                -0.164
REMARK  Name = 1550473
REMARK  2 active torsions:
REMARK  status: ('A' for Active; 'I' for Inactive)
REMARK    1  A    between atoms: N_1  and  C_4
REMARK    2  A    between atoms: C_4  and  C_5
REMARK                            x       y       z     vdW  Elec       q    Type
REMARK                         _______ _______ _______ _____ _____    ______ ____
ROOT
ATOM      1  N   UNL     1       8.790  -6.939  12.547  0.00  0.00    -0.354 N 
ATOM      2  N   UNL     1       8.293  -9.200  12.636  0.00  0.00    -0.372 N 
ATOM      3  N   UNL     1       6.630  -7.681  13.074  0.00  0.00    -0.372 N 
ATOM      4  C   UNL     1       7.905  -7.924  12.753  0.00  0.00    +0.166 C 
ATOM      5  H   UNL     1       9.749  -7.190  12.335  0.00  0.00    +0.163 HD
ATOM      6  H   UNL     1       7.648  -9.964  12.782  0.00  0.00    +0.159 HD
ATOM      7  H   UNL     1       9.242  -9.447  12.380  0.00  0.00    +0.159 HD
ATOM      8  H   UNL     1       6.275  -6.740  13.183  0.00  0.00    +0.159 HD
ATOM      9  H   UNL     1       5.972  -8.433  13.236  0.00  0.00    +0.159 HD
ENDROOT
BRANCH   1  10
ATOM     10  C   UNL     1       8.456  -5.517  12.596  0.00  0.00    +0.151 C 
BRANCH  10  11
ATOM     11  C   UNL     1       9.701  -4.731  12.902  0.00  0.00    -0.028 A 
ATOM     12  C   UNL     1      10.385  -4.922  14.111  0.00  0.00    +0.005 A 
ATOM     13  C   UNL     1      10.204  -3.797  11.984  0.00  0.00    +0.005 A 
ATOM     14  C   UNL     1      11.558  -4.214  14.383  0.00  0.00    +0.000 A 
ATOM     15  C   UNL     1      11.375  -3.091  12.259  0.00  0.00    +0.000 A 
ATOM     16  C   UNL     1      12.053  -3.301  13.457  0.00  0.00    +0.000 A 
ENDBRANCH  10  11
ENDBRANCH   1  10
TORSDOF 2
ENDMDL
MODEL 9
REMARK VINA RESULT:    -4.510     11.058     13.016
REMARK INTER + INTRA:          -5.201
REMARK INTER:                  -5.107
REMARK INTRA:                  -0.094
REMARK UNBOUND:                -0.164
REMARK  Name = 1550473
REMARK  2 active torsions:
REMARK  status: ('A' for Active; 'I' for Inactive)
REMARK    1  A    between atoms: N_1  and  C_4
REMARK    2  A    between atoms: C_4  and  C_5
REMARK                            x       y       z     vdW  Elec       q    Type
REMARK                         _______ _______ _______ _____ _____    ______ ____
ROOT
ATOM      1  N   UNL     1      14.670   5.671  17.394  0.00  0.00    -0.354 N 
ATOM      2  N   UNL     1      15.429   4.337  19.129  0.00  0.00    -0.372 N 
ATOM      3  N   UNL     1      14.347   3.350  17.363  0.00  0.00    -0.372 N 
ATOM      4  C   UNL     1      14.809   4.459  17.949  0.00  0.00    +0.166 C 
ATOM      5  H   UNL     1      15.015   6.476  17.903  0.00  0.00    +0.163 HD
ATOM      6  H   UNL     1      15.552   3.436  19.570  0.00  0.00    +0.159 HD
ATOM      7  H   UNL     1      15.814   5.139  19.614  0.00  0.00    +0.159 HD
ATOM      8  H   UNL     1      13.864   3.374  16.475  0.00  0.00    +0.159 HD
ATOM      9  H   UNL     1      14.450   2.440  17.795  0.00  0.00    +0.159 HD
ENDROOT
BRANCH   1  10
ATOM     10  C   UNL     1      14.058   5.906  16.088  0.00  0.00    +0.151 C 
BRANCH  10  11
ATOM     11  C   UNL     1      14.481   7.258  15.584  0.00  0.00    -0.028 A 
ATOM     12  C   UNL     1      15.631   7.396  14.793  0.00  0.00    +0.005 A 
ATOM     13  C   UNL     1      13.732   8.405  15.888  0.00  0.00    +0.005 A 
ATOM     14  C   UNL     1      16.008   8.647  14.300  0.00  0.00    +0.000 A 
ATOM     15  C   UNL     1      14.111   9.653  15.394  0.00  0.00    +0.000 A 
ATOM     16  C   UNL     1      15.248   9.773  14.598  0.00  0.00    +0.000 A 
ENDBRANCH  10  11
ENDBRANCH   1  10
TORSDOF 2
ENDMDL
