MODEL 1
REMARK VINA RESULT:    -6.801      0.000      0.000
REMARK INTER + INTRA:          -7.729
REMARK INTER:                  -7.596
REMARK INTRA:                  -0.133
REMARK UNBOUND:                -0.133
REMARK  Name = 1550473
REMARK  2 active torsions:
REMARK  status: ('A' for Active; 'I' for Inactive)
REMARK    1  A    between atoms: N_1  and  C_4
REMARK    2  A    between atoms: C_4  and  C_5
REMARK                            x       y       z     vdW  Elec       q    Type
REMARK                         _______ _______ _______ _____ _____    ______ ____
ROOT
ATOM      1  N   UNL     1      -3.349   1.908  -3.036  0.00  0.00    -0.354 N 
ATOM      2  N   UNL     1      -3.224   3.025  -1.011  0.00  0.00    -0.372 N 
ATOM      3  N   UNL     1      -5.205   3.046  -2.168  0.00  0.00    -0.372 N 
ATOM      4  C   UNL     1      -3.930   2.653  -2.086  0.00  0.00    +0.166 C 
ATOM      5  H   UNL     1      -2.370   1.668  -2.929  0.00  0.00    +0.163 HD
ATOM      6  H   UNL     1      -3.636   3.585  -0.276  0.00  0.00    +0.159 HD
ATOM      7  H   UNL     1      -2.259   2.746  -0.884  0.00  0.00    +0.159 HD
ATOM      8  H   UNL     1      -5.790   2.804  -2.957  0.00  0.00    +0.159 HD
ATOM      9  H   UNL     1      -5.632   3.616  -1.449  0.00  0.00    +0.159 HD
ENDROOT
BRANCH   1  10
ATOM     10  C   UNL     1      -4.045   1.405  -4.219  0.00  0.00    +0.151 C 
BRANCH  10  11
ATOM     11  C   UNL     1      -3.948  -0.095  -4.246  0.00  0.00    -0.028 A 
ATOM     12  C   UNL     1      -3.392  -0.792  -3.163  0.00  0.00    +0.005 A 
ATOM     13  C   UNL     1      -4.415  -0.826  -5.349  0.00  0.00    +0.005 A 
ATOM     14  C   UNL     1      -3.328  -2.187  -3.174  0.00  0.00    +0.000 A 
ATOM     15  C   UNL     1      -4.349  -2.220  -5.356  0.00  0.00    +0.000 A 
ATOM     16  C   UNL     1      -3.808  -2.900  -4.268  0.00  0.00    +0.000 A 
ENDBRANCH  10  11
ENDBRANCH   1  10
TORSDOF 2
ENDMDL
MODEL 2
REMARK VINA RESULT:    -6.336      3.513      5.212
REMARK INTER + INTRA:          -7.209
REMARK INTER:                  -7.093
REMARK INTRA:                  -0.117
REMARK UNBOUND:                -0.133
REMARK  Name = 1550473
REMARK  2 active torsions:
REMARK  status: ('A' for Active; 'I' for Inactive)
REMARK    1  A    between atoms: N_1  and  C_4
REMARK    2  A    between atoms: C_4  and  C_5
REMARK                            x       y       z     vdW  Elec       q    Type
REMARK                         _______ _______ _______ _____ _____    ______ ____
ROOT
ATOM      1  N   UNL     1      -3.970  -1.772  -6.316  0.00  0.00    -0.354 N 
ATOM      2  N   UNL     1      -3.676  -3.619  -7.682  0.00  0.00    -0.372 N 
ATOM      3  N   UNL     1      -5.727  -2.590  -7.635  0.00  0.00    -0.372 N 
ATOM      4  C   UNL     1      -4.463  -2.648  -7.202  0.00  0.00    +0.166 C 
ATOM      5  H   UNL     1      -3.013  -1.889  -6.006  0.00  0.00    +0.163 HD
ATOM      6  H   UNL     1      -4.019  -4.292  -8.355  0.00  0.00    +0.159 HD
ATOM      7  H   UNL     1      -2.706  -3.705  -7.405  0.00  0.00    +0.159 HD
ATOM      8  H   UNL     1      -6.373  -1.885  -7.307  0.00  0.00    +0.159 HD
ATOM      9  H   UNL     1      -6.091  -3.262  -8.298  0.00  0.00    +0.159 HD
ENDROOT
BRANCH   1  10
ATOM     10  C   UNL     1      -4.727  -0.646  -5.773  0.00  0.00    +0.151 C 
BRANCH  10  11
ATOM     11  C   UNL     1      -3.964  -0.050  -4.623  0.00  0.00    -0.028 A 
ATOM     12  C   UNL     1      -4.003   1.331  -4.382  0.00  0.00    +0.005 A 
ATOM     13  C   UNL     1      -3.204  -0.862  -3.766  0.00  0.00    +0.005 A 
ATOM     14  C   UNL     1      -3.318   1.882  -3.296  0.00  0.00    +0.000 A 
ATOM     15  C   UNL     1      -2.521  -0.308  -2.684  0.00  0.00    +0.000 A 
ATOM     16  C   UNL     1      -2.580   1.063  -2.447  0.00  0.00    +0.000 A 
ENDBRANCH  10  11
ENDBRANCH   1  10
TORSDOF 2
ENDMDL
MODEL 3
REMARK VINA RESULT:    -5.271     17.503     19.347
REMARK INTER + INTRA:          -6.020
REMARK INTER:                  -5.877
REMARK INTRA:                  -0.143
REMARK UNBOUND:                -0.133
REMARK  Name = 1550473
REMARK  2 active torsions:
REMARK  status: ('A' for Active; 'I' for Inactive)
REMARK    1  A    between atoms: N_1  and  C_4
REMARK    2  A    between atoms: C_4  and  C_5
REMARK                            x       y       z     vdW  Elec       q    Type
REMARK                         _______ _______ _______ _____ _____    ______ ____
ROOT
ATOM      1  N   UNL     1      -0.037 -16.402  -7.325  0.00  0.00    -0.354 N 
ATOM      2  N   UNL     1      -1.499 -14.752  -8.034  0.00  0.00    -0.372 N 
ATOM      3  N   UNL     1      -1.995 -15.929  -6.128  0.00  0.00    -0.372 N 
ATOM      4  C   UNL     1      -1.169 -15.706  -7.156  0.00  0.00    +0.166 C 
ATOM      5  H   UNL     1       0.531 -16.206  -8.141  0.00  0.00    +0.163 HD
ATOM      6  H   UNL     1      -2.346 -14.209  -7.931  0.00  0.00    +0.159 HD
ATOM      7  H   UNL     1      -0.907 -14.527  -8.824  0.00  0.00    +0.159 HD
ATOM      8  H   UNL     1      -1.806 -16.639  -5.433  0.00  0.00    +0.159 HD
ATOM      9  H   UNL     1      -2.853 -15.404  -6.014  0.00  0.00    +0.159 HD
ENDROOT
BRANCH   1  10
ATOM     10  C   UNL     1       0.441 -17.425  -6.396  0.00  0.00    +0.151 C 
BRANCH  10  11
ATOM     11  C   UNL     1       0.688 -18.700  -7.154  0.00  0.00    -0.028 A 
ATOM     12  C   UNL     1       1.202 -19.829  -6.499  0.00  0.00    +0.005 A 
ATOM     13  C   UNL     1       0.406 -18.787  -8.526  0.00  0.00    +0.005 A 
ATOM     14  C   UNL     1       1.404 -21.023  -7.197  0.00  0.00    +0.000 A 
ATOM     15  C   UNL     1       0.609 -19.980  -9.218  0.00  0.00    +0.000 A 
ATOM     16  C   UNL     1       1.106 -21.098  -8.553  0.00  0.00    +0.000 A 
ENDBRANCH  10  11
ENDBRANCH   1  10
TORSDOF 2
ENDMDL
MODEL 4
REMARK VINA RESULT:    -5.226     16.537     17.742
REMARK INTER + INTRA:          -5.970
REMARK INTER:                  -5.826
REMARK INTRA:                  -0.144
REMARK UNBOUND:                -0.133
REMARK  Name = 1550473
REMARK  2 active torsions:
REMARK  status: ('A' for Active; 'I' for Inactive)
REMARK    1  A    between atoms: N_1  and  C_4
REMARK    2  A    between atoms: C_4  and  C_5
REMARK                            x       y       z     vdW  Elec       q    Type
REMARK                         _______ _______ _______ _____ _____    ______ ____
ROOT
ATOM      1  N   UNL     1      -5.151 -16.577  -5.521  0.00  0.00    -0.354 N 
ATOM      2  N   UNL     1      -7.438 -16.821  -5.252  0.00  0.00    -0.372 N 
ATOM      3  N   UNL     1      -6.135 -18.702  -5.426  0.00  0.00    -0.372 N 
ATOM      4  C   UNL     1      -6.226 -17.368  -5.402  0.00  0.00    +0.166 C 
ATOM      5  H   UNL     1      -5.290 -15.573  -5.525  0.00  0.00    +0.163 HD
ATOM      6  H   UNL     1      -8.267 -17.392  -5.156  0.00  0.00    +0.159 HD
ATOM      7  H   UNL     1      -7.569 -15.818  -5.210  0.00  0.00    +0.159 HD
ATOM      8  H   UNL     1      -5.250 -19.176  -5.542  0.00  0.00    +0.159 HD
ATOM      9  H   UNL     1      -6.955 -19.290  -5.343  0.00  0.00    +0.159 HD
ENDROOT
BRANCH   1  10
ATOM     10  C   UNL     1      -3.780 -17.072  -5.635  0.00  0.00    +0.151 C 
BRANCH  10  11
ATOM     11  C   UNL     1      -3.215 -16.653  -6.964  0.00  0.00    -0.028 A 
ATOM     12  C   UNL     1      -2.587 -17.589  -7.798  0.00  0.00    +0.005 A 
ATOM     13  C   UNL     1      -3.309 -15.321  -7.397  0.00  0.00    +0.005 A 
ATOM     14  C   UNL     1      -2.089 -17.206  -9.045  0.00  0.00    +0.000 A 
ATOM     15  C   UNL     1      -2.809 -14.942  -8.642  0.00  0.00    +0.000 A 
ATOM     16  C   UNL     1      -2.201 -15.886  -9.468  0.00  0.00    +0.000 A 
ENDBRANCH  10  11
ENDBRANCH   1  10
TORSDOF 2
ENDMDL
MODEL 5
REMARK VINA RESULT:    -5.055     23.742     25.102
REMARK INTER + INTRA:          -5.779
REMARK INTER:                  -5.666
REMARK INTRA:                  -0.113
REMARK UNBOUND:                -0.133
REMARK  Name = 1550473
REMARK  2 active torsions:
REMARK  status: ('A' for Active; 'I' for Inactive)
REMARK    1  A    between atoms: N_1  and  C_4
REMARK    2  A    between atoms: C_4  and  C_5
REMARK                            x       y       z     vdW  Elec       q    Type
REMARK                         _______ _______ _______ _____ _____    ______ ____
ROOT
ATOM      1  N   UNL     1      18.556   6.256   4.544  0.00  0.00    -0.354 N 
ATOM      2  N   UNL     1      18.776   5.699   2.306  0.00  0.00    -0.372 N 
ATOM      3  N   UNL     1      20.657   6.235   3.506  0.00  0.00    -0.372 N 
ATOM      4  C   UNL     1      19.331   6.067   3.467  0.00  0.00    +0.166 C 
ATOM      5  H   UNL     1      17.554   6.142   4.441  0.00  0.00    +0.163 HD
ATOM      6  H   UNL     1      19.336   5.546   1.478  0.00  0.00    +0.159 HD
ATOM      7  H   UNL     1      17.780   5.541   2.218  0.00  0.00    +0.159 HD
ATOM      8  H   UNL     1      21.137   6.518   4.350  0.00  0.00    +0.159 HD
ATOM      9  H   UNL     1      21.233   6.098   2.685  0.00  0.00    +0.159 HD
ENDROOT
BRANCH   1  10
ATOM     10  C   UNL     1      19.067   6.606   5.868  0.00  0.00    +0.151 C 
BRANCH  10  11
ATOM     11  C   UNL     1      17.922   7.057   6.732  0.00  0.00    -0.028 A 
ATOM     12  C   UNL     1      18.099   8.085   7.670  0.00  0.00    +0.005 A 
ATOM     13  C   UNL     1      16.655   6.464   6.615  0.00  0.00    +0.005 A 
ATOM     14  C   UNL     1      17.029   8.524   8.452  0.00  0.00    +0.000 A 
ATOM     15  C   UNL     1      15.589   6.906   7.398  0.00  0.00    +0.000 A 
ATOM     16  C   UNL     1      15.775   7.937   8.315  0.00  0.00    +0.000 A 
ENDBRANCH  10  11
ENDBRANCH   1  10
TORSDOF 2
ENDMDL
MODEL 6
REMARK VINA RESULT:    -5.034     17.545     19.058
REMARK INTER + INTRA:          -5.755
REMARK INTER:                  -5.580
REMARK INTRA:                  -0.175
REMARK UNBOUND:                -0.133
REMARK  Name = 1550473
REMARK  2 active torsions:
REMARK  status: ('A' for Active; 'I' for Inactive)
REMARK    1  A    between atoms: N_1  and  C_4
REMARK    2  A    between atoms: C_4  and  C_5
REMARK                            x       y       z     vdW  Elec       q    Type
REMARK                         _______ _______ _______ _____ _____    ______ ____
ROOT
ATOM      1  N   UNL     1       4.895  15.600  -3.365  0.00  0.00    -0.354 N 
ATOM      2  N   UNL     1       5.835  15.781  -1.256  0.00  0.00    -0.372 N 
ATOM      3  N   UNL     1       3.675  16.487  -1.572  0.00  0.00    -0.372 N 
ATOM      4  C   UNL     1       4.793  15.956  -2.077  0.00  0.00    +0.166 C 
ATOM      5  H   UNL     1       5.780  15.231  -3.693  0.00  0.00    +0.163 HD
ATOM      6  H   UNL     1       5.786  16.037  -0.279  0.00  0.00    +0.159 HD
ATOM      7  H   UNL     1       6.703  15.369  -1.576  0.00  0.00    +0.159 HD
ATOM      8  H   UNL     1       2.855  16.651  -2.141  0.00  0.00    +0.159 HD
ATOM      9  H   UNL     1       3.610  16.761  -0.599  0.00  0.00    +0.159 HD
ENDROOT
BRANCH   1  10
ATOM     10  C   UNL     1       3.802  15.699  -4.330  0.00  0.00    +0.151 C 
BRANCH  10  11
ATOM     11  C   UNL     1       4.088  16.828  -5.282  0.00  0.00    -0.028 A 
ATOM     12  C   UNL     1       4.927  16.630  -6.389  0.00  0.00    +0.005 A 
ATOM     13  C   UNL     1       3.519  18.095  -5.086  0.00  0.00    +0.005 A 
ATOM     14  C   UNL     1       5.169  17.670  -7.290  0.00  0.00    +0.000 A 
ATOM     15  C   UNL     1       3.765  19.131  -5.988  0.00  0.00    +0.000 A 
ATOM     16  C   UNL     1       4.587  18.917  -7.091  0.00  0.00    +0.000 A 
ENDBRANCH  10  11
ENDBRANCH   1  10
TORSDOF 2
ENDMDL
MODEL 7
REMARK VINA RESULT:    -5.027     14.926     15.873
REMARK INTER + INTRA:          -5.748
REMARK INTER:                  -5.641
REMARK INTRA:                  -0.106
REMARK UNBOUND:                -0.133
REMARK  Name = 1550473
REMARK  2 active torsions:
REMARK  status: ('A' for Active; 'I' for Inactive)
REMARK    1  A    between atoms: N_1  and  C_4
REMARK    2  A    between atoms: C_4  and  C_5
REMARK                            x       y       z     vdW  Elec       q    Type
REMARK                         _______ _______ _______ _____ _____    ______ ____
ROOT
ATOM      1  N   UNL     1     -13.366  -8.965   3.080  0.00  0.00    -0.354 N 
ATOM      2  N   UNL     1     -15.111  -7.839   2.055  0.00  0.00    -0.372 N 
ATOM      3  N   UNL     1     -14.144  -9.613   0.967  0.00  0.00    -0.372 N 
ATOM      4  C   UNL     1     -14.195  -8.815   2.038  0.00  0.00    +0.166 C 
ATOM      5  H   UNL     1     -13.435  -8.308   3.848  0.00  0.00    +0.163 HD
ATOM      6  H   UNL     1     -15.753  -7.704   1.285  0.00  0.00    +0.159 HD
ATOM      7  H   UNL     1     -15.209  -7.213   2.844  0.00  0.00    +0.159 HD
ATOM      8  H   UNL     1     -13.472 -10.365   0.890  0.00  0.00    +0.159 HD
ATOM      9  H   UNL     1     -14.770  -9.486   0.181  0.00  0.00    +0.159 HD
ENDROOT
BRANCH   1  10
ATOM     10  C   UNL     1     -12.368 -10.028   3.184  0.00  0.00    +0.151 C 
BRANCH  10  11
ATOM     11  C   UNL     1     -11.988 -10.204   4.629  0.00  0.00    -0.028 A 
ATOM     12  C   UNL     1     -12.942 -10.614   5.571  0.00  0.00    +0.005 A 
ATOM     13  C   UNL     1     -10.673  -9.969   5.060  0.00  0.00    +0.005 A 
ATOM     14  C   UNL     1     -12.582 -10.807   6.907  0.00  0.00    +0.000 A 
ATOM     15  C   UNL     1     -10.318 -10.162   6.395  0.00  0.00    +0.000 A 
ATOM     16  C   UNL     1     -11.272 -10.583   7.318  0.00  0.00    +0.000 A 
ENDBRANCH  10  11
ENDBRANCH   1  10
TORSDOF 2
ENDMDL
MODEL 8
REMARK VINA RESULT:    -4.977     24.519     26.341
REMARK INTER + INTRA:          -5.692
REMARK INTER:                  -5.544
REMARK INTRA:                  -0.147
REMARK UNBOUND:                -0.133
REMARK  Name = 1550473
REMARK  2 active torsions:
REMARK  status: ('A' for Active; 'I' for Inactive)
REMARK    1  A    between atoms: N_1  and  C_4
REMARK    2  A    between atoms: C_4  and  C_5
REMARK                            x       y       z     vdW  Elec       q    Type
REMARK                         _______ _______ _______ _____ _____    ______ ____
ROOT
ATOM      1  N   UNL     1       0.779 -26.589  -7.439  0.00  0.00    -0.354 N 
ATOM      2  N   UNL     1       2.134 -28.458  -7.247  0.00  0.00    -0.372 N 
ATOM      3  N   UNL     1       1.659 -27.235  -5.365  0.00  0.00    -0.372 N 
ATOM      4  C   UNL     1       1.515 -27.414  -6.682  0.00  0.00    +0.166 C 
ATOM      5  H   UNL     1       0.735 -26.762  -8.436  0.00  0.00    +0.163 HD
ATOM      6  H   UNL     1       2.693 -29.100  -6.702  0.00  0.00    +0.159 HD
ATOM      7  H   UNL     1       2.050 -28.655  -8.237  0.00  0.00    +0.159 HD
ATOM      8  H   UNL     1       1.223 -26.463  -4.879  0.00  0.00    +0.159 HD
ATOM      9  H   UNL     1       2.224 -27.860  -4.803  0.00  0.00    +0.159 HD
ENDROOT
BRANCH   1  10
ATOM     10  C   UNL     1       0.022 -25.455  -6.912  0.00  0.00    +0.151 C 
BRANCH  10  11
ATOM     11  C   UNL     1       0.447 -24.204  -7.632  0.00  0.00    -0.028 A 
ATOM     12  C   UNL     1       1.246 -24.281  -8.782  0.00  0.00    +0.005 A 
ATOM     13  C   UNL     1       0.049 -22.940  -7.172  0.00  0.00    +0.005 A 
ATOM     14  C   UNL     1       1.616 -23.122  -9.468  0.00  0.00    +0.000 A 
ATOM     15  C   UNL     1       0.421 -21.784  -7.859  0.00  0.00    +0.000 A 
ATOM     16  C   UNL     1       1.202 -21.876  -9.008  0.00  0.00    +0.000 A 
ENDBRANCH  10  11
ENDBRANCH   1  10
TORSDOF 2
ENDMDL
MODEL 9
REMARK VINA RESULT:    -4.851     16.845     18.284
REMARK INTER + INTRA:          -5.551
REMARK INTER:                  -5.384
REMARK INTRA:                  -0.166
REMARK UNBOUND:                -0.133
REMARK  Name = 1550473
REMARK  2 active torsions:
REMARK  status: ('A' for Active; 'I' for Inactive)
REMARK    1  A    between atoms: N_1  and  C_4
REMARK    2  A    between atoms: C_4  and  C_5
REMARK                            x       y       z     vdW  Elec       q    Type
REMARK                         _______ _______ _______ _____ _____    ______ ____
ROOT
ATOM      1  N   UNL     1      -2.973 -17.530  -4.825  0.00  0.00    -0.354 N 
ATOM      2  N   UNL     1      -1.512 -18.758  -3.514  0.00  0.00    -0.372 N 
ATOM      3  N   UNL     1      -2.913 -19.869  -4.952  0.00  0.00    -0.372 N 
ATOM      4  C   UNL     1      -2.477 -18.713  -4.440  0.00  0.00    +0.166 C 
ATOM      5  H   UNL     1      -2.622 -16.691  -4.377  0.00  0.00    +0.163 HD
ATOM      6  H   UNL     1      -1.115 -19.636  -3.206  0.00  0.00    +0.159 HD
ATOM      7  H   UNL     1      -1.130 -17.916  -3.101  0.00  0.00    +0.159 HD
ATOM      8  H   UNL     1      -3.643 -19.904  -5.650  0.00  0.00    +0.159 HD
ATOM      9  H   UNL     1      -2.537 -20.758  -4.648  0.00  0.00    +0.159 HD
ENDROOT
BRANCH   1  10
ATOM     10  C   UNL     1      -3.988 -17.368  -5.865  0.00  0.00    +0.151 C 
BRANCH  10  11
ATOM     11  C   UNL     1      -3.332 -16.850  -7.115  0.00  0.00    -0.028 A 
ATOM     12  C   UNL     1      -3.360 -15.481  -7.419  0.00  0.00    +0.005 A 
ATOM     13  C   UNL     1      -2.676 -17.722  -7.997  0.00  0.00    +0.005 A 
ATOM     14  C   UNL     1      -2.725 -14.995  -8.564  0.00  0.00    +0.000 A 
ATOM     15  C   UNL     1      -2.044 -17.234  -9.140  0.00  0.00    +0.000 A 
ATOM     16  C   UNL     1      -2.066 -15.870  -9.422  0.00  0.00    +0.000 A 
ENDBRANCH  10  11
ENDBRANCH   1  10
TORSDOF 2
ENDMDL
