MODEL 1
REMARK VINA RESULT:    -5.082      0.000      0.000
REMARK INTER + INTRA:          -5.840
REMARK INTER:                  -5.677
REMARK INTRA:                  -0.164
REMARK UNBOUND:                -0.164
REMARK  Name = 1550473
REMARK  2 active torsions:
REMARK  status: ('A' for Active; 'I' for Inactive)
REMARK    1  A    between atoms: N_1  and  C_4
REMARK    2  A    between atoms: C_4  and  C_5
REMARK                            x       y       z     vdW  Elec       q    Type
REMARK                         _______ _______ _______ _____ _____    ______ ____
ROOT
ATOM      1  N   UNL     1       8.200  13.487  27.453  0.00  0.00    -0.354 N 
ATOM      2  N   UNL     1       8.011  11.291  26.742  0.00  0.00    -0.372 N 
ATOM      3  N   UNL     1       6.186  12.312  27.686  0.00  0.00    -0.372 N 
ATOM      4  C   UNL     1       7.464  12.378  27.300  0.00  0.00    +0.166 C 
ATOM      5  H   UNL     1       9.172  13.463  27.167  0.00  0.00    +0.163 HD
ATOM      6  H   UNL     1       7.479  10.441  26.610  0.00  0.00    +0.159 HD
ATOM      7  H   UNL     1       8.969  11.284  26.415  0.00  0.00    +0.159 HD
ATOM      8  H   UNL     1       5.716  13.096  28.119  0.00  0.00    +0.159 HD
ATOM      9  H   UNL     1       5.641  11.466  27.573  0.00  0.00    +0.159 HD
ENDROOT
BRANCH   1  10
ATOM     10  C   UNL     1       7.685  14.741  28.000  0.00  0.00    +0.151 C 
BRANCH  10  11
ATOM     11  C   UNL     1       8.415  15.057  29.276  0.00  0.00    -0.028 A 
ATOM     12  C   UNL     1       8.067  14.415  30.473  0.00  0.00    +0.005 A 
ATOM     13  C   UNL     1       9.459  15.995  29.293  0.00  0.00    +0.005 A 
ATOM     14  C   UNL     1       8.765  14.686  31.653  0.00  0.00    +0.000 A 
ATOM     15  C   UNL     1      10.152  16.263  30.473  0.00  0.00    +0.000 A 
ATOM     16  C   UNL     1       9.807  15.607  31.652  0.00  0.00    +0.000 A 
ENDBRANCH  10  11
ENDBRANCH   1  10
TORSDOF 2
ENDMDL
MODEL 2
REMARK VINA RESULT:    -4.971     16.786     17.680
REMARK INTER + INTRA:          -5.716
REMARK INTER:                  -5.555
REMARK INTRA:                  -0.161
REMARK UNBOUND:                -0.164
REMARK  Name = 1550473
REMARK  2 active torsions:
REMARK  status: ('A' for Active; 'I' for Inactive)
REMARK    1  A    between atoms: N_1  and  C_4
REMARK    2  A    between atoms: C_4  and  C_5
REMARK                            x       y       z     vdW  Elec       q    Type
REMARK                         _______ _______ _______ _____ _____    ______ ____
ROOT
ATOM      1  N   UNL     1      20.018   0.891  31.425  0.00  0.00    -0.354 N 
ATOM      2  N   UNL     1      18.463  -0.726  32.001  0.00  0.00    -0.372 N 
ATOM      3  N   UNL     1      17.744   1.421  31.628  0.00  0.00    -0.372 N 
ATOM      4  C   UNL     1      18.750   0.542  31.681  0.00  0.00    +0.166 C 
ATOM      5  H   UNL     1      20.739   0.184  31.511  0.00  0.00    +0.163 HD
ATOM      6  H   UNL     1      17.515  -1.020  32.196  0.00  0.00    +0.159 HD
ATOM      7  H   UNL     1      19.179  -1.441  32.041  0.00  0.00    +0.159 HD
ATOM      8  H   UNL     1      17.896   2.394  31.399  0.00  0.00    +0.159 HD
ATOM      9  H   UNL     1      16.791   1.149  31.832  0.00  0.00    +0.159 HD
ENDROOT
BRANCH   1  10
ATOM     10  C   UNL     1      20.430   2.232  31.015  0.00  0.00    +0.151 C 
BRANCH  10  11
ATOM     11  C   UNL     1      20.786   2.212  29.554  0.00  0.00    -0.028 A 
ATOM     12  C   UNL     1      21.520   1.146  29.015  0.00  0.00    +0.005 A 
ATOM     13  C   UNL     1      20.387   3.254  28.703  0.00  0.00    +0.005 A 
ATOM     14  C   UNL     1      21.825   1.112  27.652  0.00  0.00    +0.000 A 
ATOM     15  C   UNL     1      20.694   3.216  27.343  0.00  0.00    +0.000 A 
ATOM     16  C   UNL     1      21.411   2.144  26.817  0.00  0.00    +0.000 A 
ENDBRANCH  10  11
ENDBRANCH   1  10
TORSDOF 2
ENDMDL
MODEL 3
REMARK VINA RESULT:    -4.552     19.861     21.197
REMARK INTER + INTRA:          -5.248
REMARK INTER:                  -5.114
REMARK INTRA:                  -0.134
REMARK UNBOUND:                -0.164
REMARK  Name = 1550473
REMARK  2 active torsions:
REMARK  status: ('A' for Active; 'I' for Inactive)
REMARK    1  A    between atoms: N_1  and  C_4
REMARK    2  A    between atoms: C_4  and  C_5
REMARK                            x       y       z     vdW  Elec       q    Type
REMARK                         _______ _______ _______ _____ _____    ______ ____
ROOT
ATOM      1  N   UNL     1      -0.730  16.626   9.796  0.00  0.00    -0.354 N 
ATOM      2  N   UNL     1       0.048  17.217   7.697  0.00  0.00    -0.372 N 
ATOM      3  N   UNL     1       1.563  16.887   9.388  0.00  0.00    -0.372 N 
ATOM      4  C   UNL     1       0.291  16.906   8.976  0.00  0.00    +0.166 C 
ATOM      5  H   UNL     1      -1.673  16.687   9.430  0.00  0.00    +0.163 HD
ATOM      6  H   UNL     1       0.798  17.430   7.053  0.00  0.00    +0.159 HD
ATOM      7  H   UNL     1      -0.893  17.233   7.321  0.00  0.00    +0.159 HD
ATOM      8  H   UNL     1       1.813  16.666  10.343  0.00  0.00    +0.159 HD
ATOM      9  H   UNL     1       2.326  17.109   8.762  0.00  0.00    +0.159 HD
ENDROOT
BRANCH   1  10
ATOM     10  C   UNL     1      -0.570  16.223  11.192  0.00  0.00    +0.151 C 
BRANCH  10  11
ATOM     11  C   UNL     1      -1.654  15.243  11.548  0.00  0.00    -0.028 A 
ATOM     12  C   UNL     1      -2.540  14.775  10.568  0.00  0.00    +0.005 A 
ATOM     13  C   UNL     1      -1.795  14.774  12.863  0.00  0.00    +0.005 A 
ATOM     14  C   UNL     1      -3.528  13.841  10.891  0.00  0.00    +0.000 A 
ATOM     15  C   UNL     1      -2.783  13.843  13.183  0.00  0.00    +0.000 A 
ATOM     16  C   UNL     1      -3.648  13.375  12.196  0.00  0.00    +0.000 A 
ENDBRANCH  10  11
ENDBRANCH   1  10
TORSDOF 2
ENDMDL
MODEL 4
REMARK VINA RESULT:    -4.474     41.237     42.695
REMARK INTER + INTRA:          -5.161
REMARK INTER:                  -4.989
REMARK INTRA:                  -0.172
REMARK UNBOUND:                -0.164
REMARK  Name = 1550473
REMARK  2 active torsions:
REMARK  status: ('A' for Active; 'I' for Inactive)
REMARK    1  A    between atoms: N_1  and  C_4
REMARK    2  A    between atoms: C_4  and  C_5
REMARK                            x       y       z     vdW  Elec       q    Type
REMARK                         _______ _______ _______ _____ _____    ______ ____
ROOT
ATOM      1  N   UNL     1      -6.942   4.236  -9.175  0.00  0.00    -0.354 N 
ATOM      2  N   UNL     1      -5.278   3.925  -7.594  0.00  0.00    -0.372 N 
ATOM      3  N   UNL     1      -5.117   5.700  -9.039  0.00  0.00    -0.372 N 
ATOM      4  C   UNL     1      -5.789   4.625  -8.615  0.00  0.00    +0.166 C 
ATOM      5  H   UNL     1      -7.386   3.394  -8.827  0.00  0.00    +0.163 HD
ATOM      6  H   UNL     1      -4.411   4.196  -7.149  0.00  0.00    +0.159 HD
ATOM      7  H   UNL     1      -5.748   3.110  -7.219  0.00  0.00    +0.159 HD
ATOM      8  H   UNL     1      -5.446   6.268  -9.808  0.00  0.00    +0.159 HD
ATOM      9  H   UNL     1      -4.242   5.981  -8.614  0.00  0.00    +0.159 HD
ENDROOT
BRANCH   1  10
ATOM     10  C   UNL     1      -7.610   4.959 -10.256  0.00  0.00    +0.151 C 
BRANCH  10  11
ATOM     11  C   UNL     1      -8.853   5.611  -9.715  0.00  0.00    -0.028 A 
ATOM     12  C   UNL     1     -10.057   4.897  -9.642  0.00  0.00    +0.005 A 
ATOM     13  C   UNL     1      -8.830   6.942  -9.269  0.00  0.00    +0.005 A 
ATOM     14  C   UNL     1     -11.204   5.493  -9.112  0.00  0.00    +0.000 A 
ATOM     15  C   UNL     1      -9.978   7.533  -8.741  0.00  0.00    +0.000 A 
ATOM     16  C   UNL     1     -11.164   6.808  -8.661  0.00  0.00    +0.000 A 
ENDBRANCH  10  11
ENDBRANCH   1  10
TORSDOF 2
ENDMDL
MODEL 5
REMARK VINA RESULT:    -4.384      2.044      2.712
REMARK INTER + INTRA:          -5.060
REMARK INTER:                  -4.911
REMARK INTRA:                  -0.148
REMARK UNBOUND:                -0.164
REMARK  Name = 1550473
REMARK  2 active torsions:
REMARK  status: ('A' for Active; 'I' for Inactive)
REMARK    1  A    between atoms: N_1  and  C_4
REMARK    2  A    between atoms: C_4  and  C_5
REMARK                            x       y       z     vdW  Elec       q    Type
REMARK                         _______ _______ _______ _____ _____    ______ ____
ROOT
ATOM      1  N   UNL     1       5.365  13.294  28.433  0.00  0.00    -0.354 N 
ATOM      2  N   UNL     1       3.154  13.759  28.944  0.00  0.00    -0.372 N 
ATOM      3  N   UNL     1       4.389  15.336  27.824  0.00  0.00    -0.372 N 
ATOM      4  C   UNL     1       4.318  14.129  28.396  0.00  0.00    +0.166 C 
ATOM      5  H   UNL     1       5.256  12.406  28.909  0.00  0.00    +0.163 HD
ATOM      6  H   UNL     1       2.346  14.366  28.928  0.00  0.00    +0.159 HD
ATOM      7  H   UNL     1       3.034  12.851  29.378  0.00  0.00    +0.159 HD
ATOM      8  H   UNL     1       5.240  15.677  27.398  0.00  0.00    +0.159 HD
ATOM      9  H   UNL     1       3.594  15.962  27.808  0.00  0.00    +0.159 HD
ENDROOT
BRANCH   1  10
ATOM     10  C   UNL     1       6.661  13.580  27.819  0.00  0.00    +0.151 C 
BRANCH  10  11
ATOM     11  C   UNL     1       7.567  14.195  28.849  0.00  0.00    -0.028 A 
ATOM     12  C   UNL     1       7.556  13.735  30.174  0.00  0.00    +0.005 A 
ATOM     13  C   UNL     1       8.444  15.235  28.505  0.00  0.00    +0.005 A 
ATOM     14  C   UNL     1       8.420  14.286  31.124  0.00  0.00    +0.000 A 
ATOM     15  C   UNL     1       9.304  15.784  29.456  0.00  0.00    +0.000 A 
ATOM     16  C   UNL     1       9.294  15.307  30.765  0.00  0.00    +0.000 A 
ENDBRANCH  10  11
ENDBRANCH   1  10
TORSDOF 2
ENDMDL
MODEL 6
REMARK VINA RESULT:    -4.256     31.372     33.557
REMARK INTER + INTRA:          -4.917
REMARK INTER:                  -4.812
REMARK INTRA:                  -0.106
REMARK UNBOUND:                -0.164
REMARK  Name = 1550473
REMARK  2 active torsions:
REMARK  status: ('A' for Active; 'I' for Inactive)
REMARK    1  A    between atoms: N_1  and  C_4
REMARK    2  A    between atoms: C_4  and  C_5
REMARK                            x       y       z     vdW  Elec       q    Type
REMARK                         _______ _______ _______ _____ _____    ______ ____
ROOT
ATOM      1  N   UNL     1       7.645   4.794  -2.004  0.00  0.00    -0.354 N 
ATOM      2  N   UNL     1       8.999   4.534  -0.143  0.00  0.00    -0.372 N 
ATOM      3  N   UNL     1       8.700   6.636  -1.012  0.00  0.00    -0.372 N 
ATOM      4  C   UNL     1       8.439   5.326  -1.065  0.00  0.00    +0.166 C 
ATOM      5  H   UNL     1       7.511   3.789  -2.008  0.00  0.00    +0.163 HD
ATOM      6  H   UNL     1       9.600   4.907   0.580  0.00  0.00    +0.159 HD
ATOM      7  H   UNL     1       8.827   3.536  -0.122  0.00  0.00    +0.159 HD
ATOM      8  H   UNL     1       8.313   7.287  -1.683  0.00  0.00    +0.159 HD
ATOM      9  H   UNL     1       9.308   7.027  -0.304  0.00  0.00    +0.159 HD
ENDROOT
BRANCH   1  10
ATOM     10  C   UNL     1       6.944   5.575  -3.021  0.00  0.00    +0.151 C 
BRANCH  10  11
ATOM     11  C   UNL     1       5.655   4.884  -3.371  0.00  0.00    -0.028 A 
ATOM     12  C   UNL     1       5.564   4.087  -4.521  0.00  0.00    +0.005 A 
ATOM     13  C   UNL     1       4.523   5.017  -2.552  0.00  0.00    +0.005 A 
ATOM     14  C   UNL     1       4.376   3.420  -4.830  0.00  0.00    +0.000 A 
ATOM     15  C   UNL     1       3.338   4.351  -2.864  0.00  0.00    +0.000 A 
ATOM     16  C   UNL     1       3.266   3.551  -4.002  0.00  0.00    +0.000 A 
ENDBRANCH  10  11
ENDBRANCH   1  10
TORSDOF 2
ENDMDL
MODEL 7
REMARK VINA RESULT:    -4.242     20.076     21.129
REMARK INTER + INTRA:          -4.902
REMARK INTER:                  -4.786
REMARK INTRA:                  -0.115
REMARK UNBOUND:                -0.164
REMARK  Name = 1550473
REMARK  2 active torsions:
REMARK  status: ('A' for Active; 'I' for Inactive)
REMARK    1  A    between atoms: N_1  and  C_4
REMARK    2  A    between atoms: C_4  and  C_5
REMARK                            x       y       z     vdW  Elec       q    Type
REMARK                         _______ _______ _______ _____ _____    ______ ____
ROOT
ATOM      1  N   UNL     1      -1.749  15.297  10.250  0.00  0.00    -0.354 N 
ATOM      2  N   UNL     1      -3.750  14.310   9.627  0.00  0.00    -0.372 N 
ATOM      3  N   UNL     1      -3.228  14.449  11.857  0.00  0.00    -0.372 N 
ATOM      4  C   UNL     1      -2.896  14.691  10.585  0.00  0.00    +0.166 C 
ATOM      5  H   UNL     1      -1.542  15.425   9.266  0.00  0.00    +0.163 HD
ATOM      6  H   UNL     1      -4.624  13.854   9.850  0.00  0.00    +0.159 HD
ATOM      7  H   UNL     1      -3.561  14.480   8.647  0.00  0.00    +0.159 HD
ATOM      8  H   UNL     1      -2.624  14.706  12.627  0.00  0.00    +0.159 HD
ATOM      9  H   UNL     1      -4.093  13.983  12.100  0.00  0.00    +0.159 HD
ENDROOT
BRANCH   1  10
ATOM     10  C   UNL     1      -0.776  15.799  11.218  0.00  0.00    +0.151 C 
BRANCH  10  11
ATOM     11  C   UNL     1       0.208  16.690  10.510  0.00  0.00    -0.028 A 
ATOM     12  C   UNL     1       0.836  17.741  11.193  0.00  0.00    +0.005 A 
ATOM     13  C   UNL     1       0.519  16.483   9.157  0.00  0.00    +0.005 A 
ATOM     14  C   UNL     1       1.772  18.550  10.543  0.00  0.00    +0.000 A 
ATOM     15  C   UNL     1       1.454  17.293   8.512  0.00  0.00    +0.000 A 
ATOM     16  C   UNL     1       2.082  18.325   9.206  0.00  0.00    +0.000 A 
ENDBRANCH  10  11
ENDBRANCH   1  10
TORSDOF 2
ENDMDL
MODEL 8
REMARK VINA RESULT:    -4.053     41.233     42.379
REMARK INTER + INTRA:          -4.690
REMARK INTER:                  -4.599
REMARK INTRA:                  -0.091
REMARK UNBOUND:                -0.164
REMARK  Name = 1550473
REMARK  2 active torsions:
REMARK  status: ('A' for Active; 'I' for Inactive)
REMARK    1  A    between atoms: N_1  and  C_4
REMARK    2  A    between atoms: C_4  and  C_5
REMARK                            x       y       z     vdW  Elec       q    Type
REMARK                         _______ _______ _______ _____ _____    ______ ____
ROOT
ATOM      1  N   UNL     1      -7.908   6.632  -9.218  0.00  0.00    -0.354 N 
ATOM      2  N   UNL     1      -9.350   8.278  -8.459  0.00  0.00    -0.372 N 
ATOM      3  N   UNL     1     -10.211   6.505  -9.635  0.00  0.00    -0.372 N 
ATOM      4  C   UNL     1      -9.149   7.126  -9.111  0.00  0.00    +0.166 C 
ATOM      5  H   UNL     1      -7.142   7.166  -8.825  0.00  0.00    +0.163 HD
ATOM      6  H   UNL     1     -10.276   8.673  -8.359  0.00  0.00    +0.159 HD
ATOM      7  H   UNL     1      -8.588   8.786  -8.027  0.00  0.00    +0.159 HD
ATOM      8  H   UNL     1     -10.126   5.636 -10.144  0.00  0.00    +0.159 HD
ATOM      9  H   UNL     1     -11.144   6.891  -9.556  0.00  0.00    +0.159 HD
ENDROOT
BRANCH   1  10
ATOM     10  C   UNL     1      -7.588   5.359  -9.861  0.00  0.00    +0.151 C 
BRANCH  10  11
ATOM     11  C   UNL     1      -6.109   5.111  -9.752  0.00  0.00    -0.028 A 
ATOM     12  C   UNL     1      -5.559   4.591  -8.571  0.00  0.00    +0.005 A 
ATOM     13  C   UNL     1      -5.252   5.391 -10.828  0.00  0.00    +0.005 A 
ATOM     14  C   UNL     1      -4.190   4.333  -8.480  0.00  0.00    +0.000 A 
ATOM     15  C   UNL     1      -3.885   5.132 -10.732  0.00  0.00    +0.000 A 
ATOM     16  C   UNL     1      -3.354   4.601  -9.559  0.00  0.00    +0.000 A 
ENDBRANCH  10  11
ENDBRANCH   1  10
TORSDOF 2
ENDMDL
MODEL 9
REMARK VINA RESULT:    -4.007     14.443     15.325
REMARK INTER + INTRA:          -4.640
REMARK INTER:                  -4.525
REMARK INTRA:                  -0.115
REMARK UNBOUND:                -0.164
REMARK  Name = 1550473
REMARK  2 active torsions:
REMARK  status: ('A' for Active; 'I' for Inactive)
REMARK    1  A    between atoms: N_1  and  C_4
REMARK    2  A    between atoms: C_4  and  C_5
REMARK                            x       y       z     vdW  Elec       q    Type
REMARK                         _______ _______ _______ _____ _____    ______ ____
ROOT
ATOM      1  N   UNL     1      17.673  14.068  17.247  0.00  0.00    -0.354 N 
ATOM      2  N   UNL     1      16.607  14.980  15.404  0.00  0.00    -0.372 N 
ATOM      3  N   UNL     1      16.056  15.746  17.495  0.00  0.00    -0.372 N 
ATOM      4  C   UNL     1      16.784  14.926  16.729  0.00  0.00    +0.166 C 
ATOM      5  H   UNL     1      18.172  13.453  16.615  0.00  0.00    +0.163 HD
ATOM      6  H   UNL     1      15.946  15.620  14.984  0.00  0.00    +0.159 HD
ATOM      7  H   UNL     1      17.141  14.396  14.771  0.00  0.00    +0.159 HD
ATOM      8  H   UNL     1      16.138  15.750  18.503  0.00  0.00    +0.159 HD
ATOM      9  H   UNL     1      15.381  16.385  17.095  0.00  0.00    +0.159 HD
ENDROOT
BRANCH   1  10
ATOM     10  C   UNL     1      17.980  13.969  18.673  0.00  0.00    +0.151 C 
BRANCH  10  11
ATOM     11  C   UNL     1      18.934  12.827  18.892  0.00  0.00    -0.028 A 
ATOM     12  C   UNL     1      19.908  12.897  19.898  0.00  0.00    +0.005 A 
ATOM     13  C   UNL     1      18.864  11.670  18.100  0.00  0.00    +0.005 A 
ATOM     14  C   UNL     1      20.775  11.824  20.121  0.00  0.00    +0.000 A 
ATOM     15  C   UNL     1      19.732  10.602  18.326  0.00  0.00    +0.000 A 
ATOM     16  C   UNL     1      20.685  10.678  19.338  0.00  0.00    +0.000 A 
ENDBRANCH  10  11
ENDBRANCH   1  10
TORSDOF 2
ENDMDL
