MODEL 1
REMARK VINA RESULT:    -5.342      0.000      0.000
REMARK INTER + INTRA:          -6.082
REMARK INTER:                  -5.967
REMARK INTRA:                  -0.115
REMARK UNBOUND:                -0.115
REMARK  Name = 1550473
REMARK  2 active torsions:
REMARK  status: ('A' for Active; 'I' for Inactive)
REMARK    1  A    between atoms: N_1  and  C_4
REMARK    2  A    between atoms: C_4  and  C_5
REMARK                            x       y       z     vdW  Elec       q    Type
REMARK                         _______ _______ _______ _____ _____    ______ ____
ROOT
ATOM      1  N   UNL     1       5.866   4.664  15.094  0.00  0.00    -0.354 N 
ATOM      2  N   UNL     1       6.307   6.698  14.077  0.00  0.00    -0.372 N 
ATOM      3  N   UNL     1       4.396   5.564  13.506  0.00  0.00    -0.372 N 
ATOM      4  C   UNL     1       5.518   5.628  14.231  0.00  0.00    +0.166 C 
ATOM      5  H   UNL     1       6.745   4.758  15.591  0.00  0.00    +0.163 HD
ATOM      6  H   UNL     1       6.069   7.443  13.436  0.00  0.00    +0.159 HD
ATOM      7  H   UNL     1       7.162   6.811  14.610  0.00  0.00    +0.159 HD
ATOM      8  H   UNL     1       3.761   4.780  13.571  0.00  0.00    +0.159 HD
ATOM      9  H   UNL     1       4.146   6.294  12.850  0.00  0.00    +0.159 HD
ENDROOT
BRANCH   1  10
ATOM     10  C   UNL     1       5.051   3.484  15.375  0.00  0.00    +0.151 C 
BRANCH  10  11
ATOM     11  C   UNL     1       4.626   3.512  16.817  0.00  0.00    -0.028 A 
ATOM     12  C   UNL     1       4.193   4.708  17.409  0.00  0.00    +0.005 A 
ATOM     13  C   UNL     1       4.651   2.345  17.596  0.00  0.00    +0.005 A 
ATOM     14  C   UNL     1       3.770   4.728  18.740  0.00  0.00    +0.000 A 
ATOM     15  C   UNL     1       4.229   2.370  18.926  0.00  0.00    +0.000 A 
ATOM     16  C   UNL     1       3.786   3.561  19.496  0.00  0.00    +0.000 A 
ENDBRANCH  10  11
ENDBRANCH   1  10
TORSDOF 2
ENDMDL
MODEL 2
REMARK VINA RESULT:    -5.277      1.065      1.996
REMARK INTER + INTRA:          -6.009
REMARK INTER:                  -5.874
REMARK INTRA:                  -0.135
REMARK UNBOUND:                -0.115
REMARK  Name = 1550473
REMARK  2 active torsions:
REMARK  status: ('A' for Active; 'I' for Inactive)
REMARK    1  A    between atoms: N_1  and  C_4
REMARK    2  A    between atoms: C_4  and  C_5
REMARK                            x       y       z     vdW  Elec       q    Type
REMARK                         _______ _______ _______ _____ _____    ______ ____
ROOT
ATOM      1  N   UNL     1       4.864   5.664  15.657  0.00  0.00    -0.354 N 
ATOM      2  N   UNL     1       4.391   5.596  13.391  0.00  0.00    -0.372 N 
ATOM      3  N   UNL     1       6.556   5.278  14.082  0.00  0.00    -0.372 N 
ATOM      4  C   UNL     1       5.276   5.513  14.392  0.00  0.00    +0.166 C 
ATOM      5  H   UNL     1       3.886   5.870  15.824  0.00  0.00    +0.163 HD
ATOM      6  H   UNL     1       4.672   5.484  12.426  0.00  0.00    +0.159 HD
ATOM      7  H   UNL     1       3.406   5.757  13.563  0.00  0.00    +0.159 HD
ATOM      8  H   UNL     1       7.274   5.210  14.791  0.00  0.00    +0.159 HD
ATOM      9  H   UNL     1       6.859   5.174  13.122  0.00  0.00    +0.159 HD
ENDROOT
BRANCH   1  10
ATOM     10  C   UNL     1       5.738   5.538  16.823  0.00  0.00    +0.151 C 
BRANCH  10  11
ATOM     11  C   UNL     1       5.206   4.455  17.721  0.00  0.00    -0.028 A 
ATOM     12  C   UNL     1       4.825   3.214  17.191  0.00  0.00    +0.005 A 
ATOM     13  C   UNL     1       5.087   4.663  19.104  0.00  0.00    +0.005 A 
ATOM     14  C   UNL     1       4.359   2.198  18.029  0.00  0.00    +0.000 A 
ATOM     15  C   UNL     1       4.620   3.646  19.937  0.00  0.00    +0.000 A 
ATOM     16  C   UNL     1       4.259   2.413  19.399  0.00  0.00    +0.000 A 
ENDBRANCH  10  11
ENDBRANCH   1  10
TORSDOF 2
ENDMDL
MODEL 3
REMARK VINA RESULT:    -5.247      1.193      1.549
REMARK INTER + INTRA:          -5.976
REMARK INTER:                  -5.845
REMARK INTRA:                  -0.131
REMARK UNBOUND:                -0.115
REMARK  Name = 1550473
REMARK  2 active torsions:
REMARK  status: ('A' for Active; 'I' for Inactive)
REMARK    1  A    between atoms: N_1  and  C_4
REMARK    2  A    between atoms: C_4  and  C_5
REMARK                            x       y       z     vdW  Elec       q    Type
REMARK                         _______ _______ _______ _____ _____    ______ ____
ROOT
ATOM      1  N   UNL     1       4.763   4.356  15.796  0.00  0.00    -0.354 N 
ATOM      2  N   UNL     1       4.402   5.439  13.781  0.00  0.00    -0.372 N 
ATOM      3  N   UNL     1       4.652   3.158  13.785  0.00  0.00    -0.372 N 
ATOM      4  C   UNL     1       4.608   4.308  14.466  0.00  0.00    +0.166 C 
ATOM      5  H   UNL     1       4.749   5.262  16.250  0.00  0.00    +0.163 HD
ATOM      6  H   UNL     1       4.278   5.434  12.777  0.00  0.00    +0.159 HD
ATOM      7  H   UNL     1       4.343   6.339  14.243  0.00  0.00    +0.159 HD
ATOM      8  H   UNL     1       4.810   2.271  14.242  0.00  0.00    +0.159 HD
ATOM      9  H   UNL     1       4.542   3.134  12.779  0.00  0.00    +0.159 HD
ENDROOT
BRANCH   1  10
ATOM     10  C   UNL     1       4.939   3.177  16.642  0.00  0.00    +0.151 C 
BRANCH  10  11
ATOM     11  C   UNL     1       4.362   3.457  18.002  0.00  0.00    -0.028 A 
ATOM     12  C   UNL     1       3.847   4.725  18.309  0.00  0.00    +0.005 A 
ATOM     13  C   UNL     1       4.323   2.458  18.986  0.00  0.00    +0.005 A 
ATOM     14  C   UNL     1       3.284   4.977  19.563  0.00  0.00    +0.000 A 
ATOM     15  C   UNL     1       3.761   2.714  20.237  0.00  0.00    +0.000 A 
ATOM     16  C   UNL     1       3.240   3.973  20.524  0.00  0.00    +0.000 A 
ENDBRANCH  10  11
ENDBRANCH   1  10
TORSDOF 2
ENDMDL
MODEL 4
REMARK VINA RESULT:    -4.766      3.687      5.318
REMARK INTER + INTRA:          -5.439
REMARK INTER:                  -5.291
REMARK INTRA:                  -0.147
REMARK UNBOUND:                -0.115
REMARK  Name = 1550473
REMARK  2 active torsions:
REMARK  status: ('A' for Active; 'I' for Inactive)
REMARK    1  A    between atoms: N_1  and  C_4
REMARK    2  A    between atoms: C_4  and  C_5
REMARK                            x       y       z     vdW  Elec       q    Type
REMARK                         _______ _______ _______ _____ _____    ______ ____
ROOT
ATOM      1  N   UNL     1       6.635   5.735  13.748  0.00  0.00    -0.354 N 
ATOM      2  N   UNL     1       4.375   5.319  13.462  0.00  0.00    -0.372 N 
ATOM      3  N   UNL     1       5.128   5.980  15.526  0.00  0.00    -0.372 N 
ATOM      4  C   UNL     1       5.394   5.681  14.250  0.00  0.00    +0.166 C 
ATOM      5  H   UNL     1       6.775   5.467  12.781  0.00  0.00    +0.163 HD
ATOM      6  H   UNL     1       3.427   5.273  13.811  0.00  0.00    +0.159 HD
ATOM      7  H   UNL     1       4.511   5.097  12.483  0.00  0.00    +0.159 HD
ATOM      8  H   UNL     1       5.854   6.254  16.174  0.00  0.00    +0.159 HD
ATOM      9  H   UNL     1       4.188   5.928  15.898  0.00  0.00    +0.159 HD
ENDROOT
BRANCH   1  10
ATOM     10  C   UNL     1       7.807   6.169  14.508  0.00  0.00    +0.151 C 
BRANCH  10  11
ATOM     11  C   UNL     1       8.805   5.045  14.555  0.00  0.00    -0.028 A 
ATOM     12  C   UNL     1       9.927   5.125  15.393  0.00  0.00    +0.005 A 
ATOM     13  C   UNL     1       8.632   3.896  13.768  0.00  0.00    +0.005 A 
ATOM     14  C   UNL     1      10.839   4.068  15.459  0.00  0.00    +0.000 A 
ATOM     15  C   UNL     1       9.546   2.845  13.836  0.00  0.00    +0.000 A 
ATOM     16  C   UNL     1      10.648   2.930  14.683  0.00  0.00    +0.000 A 
ENDBRANCH  10  11
ENDBRANCH   1  10
TORSDOF 2
ENDMDL
MODEL 5
REMARK VINA RESULT:    -4.641      1.733      2.391
REMARK INTER + INTRA:          -5.299
REMARK INTER:                  -5.168
REMARK INTRA:                  -0.131
REMARK UNBOUND:                -0.115
REMARK  Name = 1550473
REMARK  2 active torsions:
REMARK  status: ('A' for Active; 'I' for Inactive)
REMARK    1  A    between atoms: N_1  and  C_4
REMARK    2  A    between atoms: C_4  and  C_5
REMARK                            x       y       z     vdW  Elec       q    Type
REMARK                         _______ _______ _______ _____ _____    ______ ____
ROOT
ATOM      1  N   UNL     1       6.771   4.340  14.952  0.00  0.00    -0.354 N 
ATOM      2  N   UNL     1       8.780   5.159  14.141  0.00  0.00    -0.372 N 
ATOM      3  N   UNL     1       8.147   3.025  13.584  0.00  0.00    -0.372 N 
ATOM      4  C   UNL     1       7.886   4.166  14.230  0.00  0.00    +0.166 C 
ATOM      5  H   UNL     1       6.647   5.219  15.442  0.00  0.00    +0.163 HD
ATOM      6  H   UNL     1       9.629   5.058  13.601  0.00  0.00    +0.159 HD
ATOM      7  H   UNL     1       8.632   6.052  14.594  0.00  0.00    +0.159 HD
ATOM      8  H   UNL     1       7.515   2.235  13.616  0.00  0.00    +0.159 HD
ATOM      9  H   UNL     1       8.996   2.901  13.048  0.00  0.00    +0.159 HD
ENDROOT
BRANCH   1  10
ATOM     10  C   UNL     1       5.709   3.342  15.069  0.00  0.00    +0.151 C 
BRANCH  10  11
ATOM     11  C   UNL     1       5.231   3.299  16.494  0.00  0.00    -0.028 A 
ATOM     12  C   UNL     1       4.603   2.152  17.000  0.00  0.00    +0.005 A 
ATOM     13  C   UNL     1       5.407   4.401  17.345  0.00  0.00    +0.005 A 
ATOM     14  C   UNL     1       4.186   2.100  18.332  0.00  0.00    +0.000 A 
ATOM     15  C   UNL     1       4.988   4.346  18.674  0.00  0.00    +0.000 A 
ATOM     16  C   UNL     1       4.379   3.195  19.168  0.00  0.00    +0.000 A 
ENDBRANCH  10  11
ENDBRANCH   1  10
TORSDOF 2
ENDMDL
MODEL 6
REMARK VINA RESULT:    -4.440     28.318     29.695
REMARK INTER + INTRA:          -5.074
REMARK INTER:                  -4.901
REMARK INTRA:                  -0.174
REMARK UNBOUND:                -0.115
REMARK  Name = 1550473
REMARK  2 active torsions:
REMARK  status: ('A' for Active; 'I' for Inactive)
REMARK    1  A    between atoms: N_1  and  C_4
REMARK    2  A    between atoms: C_4  and  C_5
REMARK                            x       y       z     vdW  Elec       q    Type
REMARK                         _______ _______ _______ _____ _____    ______ ____
ROOT
ATOM      1  N   UNL     1       6.160   5.317 -14.072  0.00  0.00    -0.354 N 
ATOM      2  N   UNL     1       4.030   6.036 -14.629  0.00  0.00    -0.372 N 
ATOM      3  N   UNL     1       4.768   6.318 -12.475  0.00  0.00    -0.372 N 
ATOM      4  C   UNL     1       5.000   5.886 -13.719  0.00  0.00    +0.166 C 
ATOM      5  H   UNL     1       6.262   4.983 -15.024  0.00  0.00    +0.163 HD
ATOM      6  H   UNL     1       3.145   6.465 -14.392  0.00  0.00    +0.159 HD
ATOM      7  H   UNL     1       4.152   5.743 -15.590  0.00  0.00    +0.159 HD
ATOM      8  H   UNL     1       5.457   6.229 -11.740  0.00  0.00    +0.159 HD
ATOM      9  H   UNL     1       3.885   6.739 -12.216  0.00  0.00    +0.159 HD
ENDROOT
BRANCH   1  10
ATOM     10  C   UNL     1       7.300   5.156 -13.171  0.00  0.00    +0.151 C 
BRANCH  10  11
ATOM     11  C   UNL     1       7.449   3.700 -12.824  0.00  0.00    -0.028 A 
ATOM     12  C   UNL     1       6.952   3.203 -11.611  0.00  0.00    +0.005 A 
ATOM     13  C   UNL     1       8.083   2.812 -13.707  0.00  0.00    +0.005 A 
ATOM     14  C   UNL     1       7.064   1.845 -11.301  0.00  0.00    +0.000 A 
ATOM     15  C   UNL     1       8.194   1.457 -13.393  0.00  0.00    +0.000 A 
ATOM     16  C   UNL     1       7.682   0.974 -12.192  0.00  0.00    +0.000 A 
ENDBRANCH  10  11
ENDBRANCH   1  10
TORSDOF 2
ENDMDL
MODEL 7
REMARK VINA RESULT:    -4.301     29.624     30.840
REMARK INTER + INTRA:          -4.919
REMARK INTER:                  -4.755
REMARK INTRA:                  -0.163
REMARK UNBOUND:                -0.115
REMARK  Name = 1550473
REMARK  2 active torsions:
REMARK  status: ('A' for Active; 'I' for Inactive)
REMARK    1  A    between atoms: N_1  and  C_4
REMARK    2  A    between atoms: C_4  and  C_5
REMARK                            x       y       z     vdW  Elec       q    Type
REMARK                         _______ _______ _______ _____ _____    ______ ____
ROOT
ATOM      1  N   UNL     1     -12.412  -5.323  -8.867  0.00  0.00    -0.354 N 
ATOM      2  N   UNL     1     -13.784  -6.653 -10.175  0.00  0.00    -0.372 N 
ATOM      3  N   UNL     1     -12.275  -7.660  -8.770  0.00  0.00    -0.372 N 
ATOM      4  C   UNL     1     -12.813  -6.539  -9.261  0.00  0.00    +0.166 C 
ATOM      5  H   UNL     1     -12.838  -4.512  -9.299  0.00  0.00    +0.163 HD
ATOM      6  H   UNL     1     -14.110  -7.557 -10.489  0.00  0.00    +0.159 HD
ATOM      7  H   UNL     1     -14.241  -5.841 -10.572  0.00  0.00    +0.159 HD
ATOM      8  H   UNL     1     -11.534  -7.642  -8.082  0.00  0.00    +0.159 HD
ATOM      9  H   UNL     1     -12.580  -8.574  -9.081  0.00  0.00    +0.159 HD
ENDROOT
BRANCH   1  10
ATOM     10  C   UNL     1     -11.400  -5.089  -7.838  0.00  0.00    +0.151 C 
BRANCH  10  11
ATOM     11  C   UNL     1     -12.078  -4.630  -6.577  0.00  0.00    -0.028 A 
ATOM     12  C   UNL     1     -13.107  -3.679  -6.628  0.00  0.00    +0.005 A 
ATOM     13  C   UNL     1     -11.700  -5.148  -5.328  0.00  0.00    +0.005 A 
ATOM     14  C   UNL     1     -13.758  -3.275  -5.460  0.00  0.00    +0.000 A 
ATOM     15  C   UNL     1     -12.351  -4.741  -4.164  0.00  0.00    +0.000 A 
ATOM     16  C   UNL     1     -13.382  -3.806  -4.231  0.00  0.00    +0.000 A 
ENDBRANCH  10  11
ENDBRANCH   1  10
TORSDOF 2
ENDMDL
MODEL 8
REMARK VINA RESULT:    -4.229      2.965      4.128
REMARK INTER + INTRA:          -4.838
REMARK INTER:                  -4.707
REMARK INTRA:                  -0.131
REMARK UNBOUND:                -0.115
REMARK  Name = 1550473
REMARK  2 active torsions:
REMARK  status: ('A' for Active; 'I' for Inactive)
REMARK    1  A    between atoms: N_1  and  C_4
REMARK    2  A    between atoms: C_4  and  C_5
REMARK                            x       y       z     vdW  Elec       q    Type
REMARK                         _______ _______ _______ _____ _____    ______ ____
ROOT
ATOM      1  N   UNL     1       7.432   4.895  18.005  0.00  0.00    -0.354 N 
ATOM      2  N   UNL     1       8.266   5.302  20.127  0.00  0.00    -0.372 N 
ATOM      3  N   UNL     1       7.506   7.069  18.876  0.00  0.00    -0.372 N 
ATOM      4  C   UNL     1       7.729   5.756  18.988  0.00  0.00    +0.166 C 
ATOM      5  H   UNL     1       7.654   3.915  18.140  0.00  0.00    +0.163 HD
ATOM      6  H   UNL     1       8.498   5.927  20.888  0.00  0.00    +0.159 HD
ATOM      7  H   UNL     1       8.444   4.317  20.277  0.00  0.00    +0.159 HD
ATOM      8  H   UNL     1       7.108   7.476  18.040  0.00  0.00    +0.159 HD
ATOM      9  H   UNL     1       7.741   7.712  19.622  0.00  0.00    +0.159 HD
ENDROOT
BRANCH   1  10
ATOM     10  C   UNL     1       6.795   5.279  16.747  0.00  0.00    +0.151 C 
BRANCH  10  11
ATOM     11  C   UNL     1       5.870   4.177  16.309  0.00  0.00    -0.028 A 
ATOM     12  C   UNL     1       5.669   3.916  14.946  0.00  0.00    +0.005 A 
ATOM     13  C   UNL     1       5.195   3.387  17.252  0.00  0.00    +0.005 A 
ATOM     14  C   UNL     1       4.833   2.874  14.538  0.00  0.00    +0.000 A 
ATOM     15  C   UNL     1       4.361   2.348  16.842  0.00  0.00    +0.000 A 
ATOM     16  C   UNL     1       4.182   2.090  15.485  0.00  0.00    +0.000 A 
ENDBRANCH  10  11
ENDBRANCH   1  10
TORSDOF 2
ENDMDL
MODEL 9
REMARK VINA RESULT:    -4.143     28.929     30.003
REMARK INTER + INTRA:          -4.742
REMARK INTER:                  -4.582
REMARK INTRA:                  -0.160
REMARK UNBOUND:                -0.115
REMARK  Name = 1550473
REMARK  2 active torsions:
REMARK  status: ('A' for Active; 'I' for Inactive)
REMARK    1  A    between atoms: N_1  and  C_4
REMARK    2  A    between atoms: C_4  and  C_5
REMARK                            x       y       z     vdW  Elec       q    Type
REMARK                         _______ _______ _______ _____ _____    ______ ____
ROOT
ATOM      1  N   UNL     1     -13.242  -1.917  -8.353  0.00  0.00    -0.354 N 
ATOM      2  N   UNL     1     -11.888  -0.313  -9.332  0.00  0.00    -0.372 N 
ATOM      3  N   UNL     1     -12.946   0.184  -7.357  0.00  0.00    -0.372 N 
ATOM      4  C   UNL     1     -12.702  -0.691  -8.339  0.00  0.00    +0.166 C 
ATOM      5  H   UNL     1     -13.042  -2.522  -9.141  0.00  0.00    +0.163 HD
ATOM      6  H   UNL     1     -11.463   0.605  -9.347  0.00  0.00    +0.159 HD
ATOM      7  H   UNL     1     -11.653  -0.936 -10.095  0.00  0.00    +0.159 HD
ATOM      8  H   UNL     1     -13.555  -0.038  -6.582  0.00  0.00    +0.159 HD
ATOM      9  H   UNL     1     -12.539   1.111  -7.360  0.00  0.00    +0.159 HD
ENDROOT
BRANCH   1  10
ATOM     10  C   UNL     1     -14.098  -2.445  -7.293  0.00  0.00    +0.151 C 
BRANCH  10  11
ATOM     11  C   UNL     1     -13.289  -3.367  -6.422  0.00  0.00    -0.028 A 
ATOM     12  C   UNL     1     -13.577  -3.490  -5.055  0.00  0.00    +0.005 A 
ATOM     13  C   UNL     1     -12.237  -4.124  -6.960  0.00  0.00    +0.005 A 
ATOM     14  C   UNL     1     -12.845  -4.369  -4.252  0.00  0.00    +0.000 A 
ATOM     15  C   UNL     1     -11.508  -5.000  -6.155  0.00  0.00    +0.000 A 
ATOM     16  C   UNL     1     -11.814  -5.123  -4.802  0.00  0.00    +0.000 A 
ENDBRANCH  10  11
ENDBRANCH   1  10
TORSDOF 2
ENDMDL
