MODEL 1
REMARK VINA RESULT:    -5.355      0.000      0.000
REMARK INTER + INTRA:          -6.077
REMARK INTER:                  -5.981
REMARK INTRA:                  -0.096
REMARK UNBOUND:                -0.096
REMARK  Name = 1550473
REMARK  2 active torsions:
REMARK  status: ('A' for Active; 'I' for Inactive)
REMARK    1  A    between atoms: N_1  and  C_4
REMARK    2  A    between atoms: C_4  and  C_5
REMARK                            x       y       z     vdW  Elec       q    Type
REMARK                         _______ _______ _______ _____ _____    ______ ____
ROOT
ATOM      1  N   UNL     1      -1.004 -14.170   0.827  0.00  0.00    -0.354 N 
ATOM      2  N   UNL     1       0.547 -12.761   1.815  0.00  0.00    -0.372 N 
ATOM      3  N   UNL     1      -0.781 -11.943   0.132  0.00  0.00    -0.372 N 
ATOM      4  C   UNL     1      -0.424 -12.965   0.916  0.00  0.00    +0.166 C 
ATOM      5  H   UNL     1      -0.667 -14.912   1.430  0.00  0.00    +0.163 HD
ATOM      6  H   UNL     1       1.001 -11.862   1.907  0.00  0.00    +0.159 HD
ATOM      7  H   UNL     1       0.850 -13.492   2.447  0.00  0.00    +0.159 HD
ATOM      8  H   UNL     1      -1.502 -12.034  -0.571  0.00  0.00    +0.159 HD
ATOM      9  H   UNL     1      -0.330 -11.039   0.201  0.00  0.00    +0.159 HD
ENDROOT
BRANCH   1  10
ATOM     10  C   UNL     1      -2.106 -14.481  -0.081  0.00  0.00    +0.151 C 
BRANCH  10  11
ATOM     11  C   UNL     1      -2.736 -15.781   0.340  0.00  0.00    -0.028 A 
ATOM     12  C   UNL     1      -2.453 -16.966  -0.354  0.00  0.00    +0.005 A 
ATOM     13  C   UNL     1      -3.613 -15.833   1.434  0.00  0.00    +0.005 A 
ATOM     14  C   UNL     1      -3.015 -18.178   0.055  0.00  0.00    +0.000 A 
ATOM     15  C   UNL     1      -4.172 -17.045   1.839  0.00  0.00    +0.000 A 
ATOM     16  C   UNL     1      -3.871 -18.218   1.150  0.00  0.00    +0.000 A 
ENDBRANCH  10  11
ENDBRANCH   1  10
TORSDOF 2
ENDMDL
MODEL 2
REMARK VINA RESULT:    -4.896      2.169      3.294
REMARK INTER + INTRA:          -5.565
REMARK INTER:                  -5.433
REMARK INTRA:                  -0.131
REMARK UNBOUND:                -0.096
REMARK  Name = 1550473
REMARK  2 active torsions:
REMARK  status: ('A' for Active; 'I' for Inactive)
REMARK    1  A    between atoms: N_1  and  C_4
REMARK    2  A    between atoms: C_4  and  C_5
REMARK                            x       y       z     vdW  Elec       q    Type
REMARK                         _______ _______ _______ _____ _____    ______ ____
ROOT
ATOM      1  N   UNL     1       0.744 -13.261   3.206  0.00  0.00    -0.354 N 
ATOM      2  N   UNL     1       1.018 -11.342   4.474  0.00  0.00    -0.372 N 
ATOM      3  N   UNL     1       2.164 -11.537   2.495  0.00  0.00    -0.372 N 
ATOM      4  C   UNL     1       1.309 -12.059   3.381  0.00  0.00    +0.166 C 
ATOM      5  H   UNL     1       0.128 -13.613   3.929  0.00  0.00    +0.163 HD
ATOM      6  H   UNL     1       1.426 -10.430   4.631  0.00  0.00    +0.159 HD
ATOM      7  H   UNL     1       0.366 -11.677   5.173  0.00  0.00    +0.159 HD
ATOM      8  H   UNL     1       2.429 -12.030   1.653  0.00  0.00    +0.159 HD
ATOM      9  H   UNL     1       2.591 -10.631   2.641  0.00  0.00    +0.159 HD
ENDROOT
BRANCH   1  10
ATOM     10  C   UNL     1       0.952 -14.098   2.026  0.00  0.00    +0.151 C 
BRANCH  10  11
ATOM     11  C   UNL     1      -0.385 -14.494   1.463  0.00  0.00    -0.028 A 
ATOM     12  C   UNL     1      -0.999 -15.690   1.862  0.00  0.00    +0.005 A 
ATOM     13  C   UNL     1      -1.045 -13.675   0.534  0.00  0.00    +0.005 A 
ATOM     14  C   UNL     1      -2.254 -16.044   1.362  0.00  0.00    +0.000 A 
ATOM     15  C   UNL     1      -2.298 -14.032   0.037  0.00  0.00    +0.000 A 
ATOM     16  C   UNL     1      -2.904 -15.216   0.453  0.00  0.00    +0.000 A 
ENDBRANCH  10  11
ENDBRANCH   1  10
TORSDOF 2
ENDMDL
MODEL 3
REMARK VINA RESULT:    -4.827     29.690     31.054
REMARK INTER + INTRA:          -5.488
REMARK INTER:                  -5.311
REMARK INTRA:                  -0.177
REMARK UNBOUND:                -0.096
REMARK  Name = 1550473
REMARK  2 active torsions:
REMARK  status: ('A' for Active; 'I' for Inactive)
REMARK    1  A    between atoms: N_1  and  C_4
REMARK    2  A    between atoms: C_4  and  C_5
REMARK                            x       y       z     vdW  Elec       q    Type
REMARK                         _______ _______ _______ _____ _____    ______ ____
ROOT
ATOM      1  N   UNL     1      -7.210  -2.756 -25.658  0.00  0.00    -0.354 N 
ATOM      2  N   UNL     1      -6.903  -4.776 -26.750  0.00  0.00    -0.372 N 
ATOM      3  N   UNL     1      -8.602  -4.590 -25.218  0.00  0.00    -0.372 N 
ATOM      4  C   UNL     1      -7.576  -4.028 -25.866  0.00  0.00    +0.166 C 
ATOM      5  H   UNL     1      -6.405  -2.399 -26.158  0.00  0.00    +0.163 HD
ATOM      6  H   UNL     1      -7.158  -5.737 -26.931  0.00  0.00    +0.159 HD
ATOM      7  H   UNL     1      -6.127  -4.402 -27.282  0.00  0.00    +0.159 HD
ATOM      8  H   UNL     1      -9.147  -4.081 -24.535  0.00  0.00    +0.159 HD
ATOM      9  H   UNL     1      -8.865  -5.555 -25.378  0.00  0.00    +0.159 HD
ENDROOT
BRANCH   1  10
ATOM     10  C   UNL     1      -7.910  -1.842 -24.757  0.00  0.00    +0.151 C 
BRANCH  10  11
ATOM     11  C   UNL     1      -8.766  -0.911 -25.570  0.00  0.00    -0.028 A 
ATOM     12  C   UNL     1     -10.159  -0.900 -25.409  0.00  0.00    +0.005 A 
ATOM     13  C   UNL     1      -8.189  -0.032 -26.500  0.00  0.00    +0.005 A 
ATOM     14  C   UNL     1     -10.952  -0.015 -26.142  0.00  0.00    +0.000 A 
ATOM     15  C   UNL     1      -8.984   0.851 -27.231  0.00  0.00    +0.000 A 
ATOM     16  C   UNL     1     -10.365   0.861 -27.050  0.00  0.00    +0.000 A 
ENDBRANCH  10  11
ENDBRANCH   1  10
TORSDOF 2
ENDMDL
MODEL 4
REMARK VINA RESULT:    -4.711     20.561     22.067
REMARK INTER + INTRA:          -5.358
REMARK INTER:                  -5.236
REMARK INTRA:                  -0.122
REMARK UNBOUND:                -0.096
REMARK  Name = 1550473
REMARK  2 active torsions:
REMARK  status: ('A' for Active; 'I' for Inactive)
REMARK    1  A    between atoms: N_1  and  C_4
REMARK    2  A    between atoms: C_4  and  C_5
REMARK                            x       y       z     vdW  Elec       q    Type
REMARK                         _______ _______ _______ _____ _____    ______ ____
ROOT
ATOM      1  N   UNL     1      -8.326   6.498   5.805  0.00  0.00    -0.354 N 
ATOM      2  N   UNL     1      -7.041   8.411   5.574  0.00  0.00    -0.372 N 
ATOM      3  N   UNL     1      -9.015   8.254   4.415  0.00  0.00    -0.372 N 
ATOM      4  C   UNL     1      -8.137   7.709   5.264  0.00  0.00    +0.166 C 
ATOM      5  H   UNL     1      -7.608   6.128   6.418  0.00  0.00    +0.163 HD
ATOM      6  H   UNL     1      -6.873   9.329   5.185  0.00  0.00    +0.159 HD
ATOM      7  H   UNL     1      -6.348   8.058   6.223  0.00  0.00    +0.159 HD
ATOM      8  H   UNL     1      -9.859   7.774   4.136  0.00  0.00    +0.159 HD
ATOM      9  H   UNL     1      -8.859   9.167   4.005  0.00  0.00    +0.159 HD
ENDROOT
BRANCH   1  10
ATOM     10  C   UNL     1      -9.512   5.675   5.575  0.00  0.00    +0.151 C 
BRANCH  10  11
ATOM     11  C   UNL     1      -9.287   4.312   6.170  0.00  0.00    -0.028 A 
ATOM     12  C   UNL     1     -10.370   3.454   6.412  0.00  0.00    +0.005 A 
ATOM     13  C   UNL     1      -7.993   3.871   6.488  0.00  0.00    +0.005 A 
ATOM     14  C   UNL     1     -10.159   2.177   6.937  0.00  0.00    +0.000 A 
ATOM     15  C   UNL     1      -7.787   2.595   7.013  0.00  0.00    +0.000 A 
ATOM     16  C   UNL     1      -8.870   1.748   7.235  0.00  0.00    +0.000 A 
ENDBRANCH  10  11
ENDBRANCH   1  10
TORSDOF 2
ENDMDL
MODEL 5
REMARK VINA RESULT:    -4.671     30.156     31.267
REMARK INTER + INTRA:          -5.314
REMARK INTER:                  -5.183
REMARK INTRA:                  -0.131
REMARK UNBOUND:                -0.096
REMARK  Name = 1550473
REMARK  2 active torsions:
REMARK  status: ('A' for Active; 'I' for Inactive)
REMARK    1  A    between atoms: N_1  and  C_4
REMARK    2  A    between atoms: C_4  and  C_5
REMARK                            x       y       z     vdW  Elec       q    Type
REMARK                         _______ _______ _______ _____ _____    ______ ____
ROOT
ATOM      1  N   UNL     1      10.094   3.332  23.294  0.00  0.00    -0.354 N 
ATOM      2  N   UNL     1       9.982   5.568  23.885  0.00  0.00    -0.372 N 
ATOM      3  N   UNL     1      10.628   5.015  21.754  0.00  0.00    -0.372 N 
ATOM      4  C   UNL     1      10.236   4.624  22.972  0.00  0.00    +0.166 C 
ATOM      5  H   UNL     1       9.823   3.100  24.243  0.00  0.00    +0.163 HD
ATOM      6  H   UNL     1      10.077   6.552  23.670  0.00  0.00    +0.159 HD
ATOM      7  H   UNL     1       9.667   5.335  24.819  0.00  0.00    +0.159 HD
ATOM      8  H   UNL     1      10.842   4.352  21.022  0.00  0.00    +0.159 HD
ATOM      9  H   UNL     1      10.741   5.995  21.523  0.00  0.00    +0.159 HD
ENDROOT
BRANCH   1  10
ATOM     10  C   UNL     1      10.294   2.228  22.357  0.00  0.00    +0.151 C 
BRANCH  10  11
ATOM     11  C   UNL     1      10.715   1.004  23.123  0.00  0.00    -0.028 A 
ATOM     12  C   UNL     1      10.965   1.077  24.501  0.00  0.00    +0.005 A 
ATOM     13  C   UNL     1      10.861  -0.233  22.476  0.00  0.00    +0.005 A 
ATOM     14  C   UNL     1      11.327  -0.066  25.218  0.00  0.00    +0.000 A 
ATOM     15  C   UNL     1      11.224  -1.372  23.196  0.00  0.00    +0.000 A 
ATOM     16  C   UNL     1      11.454  -1.288  24.567  0.00  0.00    +0.000 A 
ENDBRANCH  10  11
ENDBRANCH   1  10
TORSDOF 2
ENDMDL
MODEL 6
REMARK VINA RESULT:    -4.621     29.401     30.052
REMARK INTER + INTRA:          -5.257
REMARK INTER:                  -5.157
REMARK INTRA:                  -0.100
REMARK UNBOUND:                -0.096
REMARK  Name = 1550473
REMARK  2 active torsions:
REMARK  status: ('A' for Active; 'I' for Inactive)
REMARK    1  A    between atoms: N_1  and  C_4
REMARK    2  A    between atoms: C_4  and  C_5
REMARK                            x       y       z     vdW  Elec       q    Type
REMARK                         _______ _______ _______ _____ _____    ______ ____
ROOT
ATOM      1  N   UNL     1      -7.842  -4.777 -27.416  0.00  0.00    -0.354 N 
ATOM      2  N   UNL     1      -8.046  -5.953 -29.400  0.00  0.00    -0.372 N 
ATOM      3  N   UNL     1      -6.372  -6.525 -27.939  0.00  0.00    -0.372 N 
ATOM      4  C   UNL     1      -7.416  -5.745 -28.237  0.00  0.00    +0.166 C 
ATOM      5  H   UNL     1      -8.620  -4.200 -27.714  0.00  0.00    +0.163 HD
ATOM      6  H   UNL     1      -7.750  -6.679 -30.039  0.00  0.00    +0.159 HD
ATOM      7  H   UNL     1      -8.852  -5.406 -29.675  0.00  0.00    +0.159 HD
ATOM      8  H   UNL     1      -5.850  -6.416 -27.079  0.00  0.00    +0.159 HD
ATOM      9  H   UNL     1      -6.053  -7.249 -28.570  0.00  0.00    +0.159 HD
ENDROOT
BRANCH   1  10
ATOM     10  C   UNL     1      -7.259  -4.504 -26.103  0.00  0.00    +0.151 C 
BRANCH  10  11
ATOM     11  C   UNL     1      -8.186  -3.604 -25.332  0.00  0.00    -0.028 A 
ATOM     12  C   UNL     1      -7.818  -2.281 -25.047  0.00  0.00    +0.005 A 
ATOM     13  C   UNL     1      -9.435  -4.066 -24.890  0.00  0.00    +0.005 A 
ATOM     14  C   UNL     1      -8.691  -1.435 -24.357  0.00  0.00    +0.000 A 
ATOM     15  C   UNL     1     -10.303  -3.219 -24.201  0.00  0.00    +0.000 A 
ATOM     16  C   UNL     1      -9.931  -1.903 -23.937  0.00  0.00    +0.000 A 
ENDBRANCH  10  11
ENDBRANCH   1  10
TORSDOF 2
ENDMDL
MODEL 7
REMARK VINA RESULT:    -4.518     27.027     28.153
REMARK INTER + INTRA:          -5.142
REMARK INTER:                  -5.023
REMARK INTRA:                  -0.119
REMARK UNBOUND:                -0.096
REMARK  Name = 1550473
REMARK  2 active torsions:
REMARK  status: ('A' for Active; 'I' for Inactive)
REMARK    1  A    between atoms: N_1  and  C_4
REMARK    2  A    between atoms: C_4  and  C_5
REMARK                            x       y       z     vdW  Elec       q    Type
REMARK                         _______ _______ _______ _____ _____    ______ ____
ROOT
ATOM      1  N   UNL     1      -9.165  -3.246 -24.895  0.00  0.00    -0.354 N 
ATOM      2  N   UNL     1      -7.570  -1.782 -25.718  0.00  0.00    -0.372 N 
ATOM      3  N   UNL     1      -7.268  -4.037 -26.019  0.00  0.00    -0.372 N 
ATOM      4  C   UNL     1      -8.010  -3.034 -25.539  0.00  0.00    +0.166 C 
ATOM      5  H   UNL     1      -9.666  -2.444 -24.529  0.00  0.00    +0.163 HD
ATOM      6  H   UNL     1      -6.704  -1.591 -26.204  0.00  0.00    +0.159 HD
ATOM      7  H   UNL     1      -8.096  -0.981 -25.391  0.00  0.00    +0.159 HD
ATOM      8  H   UNL     1      -7.541  -5.005 -25.912  0.00  0.00    +0.159 HD
ATOM      9  H   UNL     1      -6.392  -3.867 -26.498  0.00  0.00    +0.159 HD
ENDROOT
BRANCH   1  10
ATOM     10  C   UNL     1      -9.760  -4.566 -24.695  0.00  0.00    +0.151 C 
BRANCH  10  11
ATOM     11  C   UNL     1     -10.606  -4.540 -23.452  0.00  0.00    -0.028 A 
ATOM     12  C   UNL     1     -10.758  -5.695 -22.670  0.00  0.00    +0.005 A 
ATOM     13  C   UNL     1     -11.255  -3.363 -23.048  0.00  0.00    +0.005 A 
ATOM     14  C   UNL     1     -11.520  -5.663 -21.499  0.00  0.00    +0.000 A 
ATOM     15  C   UNL     1     -12.015  -3.336 -21.879  0.00  0.00    +0.000 A 
ATOM     16  C   UNL     1     -12.146  -4.486 -21.104  0.00  0.00    +0.000 A 
ENDBRANCH  10  11
ENDBRANCH   1  10
TORSDOF 2
ENDMDL
MODEL 8
REMARK VINA RESULT:    -4.452      3.083      4.535
REMARK INTER + INTRA:          -5.069
REMARK INTER:                  -4.972
REMARK INTRA:                  -0.097
REMARK UNBOUND:                -0.096
REMARK  Name = 1550473
REMARK  2 active torsions:
REMARK  status: ('A' for Active; 'I' for Inactive)
REMARK    1  A    between atoms: N_1  and  C_4
REMARK    2  A    between atoms: C_4  and  C_5
REMARK                            x       y       z     vdW  Elec       q    Type
REMARK                         _______ _______ _______ _____ _____    ______ ____
ROOT
ATOM      1  N   UNL     1      -2.970 -16.885   3.478  0.00  0.00    -0.354 N 
ATOM      2  N   UNL     1      -2.310 -17.004   5.695  0.00  0.00    -0.372 N 
ATOM      3  N   UNL     1      -4.522 -16.625   5.214  0.00  0.00    -0.372 N 
ATOM      4  C   UNL     1      -3.274 -16.836   4.781  0.00  0.00    +0.166 C 
ATOM      5  H   UNL     1      -2.000 -17.018   3.215  0.00  0.00    +0.163 HD
ATOM      6  H   UNL     1      -2.511 -16.976   6.685  0.00  0.00    +0.159 HD
ATOM      7  H   UNL     1      -1.350 -17.183   5.429  0.00  0.00    +0.159 HD
ATOM      8  H   UNL     1      -5.293 -16.485   4.576  0.00  0.00    +0.159 HD
ATOM      9  H   UNL     1      -4.740 -16.582   6.202  0.00  0.00    +0.159 HD
ENDROOT
BRANCH   1  10
ATOM     10  C   UNL     1      -3.954 -16.768   2.403  0.00  0.00    +0.151 C 
BRANCH  10  11
ATOM     11  C   UNL     1      -3.250 -16.376   1.133  0.00  0.00    -0.028 A 
ATOM     12  C   UNL     1      -2.973 -15.028   0.860  0.00  0.00    +0.005 A 
ATOM     13  C   UNL     1      -2.853 -17.347   0.201  0.00  0.00    +0.005 A 
ATOM     14  C   UNL     1      -2.293 -14.666  -0.305  0.00  0.00    +0.000 A 
ATOM     15  C   UNL     1      -2.175 -16.981  -0.961  0.00  0.00    +0.000 A 
ATOM     16  C   UNL     1      -1.893 -15.641  -1.213  0.00  0.00    +0.000 A 
ENDBRANCH  10  11
ENDBRANCH   1  10
TORSDOF 2
ENDMDL
MODEL 9
REMARK VINA RESULT:    -4.421     17.517     18.305
REMARK INTER + INTRA:          -5.034
REMARK INTER:                  -4.875
REMARK INTRA:                  -0.159
REMARK UNBOUND:                -0.096
REMARK  Name = 1550473
REMARK  2 active torsions:
REMARK  status: ('A' for Active; 'I' for Inactive)
REMARK    1  A    between atoms: N_1  and  C_4
REMARK    2  A    between atoms: C_4  and  C_5
REMARK                            x       y       z     vdW  Elec       q    Type
REMARK                         _______ _______ _______ _____ _____    ______ ____
ROOT
ATOM      1  N   UNL     1     -17.105  -9.811  -2.759  0.00  0.00    -0.354 N 
ATOM      2  N   UNL     1     -17.259 -12.076  -2.301  0.00  0.00    -0.372 N 
ATOM      3  N   UNL     1     -16.277 -11.407  -4.264  0.00  0.00    -0.372 N 
ATOM      4  C   UNL     1     -16.878 -11.083  -3.114  0.00  0.00    +0.166 C 
ATOM      5  H   UNL     1     -17.592  -9.633  -1.889  0.00  0.00    +0.163 HD
ATOM      6  H   UNL     1     -17.099 -13.045  -2.540  0.00  0.00    +0.159 HD
ATOM      7  H   UNL     1     -17.705 -11.894  -1.410  0.00  0.00    +0.159 HD
ATOM      8  H   UNL     1     -15.971 -10.704  -4.924  0.00  0.00    +0.159 HD
ATOM      9  H   UNL     1     -16.119 -12.371  -4.526  0.00  0.00    +0.159 HD
ENDROOT
BRANCH   1  10
ATOM     10  C   UNL     1     -16.681  -8.655  -3.548  0.00  0.00    +0.151 C 
BRANCH  10  11
ATOM     11  C   UNL     1     -17.892  -8.010  -4.162  0.00  0.00    -0.028 A 
ATOM     12  C   UNL     1     -19.023  -7.730  -3.382  0.00  0.00    +0.005 A 
ATOM     13  C   UNL     1     -17.913  -7.670  -5.524  0.00  0.00    +0.005 A 
ATOM     14  C   UNL     1     -20.137  -7.103  -3.946  0.00  0.00    +0.000 A 
ATOM     15  C   UNL     1     -19.027  -7.045  -6.083  0.00  0.00    +0.000 A 
ATOM     16  C   UNL     1     -20.138  -6.759  -5.293  0.00  0.00    +0.000 A 
ENDBRANCH  10  11
ENDBRANCH   1  10
TORSDOF 2
ENDMDL
