MODEL 1
REMARK VINA RESULT:    -5.995      0.000      0.000
REMARK INTER + INTRA:          -6.868
REMARK INTER:                  -6.696
REMARK INTRA:                  -0.172
REMARK UNBOUND:                -0.172
REMARK  Name = 1550473
REMARK  2 active torsions:
REMARK  status: ('A' for Active; 'I' for Inactive)
REMARK    1  A    between atoms: N_1  and  C_4
REMARK    2  A    between atoms: C_4  and  C_5
REMARK                            x       y       z     vdW  Elec       q    Type
REMARK                         _______ _______ _______ _____ _____    ______ ____
ROOT
ATOM      1  N   UNL     1       3.088   6.149  -0.495  0.00  0.00    -0.354 N 
ATOM      2  N   UNL     1       2.545   5.829   1.734  0.00  0.00    -0.372 N 
ATOM      3  N   UNL     1       1.029   5.216   0.124  0.00  0.00    -0.372 N 
ATOM      4  C   UNL     1       2.222   5.733   0.438  0.00  0.00    +0.166 C 
ATOM      5  H   UNL     1       3.964   6.559  -0.191  0.00  0.00    +0.163 HD
ATOM      6  H   UNL     1       1.913   5.520   2.460  0.00  0.00    +0.159 HD
ATOM      7  H   UNL     1       3.440   6.197   2.034  0.00  0.00    +0.159 HD
ATOM      8  H   UNL     1       0.723   5.121  -0.835  0.00  0.00    +0.159 HD
ATOM      9  H   UNL     1       0.378   4.912   0.837  0.00  0.00    +0.159 HD
ENDROOT
BRANCH   1  10
ATOM     10  C   UNL     1       2.855   6.038  -1.934  0.00  0.00    +0.151 C 
BRANCH  10  11
ATOM     11  C   UNL     1       3.650   4.881  -2.473  0.00  0.00    -0.028 A 
ATOM     12  C   UNL     1       4.935   5.082  -2.999  0.00  0.00    +0.005 A 
ATOM     13  C   UNL     1       3.126   3.579  -2.455  0.00  0.00    +0.005 A 
ATOM     14  C   UNL     1       5.685   4.003  -3.472  0.00  0.00    +0.000 A 
ATOM     15  C   UNL     1       3.878   2.504  -2.928  0.00  0.00    +0.000 A 
ATOM     16  C   UNL     1       5.159   2.716  -3.435  0.00  0.00    +0.000 A 
ENDBRANCH  10  11
ENDBRANCH   1  10
TORSDOF 2
ENDMDL
MODEL 2
REMARK VINA RESULT:    -5.634      2.805      4.464
REMARK INTER + INTRA:          -6.465
REMARK INTER:                  -6.288
REMARK INTRA:                  -0.177
REMARK UNBOUND:                -0.172
REMARK  Name = 1550473
REMARK  2 active torsions:
REMARK  status: ('A' for Active; 'I' for Inactive)
REMARK    1  A    between atoms: N_1  and  C_4
REMARK    2  A    between atoms: C_4  and  C_5
REMARK                            x       y       z     vdW  Elec       q    Type
REMARK                         _______ _______ _______ _____ _____    ______ ____
ROOT
ATOM      1  N   UNL     1       4.636   3.188  -2.420  0.00  0.00    -0.354 N 
ATOM      2  N   UNL     1       4.373   1.365  -3.824  0.00  0.00    -0.372 N 
ATOM      3  N   UNL     1       2.734   1.826  -2.286  0.00  0.00    -0.372 N 
ATOM      4  C   UNL     1       3.913   2.138  -2.833  0.00  0.00    +0.166 C 
ATOM      5  H   UNL     1       5.536   3.354  -2.855  0.00  0.00    +0.163 HD
ATOM      6  H   UNL     1       3.848   0.568  -4.159  0.00  0.00    +0.159 HD
ATOM      7  H   UNL     1       5.252   1.560  -4.288  0.00  0.00    +0.159 HD
ATOM      8  H   UNL     1       2.334   2.366  -1.530  0.00  0.00    +0.159 HD
ATOM      9  H   UNL     1       2.199   1.025  -2.599  0.00  0.00    +0.159 HD
ENDROOT
BRANCH   1  10
ATOM     10  C   UNL     1       4.201   4.124  -1.385  0.00  0.00    +0.151 C 
BRANCH  10  11
ATOM     11  C   UNL     1       3.515   5.293  -2.036  0.00  0.00    -0.028 A 
ATOM     12  C   UNL     1       2.153   5.539  -1.805  0.00  0.00    +0.005 A 
ATOM     13  C   UNL     1       4.222   6.163  -2.881  0.00  0.00    +0.005 A 
ATOM     14  C   UNL     1       1.523   6.642  -2.386  0.00  0.00    +0.000 A 
ATOM     15  C   UNL     1       3.589   7.262  -3.459  0.00  0.00    +0.000 A 
ATOM     16  C   UNL     1       2.240   7.503  -3.210  0.00  0.00    +0.000 A 
ENDBRANCH  10  11
ENDBRANCH   1  10
TORSDOF 2
ENDMDL
MODEL 3
REMARK VINA RESULT:    -5.507      2.132      2.911
REMARK INTER + INTRA:          -6.323
REMARK INTER:                  -6.212
REMARK INTRA:                  -0.111
REMARK UNBOUND:                -0.172
REMARK  Name = 1550473
REMARK  2 active torsions:
REMARK  status: ('A' for Active; 'I' for Inactive)
REMARK    1  A    between atoms: N_1  and  C_4
REMARK    2  A    between atoms: C_4  and  C_5
REMARK                            x       y       z     vdW  Elec       q    Type
REMARK                         _______ _______ _______ _____ _____    ______ ____
ROOT
ATOM      1  N   UNL     1       2.596   6.805  -2.529  0.00  0.00    -0.354 N 
ATOM      2  N   UNL     1       0.816   8.269  -2.756  0.00  0.00    -0.372 N 
ATOM      3  N   UNL     1       2.766   9.031  -1.816  0.00  0.00    -0.372 N 
ATOM      4  C   UNL     1       2.073   8.027  -2.364  0.00  0.00    +0.166 C 
ATOM      5  H   UNL     1       2.009   6.079  -2.923  0.00  0.00    +0.163 HD
ATOM      6  H   UNL     1       0.395   9.182  -2.648  0.00  0.00    +0.159 HD
ATOM      7  H   UNL     1       0.247   7.554  -3.192  0.00  0.00    +0.159 HD
ATOM      8  H   UNL     1       3.717   8.911  -1.494  0.00  0.00    +0.159 HD
ATOM      9  H   UNL     1       2.358   9.948  -1.688  0.00  0.00    +0.159 HD
ENDROOT
BRANCH   1  10
ATOM     10  C   UNL     1       3.972   6.451  -2.185  0.00  0.00    +0.151 C 
BRANCH  10  11
ATOM     11  C   UNL     1       4.228   5.024  -2.585  0.00  0.00    -0.028 A 
ATOM     12  C   UNL     1       3.251   4.040  -2.373  0.00  0.00    +0.005 A 
ATOM     13  C   UNL     1       5.442   4.651  -3.181  0.00  0.00    +0.005 A 
ATOM     14  C   UNL     1       3.476   2.720  -2.772  0.00  0.00    +0.000 A 
ATOM     15  C   UNL     1       5.663   3.332  -3.577  0.00  0.00    +0.000 A 
ATOM     16  C   UNL     1       4.679   2.368  -3.375  0.00  0.00    +0.000 A 
ENDBRANCH  10  11
ENDBRANCH   1  10
TORSDOF 2
ENDMDL
MODEL 4
REMARK VINA RESULT:    -5.448      1.475      1.957
REMARK INTER + INTRA:          -6.256
REMARK INTER:                  -6.118
REMARK INTRA:                  -0.138
REMARK UNBOUND:                -0.172
REMARK  Name = 1550473
REMARK  2 active torsions:
REMARK  status: ('A' for Active; 'I' for Inactive)
REMARK    1  A    between atoms: N_1  and  C_4
REMARK    2  A    between atoms: C_4  and  C_5
REMARK                            x       y       z     vdW  Elec       q    Type
REMARK                         _______ _______ _______ _____ _____    ______ ____
ROOT
ATOM      1  N   UNL     1       2.721   6.124  -2.503  0.00  0.00    -0.354 N 
ATOM      2  N   UNL     1       0.508   6.783  -2.672  0.00  0.00    -0.372 N 
ATOM      3  N   UNL     1       1.228   5.807  -0.725  0.00  0.00    -0.372 N 
ATOM      4  C   UNL     1       1.500   6.232  -1.963  0.00  0.00    +0.166 C 
ATOM      5  H   UNL     1       2.855   6.438  -3.457  0.00  0.00    +0.163 HD
ATOM      6  H   UNL     1      -0.423   6.882  -2.290  0.00  0.00    +0.159 HD
ATOM      7  H   UNL     1       0.656   7.138  -3.609  0.00  0.00    +0.159 HD
ATOM      8  H   UNL     1       1.932   5.376  -0.140  0.00  0.00    +0.159 HD
ATOM      9  H   UNL     1       0.299   5.886  -0.329  0.00  0.00    +0.159 HD
ENDROOT
BRANCH   1  10
ATOM     10  C   UNL     1       3.883   5.588  -1.796  0.00  0.00    +0.151 C 
BRANCH  10  11
ATOM     11  C   UNL     1       4.316   4.310  -2.459  0.00  0.00    -0.028 A 
ATOM     12  C   UNL     1       5.631   4.158  -2.924  0.00  0.00    +0.005 A 
ATOM     13  C   UNL     1       3.417   3.244  -2.620  0.00  0.00    +0.005 A 
ATOM     14  C   UNL     1       6.041   2.960  -3.513  0.00  0.00    +0.000 A 
ATOM     15  C   UNL     1       3.831   2.049  -3.210  0.00  0.00    +0.000 A 
ATOM     16  C   UNL     1       5.144   1.907  -3.654  0.00  0.00    +0.000 A 
ENDBRANCH  10  11
ENDBRANCH   1  10
TORSDOF 2
ENDMDL
MODEL 5
REMARK VINA RESULT:    -5.226      3.416      4.598
REMARK INTER + INTRA:          -6.008
REMARK INTER:                  -5.839
REMARK INTRA:                  -0.169
REMARK UNBOUND:                -0.172
REMARK  Name = 1550473
REMARK  2 active torsions:
REMARK  status: ('A' for Active; 'I' for Inactive)
REMARK    1  A    between atoms: N_1  and  C_4
REMARK    2  A    between atoms: C_4  and  C_5
REMARK                            x       y       z     vdW  Elec       q    Type
REMARK                         _______ _______ _______ _____ _____    ______ ____
ROOT
ATOM      1  N   UNL     1       5.390   1.370  -2.266  0.00  0.00    -0.354 N 
ATOM      2  N   UNL     1       6.175   0.336  -0.348  0.00  0.00    -0.372 N 
ATOM      3  N   UNL     1       7.597   1.683  -1.543  0.00  0.00    -0.372 N 
ATOM      4  C   UNL     1       6.385   1.137  -1.399  0.00  0.00    +0.166 C 
ATOM      5  H   UNL     1       4.503   0.902  -2.118  0.00  0.00    +0.163 HD
ATOM      6  H   UNL     1       6.905   0.144   0.325  0.00  0.00    +0.159 HD
ATOM      7  H   UNL     1       5.274  -0.094  -0.177  0.00  0.00    +0.159 HD
ATOM      8  H   UNL     1       7.822   2.292  -2.318  0.00  0.00    +0.159 HD
ATOM      9  H   UNL     1       8.345   1.494  -0.887  0.00  0.00    +0.159 HD
ENDROOT
BRANCH   1  10
ATOM     10  C   UNL     1       5.499   2.269  -3.413  0.00  0.00    +0.151 C 
BRANCH  10  11
ATOM     11  C   UNL     1       4.818   3.569  -3.084  0.00  0.00    -0.028 A 
ATOM     12  C   UNL     1       5.439   4.792  -3.378  0.00  0.00    +0.005 A 
ATOM     13  C   UNL     1       3.550   3.585  -2.485  0.00  0.00    +0.005 A 
ATOM     14  C   UNL     1       4.794   6.000  -3.100  0.00  0.00    +0.000 A 
ATOM     15  C   UNL     1       2.909   4.793  -2.208  0.00  0.00    +0.000 A 
ATOM     16  C   UNL     1       3.531   6.000  -2.518  0.00  0.00    +0.000 A 
ENDBRANCH  10  11
ENDBRANCH   1  10
TORSDOF 2
ENDMDL
MODEL 6
REMARK VINA RESULT:    -5.221      3.521      5.011
REMARK INTER + INTRA:          -6.003
REMARK INTER:                  -5.838
REMARK INTRA:                  -0.165
REMARK UNBOUND:                -0.172
REMARK  Name = 1550473
REMARK  2 active torsions:
REMARK  status: ('A' for Active; 'I' for Inactive)
REMARK    1  A    between atoms: N_1  and  C_4
REMARK    2  A    between atoms: C_4  and  C_5
REMARK                            x       y       z     vdW  Elec       q    Type
REMARK                         _______ _______ _______ _____ _____    ______ ____
ROOT
ATOM      1  N   UNL     1       5.862   6.423  -4.372  0.00  0.00    -0.354 N 
ATOM      2  N   UNL     1       5.779   7.406  -6.468  0.00  0.00    -0.372 N 
ATOM      3  N   UNL     1       7.427   5.871  -6.027  0.00  0.00    -0.372 N 
ATOM      4  C   UNL     1       6.359   6.559  -5.609  0.00  0.00    +0.166 C 
ATOM      5  H   UNL     1       5.069   6.995  -4.107  0.00  0.00    +0.163 HD
ATOM      6  H   UNL     1       6.130   7.527  -7.408  0.00  0.00    +0.159 HD
ATOM      7  H   UNL     1       4.959   7.942  -6.215  0.00  0.00    +0.159 HD
ATOM      8  H   UNL     1       7.914   5.220  -5.425  0.00  0.00    +0.159 HD
ATOM      9  H   UNL     1       7.800   5.987  -6.961  0.00  0.00    +0.159 HD
ENDROOT
BRANCH   1  10
ATOM     10  C   UNL     1       6.387   5.488  -3.378  0.00  0.00    +0.151 C 
BRANCH  10  11
ATOM     11  C   UNL     1       5.398   4.371  -3.184  0.00  0.00    -0.028 A 
ATOM     12  C   UNL     1       4.164   4.612  -2.563  0.00  0.00    +0.005 A 
ATOM     13  C   UNL     1       5.688   3.071  -3.626  0.00  0.00    +0.005 A 
ATOM     14  C   UNL     1       3.234   3.582  -2.410  0.00  0.00    +0.000 A 
ATOM     15  C   UNL     1       4.756   2.045  -3.470  0.00  0.00    +0.000 A 
ATOM     16  C   UNL     1       3.529   2.301  -2.865  0.00  0.00    +0.000 A 
ENDBRANCH  10  11
ENDBRANCH   1  10
TORSDOF 2
ENDMDL
MODEL 7
REMARK VINA RESULT:    -5.113     12.742     13.917
REMARK INTER + INTRA:          -5.883
REMARK INTER:                  -5.750
REMARK INTRA:                  -0.133
REMARK UNBOUND:                -0.172
REMARK  Name = 1550473
REMARK  2 active torsions:
REMARK  status: ('A' for Active; 'I' for Inactive)
REMARK    1  A    between atoms: N_1  and  C_4
REMARK    2  A    between atoms: C_4  and  C_5
REMARK                            x       y       z     vdW  Elec       q    Type
REMARK                         _______ _______ _______ _____ _____    ______ ____
ROOT
ATOM      1  N   UNL     1       8.018  -8.723   2.272  0.00  0.00    -0.354 N 
ATOM      2  N   UNL     1       8.972  -9.441   4.257  0.00  0.00    -0.372 N 
ATOM      3  N   UNL     1       9.351 -10.650   2.344  0.00  0.00    -0.372 N 
ATOM      4  C   UNL     1       8.775  -9.602   2.943  0.00  0.00    +0.166 C 
ATOM      5  H   UNL     1       7.585  -7.968   2.790  0.00  0.00    +0.163 HD
ATOM      6  H   UNL     1       9.540 -10.086   4.790  0.00  0.00    +0.159 HD
ATOM      7  H   UNL     1       8.574  -8.659   4.764  0.00  0.00    +0.159 HD
ATOM      8  H   UNL     1       9.237 -10.831   1.356  0.00  0.00    +0.159 HD
ATOM      9  H   UNL     1       9.915 -11.312   2.862  0.00  0.00    +0.159 HD
ENDROOT
BRANCH   1  10
ATOM     10  C   UNL     1       7.786  -8.778   0.830  0.00  0.00    +0.151 C 
BRANCH  10  11
ATOM     11  C   UNL     1       7.859  -7.386   0.267  0.00  0.00    -0.028 A 
ATOM     12  C   UNL     1       7.725  -6.270   1.107  0.00  0.00    +0.005 A 
ATOM     13  C   UNL     1       8.067  -7.174  -1.104  0.00  0.00    +0.005 A 
ATOM     14  C   UNL     1       7.823  -4.977   0.590  0.00  0.00    +0.000 A 
ATOM     15  C   UNL     1       8.163  -5.881  -1.617  0.00  0.00    +0.000 A 
ATOM     16  C   UNL     1       8.043  -4.782  -0.770  0.00  0.00    +0.000 A 
ENDBRANCH  10  11
ENDBRANCH   1  10
TORSDOF 2
ENDMDL
MODEL 8
REMARK VINA RESULT:    -4.947     23.108     24.462
REMARK INTER + INTRA:          -5.697
REMARK INTER:                  -5.557
REMARK INTRA:                  -0.140
REMARK UNBOUND:                -0.172
REMARK  Name = 1550473
REMARK  2 active torsions:
REMARK  status: ('A' for Active; 'I' for Inactive)
REMARK    1  A    between atoms: N_1  and  C_4
REMARK    2  A    between atoms: C_4  and  C_5
REMARK                            x       y       z     vdW  Elec       q    Type
REMARK                         _______ _______ _______ _____ _____    ______ ____
ROOT
ATOM      1  N   UNL     1       6.269  -4.077  21.106  0.00  0.00    -0.354 N 
ATOM      2  N   UNL     1       4.314  -2.835  21.078  0.00  0.00    -0.372 N 
ATOM      3  N   UNL     1       4.422  -4.705  22.404  0.00  0.00    -0.372 N 
ATOM      4  C   UNL     1       5.014  -3.883  21.531  0.00  0.00    +0.166 C 
ATOM      5  H   UNL     1       6.650  -3.434  20.421  0.00  0.00    +0.163 HD
ATOM      6  H   UNL     1       3.366  -2.661  21.383  0.00  0.00    +0.159 HD
ATOM      7  H   UNL     1       4.713  -2.169  20.428  0.00  0.00    +0.159 HD
ATOM      8  H   UNL     1       4.894  -5.517  22.779  0.00  0.00    +0.159 HD
ATOM      9  H   UNL     1       3.469  -4.554  22.712  0.00  0.00    +0.159 HD
ENDROOT
BRANCH   1  10
ATOM     10  C   UNL     1       7.135  -5.155  21.579  0.00  0.00    +0.151 C 
BRANCH  10  11
ATOM     11  C   UNL     1       7.835  -5.776  20.401  0.00  0.00    -0.028 A 
ATOM     12  C   UNL     1       7.697  -5.223  19.119  0.00  0.00    +0.005 A 
ATOM     13  C   UNL     1       8.642  -6.913  20.561  0.00  0.00    +0.005 A 
ATOM     14  C   UNL     1       8.370  -5.781  18.030  0.00  0.00    +0.000 A 
ATOM     15  C   UNL     1       9.312  -7.467  19.471  0.00  0.00    +0.000 A 
ATOM     16  C   UNL     1       9.178  -6.900  18.206  0.00  0.00    +0.000 A 
ENDBRANCH  10  11
ENDBRANCH   1  10
TORSDOF 2
ENDMDL
MODEL 9
REMARK VINA RESULT:    -4.844     21.974     23.146
REMARK INTER + INTRA:          -5.583
REMARK INTER:                  -5.456
REMARK INTRA:                  -0.126
REMARK UNBOUND:                -0.172
REMARK  Name = 1550473
REMARK  2 active torsions:
REMARK  status: ('A' for Active; 'I' for Inactive)
REMARK    1  A    between atoms: N_1  and  C_4
REMARK    2  A    between atoms: C_4  and  C_5
REMARK                            x       y       z     vdW  Elec       q    Type
REMARK                         _______ _______ _______ _____ _____    ______ ____
ROOT
ATOM      1  N   UNL     1      15.577  11.609  16.101  0.00  0.00    -0.354 N 
ATOM      2  N   UNL     1      14.383  12.918  14.609  0.00  0.00    -0.372 N 
ATOM      3  N   UNL     1      16.662  13.159  14.719  0.00  0.00    -0.372 N 
ATOM      4  C   UNL     1      15.551  12.554  15.153  0.00  0.00    +0.166 C 
ATOM      5  H   UNL     1      14.696  11.210  16.407  0.00  0.00    +0.163 HD
ATOM      6  H   UNL     1      14.333  13.626  13.889  0.00  0.00    +0.159 HD
ATOM      7  H   UNL     1      13.510  12.485  14.885  0.00  0.00    +0.159 HD
ATOM      8  H   UNL     1      17.575  12.934  15.093  0.00  0.00    +0.159 HD
ATOM      9  H   UNL     1      16.631  13.878  14.008  0.00  0.00    +0.159 HD
ENDROOT
BRANCH   1  10
ATOM     10  C   UNL     1      16.801  11.103  16.719  0.00  0.00    +0.151 C 
BRANCH  10  11
ATOM     11  C   UNL     1      16.567   9.695  17.192  0.00  0.00    -0.028 A 
ATOM     12  C   UNL     1      15.661   8.860  16.522  0.00  0.00    +0.005 A 
ATOM     13  C   UNL     1      17.254   9.187  18.306  0.00  0.00    +0.005 A 
ATOM     14  C   UNL     1      15.465   7.542  16.943  0.00  0.00    +0.000 A 
ATOM     15  C   UNL     1      17.055   7.871  18.723  0.00  0.00    +0.000 A 
ATOM     16  C   UNL     1      16.163   7.048  18.040  0.00  0.00    +0.000 A 
ENDBRANCH  10  11
ENDBRANCH   1  10
TORSDOF 2
ENDMDL
