MODEL 1
REMARK VINA RESULT:    -5.257      0.000      0.000
REMARK INTER + INTRA:          -6.034
REMARK INTER:                  -5.872
REMARK INTRA:                  -0.163
REMARK UNBOUND:                -0.163
REMARK  Name = 1550473
REMARK  2 active torsions:
REMARK  status: ('A' for Active; 'I' for Inactive)
REMARK    1  A    between atoms: N_1  and  C_4
REMARK    2  A    between atoms: C_4  and  C_5
REMARK                            x       y       z     vdW  Elec       q    Type
REMARK                         _______ _______ _______ _____ _____    ______ ____
ROOT
ATOM      1  N   UNL     1     -10.512  -2.188  -6.678  0.00  0.00    -0.354 N 
ATOM      2  N   UNL     1     -11.001  -3.927  -5.229  0.00  0.00    -0.372 N 
ATOM      3  N   UNL     1      -9.874  -2.098  -4.425  0.00  0.00    -0.372 N 
ATOM      4  C   UNL     1     -10.457  -2.725  -5.452  0.00  0.00    +0.166 C 
ATOM      5  H   UNL     1     -10.942  -2.727  -7.421  0.00  0.00    +0.163 HD
ATOM      6  H   UNL     1     -10.979  -4.356  -4.314  0.00  0.00    +0.159 HD
ATOM      7  H   UNL     1     -11.471  -4.444  -5.963  0.00  0.00    +0.159 HD
ATOM      8  H   UNL     1      -9.439  -1.191  -4.529  0.00  0.00    +0.159 HD
ATOM      9  H   UNL     1      -9.831  -2.516  -3.504  0.00  0.00    +0.159 HD
ENDROOT
BRANCH   1  10
ATOM     10  C   UNL     1      -9.997  -0.862  -7.014  0.00  0.00    +0.151 C 
BRANCH  10  11
ATOM     11  C   UNL     1     -11.144   0.021  -7.424  0.00  0.00    -0.028 A 
ATOM     12  C   UNL     1     -11.402   0.269  -8.780  0.00  0.00    +0.005 A 
ATOM     13  C   UNL     1     -11.981   0.606  -6.461  0.00  0.00    +0.005 A 
ATOM     14  C   UNL     1     -12.485   1.064  -9.162  0.00  0.00    +0.000 A 
ATOM     15  C   UNL     1     -13.061   1.400  -6.847  0.00  0.00    +0.000 A 
ATOM     16  C   UNL     1     -13.314   1.627  -8.197  0.00  0.00    +0.000 A 
ENDBRANCH  10  11
ENDBRANCH   1  10
TORSDOF 2
ENDMDL
MODEL 2
REMARK VINA RESULT:    -5.210     12.438     13.518
REMARK INTER + INTRA:          -5.982
REMARK INTER:                  -5.861
REMARK INTRA:                  -0.122
REMARK UNBOUND:                -0.163
REMARK  Name = 1550473
REMARK  2 active torsions:
REMARK  status: ('A' for Active; 'I' for Inactive)
REMARK    1  A    between atoms: N_1  and  C_4
REMARK    2  A    between atoms: C_4  and  C_5
REMARK                            x       y       z     vdW  Elec       q    Type
REMARK                         _______ _______ _______ _____ _____    ______ ____
ROOT
ATOM      1  N   UNL     1      -1.939  -5.362 -17.090  0.00  0.00    -0.354 N 
ATOM      2  N   UNL     1      -0.435  -6.619 -18.324  0.00  0.00    -0.372 N 
ATOM      3  N   UNL     1       0.353  -4.876 -17.058  0.00  0.00    -0.372 N 
ATOM      4  C   UNL     1      -0.682  -5.609 -17.481  0.00  0.00    +0.166 C 
ATOM      5  H   UNL     1      -2.683  -5.935 -17.471  0.00  0.00    +0.163 HD
ATOM      6  H   UNL     1       0.503  -6.832 -18.634  0.00  0.00    +0.159 HD
ATOM      7  H   UNL     1      -1.175  -7.219 -18.667  0.00  0.00    +0.159 HD
ATOM      8  H   UNL     1       0.234  -4.095 -16.426  0.00  0.00    +0.159 HD
ATOM      9  H   UNL     1       1.299  -5.065 -17.366  0.00  0.00    +0.159 HD
ENDROOT
BRANCH   1  10
ATOM     10  C   UNL     1      -2.308  -4.320 -16.133  0.00  0.00    +0.151 C 
BRANCH  10  11
ATOM     11  C   UNL     1      -3.648  -4.652 -15.537  0.00  0.00    -0.028 A 
ATOM     12  C   UNL     1      -4.557  -3.633 -15.218  0.00  0.00    +0.005 A 
ATOM     13  C   UNL     1      -4.016  -5.984 -15.295  0.00  0.00    +0.005 A 
ATOM     14  C   UNL     1      -5.814  -3.943 -14.692  0.00  0.00    +0.000 A 
ATOM     15  C   UNL     1      -5.271  -6.289 -14.769  0.00  0.00    +0.000 A 
ATOM     16  C   UNL     1      -6.171  -5.269 -14.470  0.00  0.00    +0.000 A 
ENDBRANCH  10  11
ENDBRANCH   1  10
TORSDOF 2
ENDMDL
MODEL 3
REMARK VINA RESULT:    -5.126      4.005      5.322
REMARK INTER + INTRA:          -5.888
REMARK INTER:                  -5.759
REMARK INTRA:                  -0.129
REMARK UNBOUND:                -0.163
REMARK  Name = 1550473
REMARK  2 active torsions:
REMARK  status: ('A' for Active; 'I' for Inactive)
REMARK    1  A    between atoms: N_1  and  C_4
REMARK    2  A    between atoms: C_4  and  C_5
REMARK                            x       y       z     vdW  Elec       q    Type
REMARK                         _______ _______ _______ _____ _____    ______ ____
ROOT
ATOM      1  N   UNL     1     -15.346   1.437  -8.536  0.00  0.00    -0.354 N 
ATOM      2  N   UNL     1     -17.368   0.429  -9.047  0.00  0.00    -0.372 N 
ATOM      3  N   UNL     1     -16.927   0.988  -6.866  0.00  0.00    -0.372 N 
ATOM      4  C   UNL     1     -16.534   0.958  -8.144  0.00  0.00    +0.166 C 
ATOM      5  H   UNL     1     -15.095   1.357  -9.515  0.00  0.00    +0.163 HD
ATOM      6  H   UNL     1     -18.272   0.062  -8.781  0.00  0.00    +0.159 HD
ATOM      7  H   UNL     1     -17.133   0.392 -10.032  0.00  0.00    +0.159 HD
ATOM      8  H   UNL     1     -16.342   1.368  -6.134  0.00  0.00    +0.159 HD
ATOM      9  H   UNL     1     -17.824   0.616  -6.578  0.00  0.00    +0.159 HD
ENDROOT
BRANCH   1  10
ATOM     10  C   UNL     1     -14.388   2.081  -7.640  0.00  0.00    +0.151 C 
BRANCH  10  11
ATOM     11  C   UNL     1     -13.034   1.459  -7.840  0.00  0.00    -0.028 A 
ATOM     12  C   UNL     1     -12.215   1.168  -6.739  0.00  0.00    +0.005 A 
ATOM     13  C   UNL     1     -12.566   1.152  -9.127  0.00  0.00    +0.005 A 
ATOM     14  C   UNL     1     -10.969   0.562  -6.921  0.00  0.00    +0.000 A 
ATOM     15  C   UNL     1     -11.321   0.548  -9.304  0.00  0.00    +0.000 A 
ATOM     16  C   UNL     1     -10.524   0.251  -8.201  0.00  0.00    +0.000 A 
ENDBRANCH  10  11
ENDBRANCH   1  10
TORSDOF 2
ENDMDL
MODEL 4
REMARK VINA RESULT:    -5.081      3.202      4.928
REMARK INTER + INTRA:          -5.837
REMARK INTER:                  -5.657
REMARK INTRA:                  -0.180
REMARK UNBOUND:                -0.163
REMARK  Name = 1550473
REMARK  2 active torsions:
REMARK  status: ('A' for Active; 'I' for Inactive)
REMARK    1  A    between atoms: N_1  and  C_4
REMARK    2  A    between atoms: C_4  and  C_5
REMARK                            x       y       z     vdW  Elec       q    Type
REMARK                         _______ _______ _______ _____ _____    ______ ____
ROOT
ATOM      1  N   UNL     1     -14.383   1.065  -6.798  0.00  0.00    -0.354 N 
ATOM      2  N   UNL     1     -15.983   0.772  -8.446  0.00  0.00    -0.372 N 
ATOM      3  N   UNL     1     -14.186   2.133  -8.875  0.00  0.00    -0.372 N 
ATOM      4  C   UNL     1     -14.838   1.327  -8.030  0.00  0.00    +0.166 C 
ATOM      5  H   UNL     1     -14.940   0.470  -6.196  0.00  0.00    +0.163 HD
ATOM      6  H   UNL     1     -16.350   0.949  -9.372  0.00  0.00    +0.159 HD
ATOM      7  H   UNL     1     -16.514   0.142  -7.859  0.00  0.00    +0.159 HD
ATOM      8  H   UNL     1     -13.319   2.587  -8.619  0.00  0.00    +0.159 HD
ATOM      9  H   UNL     1     -14.543   2.331  -9.801  0.00  0.00    +0.159 HD
ENDROOT
BRANCH   1  10
ATOM     10  C   UNL     1     -13.120   1.575  -6.267  0.00  0.00    +0.151 C 
BRANCH  10  11
ATOM     11  C   UNL     1     -12.053   0.530  -6.447  0.00  0.00    -0.028 A 
ATOM     12  C   UNL     1     -12.007  -0.591  -5.607  0.00  0.00    +0.005 A 
ATOM     13  C   UNL     1     -11.090   0.653  -7.460  0.00  0.00    +0.005 A 
ATOM     14  C   UNL     1     -11.034  -1.577  -5.792  0.00  0.00    +0.000 A 
ATOM     15  C   UNL     1     -10.120  -0.332  -7.642  0.00  0.00    +0.000 A 
ATOM     16  C   UNL     1     -10.094  -1.449  -6.809  0.00  0.00    +0.000 A 
ENDBRANCH  10  11
ENDBRANCH   1  10
TORSDOF 2
ENDMDL
MODEL 5
REMARK VINA RESULT:    -5.081      4.037      5.317
REMARK INTER + INTRA:          -5.837
REMARK INTER:                  -5.695
REMARK INTRA:                  -0.142
REMARK UNBOUND:                -0.163
REMARK  Name = 1550473
REMARK  2 active torsions:
REMARK  status: ('A' for Active; 'I' for Inactive)
REMARK    1  A    between atoms: N_1  and  C_4
REMARK    2  A    between atoms: C_4  and  C_5
REMARK                            x       y       z     vdW  Elec       q    Type
REMARK                         _______ _______ _______ _____ _____    ______ ____
ROOT
ATOM      1  N   UNL     1     -15.647   1.785  -7.596  0.00  0.00    -0.354 N 
ATOM      2  N   UNL     1     -17.592   0.735  -6.906  0.00  0.00    -0.372 N 
ATOM      3  N   UNL     1     -17.086   0.772  -9.144  0.00  0.00    -0.372 N 
ATOM      4  C   UNL     1     -16.763   1.104  -7.889  0.00  0.00    +0.166 C 
ATOM      5  H   UNL     1     -15.474   2.033  -6.629  0.00  0.00    +0.163 HD
ATOM      6  H   UNL     1     -18.440   0.218  -7.096  0.00  0.00    +0.159 HD
ATOM      7  H   UNL     1     -17.394   0.944  -5.935  0.00  0.00    +0.159 HD
ATOM      8  H   UNL     1     -16.505   1.026  -9.931  0.00  0.00    +0.159 HD
ATOM      9  H   UNL     1     -17.936   0.264  -9.355  0.00  0.00    +0.159 HD
ENDROOT
BRANCH   1  10
ATOM     10  C   UNL     1     -14.650   2.187  -8.587  0.00  0.00    +0.151 C 
BRANCH  10  11
ATOM     11  C   UNL     1     -13.329   1.558  -8.239  0.00  0.00    -0.028 A 
ATOM     12  C   UNL     1     -12.470   1.100  -9.249  0.00  0.00    +0.005 A 
ATOM     13  C   UNL     1     -12.929   1.422  -6.901  0.00  0.00    +0.005 A 
ATOM     14  C   UNL     1     -11.230   0.543  -8.927  0.00  0.00    +0.000 A 
ATOM     15  C   UNL     1     -11.690   0.864  -6.583  0.00  0.00    +0.000 A 
ATOM     16  C   UNL     1     -10.841   0.427  -7.597  0.00  0.00    +0.000 A 
ENDBRANCH  10  11
ENDBRANCH   1  10
TORSDOF 2
ENDMDL
MODEL 6
REMARK VINA RESULT:    -5.052      2.382      3.518
REMARK INTER + INTRA:          -5.805
REMARK INTER:                  -5.664
REMARK INTRA:                  -0.141
REMARK UNBOUND:                -0.163
REMARK  Name = 1550473
REMARK  2 active torsions:
REMARK  status: ('A' for Active; 'I' for Inactive)
REMARK    1  A    between atoms: N_1  and  C_4
REMARK    2  A    between atoms: C_4  and  C_5
REMARK                            x       y       z     vdW  Elec       q    Type
REMARK                         _______ _______ _______ _____ _____    ______ ____
ROOT
ATOM      1  N   UNL     1     -12.931  -0.159  -8.868  0.00  0.00    -0.354 N 
ATOM      2  N   UNL     1     -13.600  -2.360  -9.139  0.00  0.00    -0.372 N 
ATOM      3  N   UNL     1     -12.114  -1.850  -7.467  0.00  0.00    -0.372 N 
ATOM      4  C   UNL     1     -12.875  -1.442  -8.487  0.00  0.00    +0.166 C 
ATOM      5  H   UNL     1     -13.504   0.081  -9.669  0.00  0.00    +0.163 HD
ATOM      6  H   UNL     1     -13.581  -3.335  -8.873  0.00  0.00    +0.159 HD
ATOM      7  H   UNL     1     -14.207  -2.109  -9.910  0.00  0.00    +0.159 HD
ATOM      8  H   UNL     1     -11.539  -1.209  -6.938  0.00  0.00    +0.159 HD
ATOM      9  H   UNL     1     -12.073  -2.824  -7.192  0.00  0.00    +0.159 HD
ENDROOT
BRANCH   1  10
ATOM     10  C   UNL     1     -12.223   0.926  -8.191  0.00  0.00    +0.151 C 
BRANCH  10  11
ATOM     11  C   UNL     1     -13.073   1.438  -7.061  0.00  0.00    -0.028 A 
ATOM     12  C   UNL     1     -14.314   2.037  -7.319  0.00  0.00    +0.005 A 
ATOM     13  C   UNL     1     -12.645   1.321  -5.730  0.00  0.00    +0.005 A 
ATOM     14  C   UNL     1     -15.118   2.486  -6.268  0.00  0.00    +0.000 A 
ATOM     15  C   UNL     1     -13.450   1.771  -4.683  0.00  0.00    +0.000 A 
ATOM     16  C   UNL     1     -14.687   2.351  -4.953  0.00  0.00    +0.000 A 
ENDBRANCH  10  11
ENDBRANCH   1  10
TORSDOF 2
ENDMDL
MODEL 7
REMARK VINA RESULT:    -5.001      4.178      5.333
REMARK INTER + INTRA:          -5.748
REMARK INTER:                  -5.625
REMARK INTRA:                  -0.123
REMARK UNBOUND:                -0.163
REMARK  Name = 1550473
REMARK  2 active torsions:
REMARK  status: ('A' for Active; 'I' for Inactive)
REMARK    1  A    between atoms: N_1  and  C_4
REMARK    2  A    between atoms: C_4  and  C_5
REMARK                            x       y       z     vdW  Elec       q    Type
REMARK                         _______ _______ _______ _____ _____    ______ ____
ROOT
ATOM      1  N   UNL     1     -14.926   2.441  -6.256  0.00  0.00    -0.354 N 
ATOM      2  N   UNL     1     -16.956   3.543  -6.088  0.00  0.00    -0.372 N 
ATOM      3  N   UNL     1     -15.855   2.949  -4.165  0.00  0.00    -0.372 N 
ATOM      4  C   UNL     1     -15.899   2.970  -5.502  0.00  0.00    +0.166 C 
ATOM      5  H   UNL     1     -15.034   2.463  -7.264  0.00  0.00    +0.163 HD
ATOM      6  H   UNL     1     -17.704   3.954  -5.545  0.00  0.00    +0.159 HD
ATOM      7  H   UNL     1     -17.039   3.604  -7.096  0.00  0.00    +0.159 HD
ATOM      8  H   UNL     1     -15.086   2.526  -3.662  0.00  0.00    +0.159 HD
ATOM      9  H   UNL     1     -16.599   3.344  -3.604  0.00  0.00    +0.159 HD
ENDROOT
BRANCH   1  10
ATOM     10  C   UNL     1     -13.707   1.842  -5.717  0.00  0.00    +0.151 C 
BRANCH  10  11
ATOM     11  C   UNL     1     -12.832   1.398  -6.857  0.00  0.00    -0.028 A 
ATOM     12  C   UNL     1     -11.587   0.801  -6.608  0.00  0.00    +0.005 A 
ATOM     13  C   UNL     1     -13.244   1.568  -8.188  0.00  0.00    +0.005 A 
ATOM     14  C   UNL     1     -10.787   0.362  -7.666  0.00  0.00    +0.000 A 
ATOM     15  C   UNL     1     -12.442   1.129  -9.241  0.00  0.00    +0.000 A 
ATOM     16  C   UNL     1     -11.215   0.524  -8.979  0.00  0.00    +0.000 A 
ENDBRANCH  10  11
ENDBRANCH   1  10
TORSDOF 2
ENDMDL
MODEL 8
REMARK VINA RESULT:    -4.856     22.916     24.112
REMARK INTER + INTRA:          -5.586
REMARK INTER:                  -5.461
REMARK INTRA:                  -0.125
REMARK UNBOUND:                -0.163
REMARK  Name = 1550473
REMARK  2 active torsions:
REMARK  status: ('A' for Active; 'I' for Inactive)
REMARK    1  A    between atoms: N_1  and  C_4
REMARK    2  A    between atoms: C_4  and  C_5
REMARK                            x       y       z     vdW  Elec       q    Type
REMARK                         _______ _______ _______ _____ _____    ______ ____
ROOT
ATOM      1  N   UNL     1       4.206  10.085   5.152  0.00  0.00    -0.354 N 
ATOM      2  N   UNL     1       2.002  10.356   4.493  0.00  0.00    -0.372 N 
ATOM      3  N   UNL     1       3.320   8.854   3.365  0.00  0.00    -0.372 N 
ATOM      4  C   UNL     1       3.191   9.762   4.339  0.00  0.00    +0.166 C 
ATOM      5  H   UNL     1       4.052  10.803   5.851  0.00  0.00    +0.163 HD
ATOM      6  H   UNL     1       1.217  10.130   3.898  0.00  0.00    +0.159 HD
ATOM      7  H   UNL     1       1.838  11.040   5.223  0.00  0.00    +0.159 HD
ATOM      8  H   UNL     1       4.193   8.374   3.193  0.00  0.00    +0.159 HD
ATOM      9  H   UNL     1       2.549   8.623   2.751  0.00  0.00    +0.159 HD
ENDROOT
BRANCH   1  10
ATOM     10  C   UNL     1       5.525   9.458   5.102  0.00  0.00    +0.151 C 
BRANCH  10  11
ATOM     11  C   UNL     1       6.211   9.652   6.426  0.00  0.00    -0.028 A 
ATOM     12  C   UNL     1       7.611   9.616   6.515  0.00  0.00    +0.005 A 
ATOM     13  C   UNL     1       5.468   9.879   7.595  0.00  0.00    +0.005 A 
ATOM     14  C   UNL     1       8.250   9.827   7.739  0.00  0.00    +0.000 A 
ATOM     15  C   UNL     1       6.110  10.087   8.816  0.00  0.00    +0.000 A 
ATOM     16  C   UNL     1       7.501  10.064   8.887  0.00  0.00    +0.000 A 
ENDBRANCH  10  11
ENDBRANCH   1  10
TORSDOF 2
ENDMDL
MODEL 9
REMARK VINA RESULT:    -4.667     11.509     12.638
REMARK INTER + INTRA:          -5.375
REMARK INTER:                  -5.272
REMARK INTRA:                  -0.103
REMARK UNBOUND:                -0.163
REMARK  Name = 1550473
REMARK  2 active torsions:
REMARK  status: ('A' for Active; 'I' for Inactive)
REMARK    1  A    between atoms: N_1  and  C_4
REMARK    2  A    between atoms: C_4  and  C_5
REMARK                            x       y       z     vdW  Elec       q    Type
REMARK                         _______ _______ _______ _____ _____    ______ ____
ROOT
ATOM      1  N   UNL     1      -6.892  -3.398 -17.772  0.00  0.00    -0.354 N 
ATOM      2  N   UNL     1      -8.070  -3.134 -19.749  0.00  0.00    -0.372 N 
ATOM      3  N   UNL     1      -8.723  -1.941 -17.901  0.00  0.00    -0.372 N 
ATOM      4  C   UNL     1      -7.889  -2.824 -18.459  0.00  0.00    +0.166 C 
ATOM      5  H   UNL     1      -6.313  -4.082 -18.245  0.00  0.00    +0.163 HD
ATOM      6  H   UNL     1      -8.811  -2.715 -20.294  0.00  0.00    +0.159 HD
ATOM      7  H   UNL     1      -7.461  -3.784 -20.231  0.00  0.00    +0.159 HD
ATOM      8  H   UNL     1      -8.644  -1.669 -16.930  0.00  0.00    +0.159 HD
ATOM      9  H   UNL     1      -9.478  -1.519 -18.427  0.00  0.00    +0.159 HD
ENDROOT
BRANCH   1  10
ATOM     10  C   UNL     1      -6.577  -3.089 -16.379  0.00  0.00    +0.151 C 
BRANCH  10  11
ATOM     11  C   UNL     1      -5.551  -4.069 -15.879  0.00  0.00    -0.028 A 
ATOM     12  C   UNL     1      -5.830  -5.443 -15.860  0.00  0.00    +0.005 A 
ATOM     13  C   UNL     1      -4.297  -3.629 -15.427  0.00  0.00    +0.005 A 
ATOM     14  C   UNL     1      -4.867  -6.356 -15.424  0.00  0.00    +0.000 A 
ATOM     15  C   UNL     1      -3.339  -4.544 -14.992  0.00  0.00    +0.000 A 
ATOM     16  C   UNL     1      -3.623  -5.908 -14.992  0.00  0.00    +0.000 A 
ENDBRANCH  10  11
ENDBRANCH   1  10
TORSDOF 2
ENDMDL
