MODEL 1
REMARK VINA RESULT:    -5.710      0.000      0.000
REMARK INTER + INTRA:          -6.558
REMARK INTER:                  -6.378
REMARK INTRA:                  -0.181
REMARK UNBOUND:                -0.181
REMARK  Name = 1550473
REMARK  2 active torsions:
REMARK  status: ('A' for Active; 'I' for Inactive)
REMARK    1  A    between atoms: N_1  and  C_4
REMARK    2  A    between atoms: C_4  and  C_5
REMARK                            x       y       z     vdW  Elec       q    Type
REMARK                         _______ _______ _______ _____ _____    ______ ____
ROOT
ATOM      1  N   UNL     1       9.540  -3.151   0.945  0.00  0.00    -0.354 N 
ATOM      2  N   UNL     1       9.709  -2.242  -1.178  0.00  0.00    -0.372 N 
ATOM      3  N   UNL     1      11.528  -2.147   0.217  0.00  0.00    -0.372 N 
ATOM      4  C   UNL     1      10.260  -2.518   0.010  0.00  0.00    +0.166 C 
ATOM      5  H   UNL     1       8.574  -3.379   0.737  0.00  0.00    +0.163 HD
ATOM      6  H   UNL     1      10.229  -1.769  -1.905  0.00  0.00    +0.159 HD
ATOM      7  H   UNL     1       8.759  -2.512  -1.400  0.00  0.00    +0.159 HD
ATOM      8  H   UNL     1      12.000  -2.321   1.094  0.00  0.00    +0.159 HD
ATOM      9  H   UNL     1      12.062  -1.662  -0.494  0.00  0.00    +0.159 HD
ENDROOT
BRANCH   1  10
ATOM     10  C   UNL     1      10.063  -3.546   2.252  0.00  0.00    +0.151 C 
BRANCH  10  11
ATOM     11  C   UNL     1       9.543  -2.598   3.296  0.00  0.00    -0.028 A 
ATOM     12  C   UNL     1      10.348  -1.552   3.773  0.00  0.00    +0.005 A 
ATOM     13  C   UNL     1       8.244  -2.736   3.810  0.00  0.00    +0.005 A 
ATOM     14  C   UNL     1       9.854  -0.653   4.721  0.00  0.00    +0.000 A 
ATOM     15  C   UNL     1       7.756  -1.836   4.758  0.00  0.00    +0.000 A 
ATOM     16  C   UNL     1       8.560  -0.793   5.211  0.00  0.00    +0.000 A 
ENDBRANCH  10  11
ENDBRANCH   1  10
TORSDOF 2
ENDMDL
MODEL 2
REMARK VINA RESULT:    -5.654     14.060     15.741
REMARK INTER + INTRA:          -6.496
REMARK INTER:                  -6.372
REMARK INTRA:                  -0.124
REMARK UNBOUND:                -0.181
REMARK  Name = 1550473
REMARK  2 active torsions:
REMARK  status: ('A' for Active; 'I' for Inactive)
REMARK    1  A    between atoms: N_1  and  C_4
REMARK    2  A    between atoms: C_4  and  C_5
REMARK                            x       y       z     vdW  Elec       q    Type
REMARK                         _______ _______ _______ _____ _____    ______ ____
ROOT
ATOM      1  N   UNL     1       4.065   7.923  10.954  0.00  0.00    -0.354 N 
ATOM      2  N   UNL     1       3.063   5.990  11.743  0.00  0.00    -0.372 N 
ATOM      3  N   UNL     1       5.345   6.041  11.511  0.00  0.00    -0.372 N 
ATOM      4  C   UNL     1       4.167   6.663  11.397  0.00  0.00    +0.166 C 
ATOM      5  H   UNL     1       3.140   8.328  10.863  0.00  0.00    +0.163 HD
ATOM      6  H   UNL     1       3.109   5.039  12.084  0.00  0.00    +0.159 HD
ATOM      7  H   UNL     1       2.144   6.413  11.694  0.00  0.00    +0.159 HD
ATOM      8  H   UNL     1       6.215   6.492  11.261  0.00  0.00    +0.159 HD
ATOM      9  H   UNL     1       5.411   5.086  11.839  0.00  0.00    +0.159 HD
ENDROOT
BRANCH   1  10
ATOM     10  C   UNL     1       5.210   8.762  10.603  0.00  0.00    +0.151 C 
BRANCH  10  11
ATOM     11  C   UNL     1       4.817  10.208  10.732  0.00  0.00    -0.028 A 
ATOM     12  C   UNL     1       3.902  10.613  11.714  0.00  0.00    +0.005 A 
ATOM     13  C   UNL     1       5.362  11.179   9.878  0.00  0.00    +0.005 A 
ATOM     14  C   UNL     1       3.560  11.960  11.854  0.00  0.00    +0.000 A 
ATOM     15  C   UNL     1       5.017  12.523  10.020  0.00  0.00    +0.000 A 
ATOM     16  C   UNL     1       4.118  12.914  11.009  0.00  0.00    +0.000 A 
ENDBRANCH  10  11
ENDBRANCH   1  10
TORSDOF 2
ENDMDL
MODEL 3
REMARK VINA RESULT:    -5.635      1.365      2.338
REMARK INTER + INTRA:          -6.474
REMARK INTER:                  -6.351
REMARK INTRA:                  -0.123
REMARK UNBOUND:                -0.181
REMARK  Name = 1550473
REMARK  2 active torsions:
REMARK  status: ('A' for Active; 'I' for Inactive)
REMARK    1  A    between atoms: N_1  and  C_4
REMARK    2  A    between atoms: C_4  and  C_5
REMARK                            x       y       z     vdW  Elec       q    Type
REMARK                         _______ _______ _______ _____ _____    ______ ____
ROOT
ATOM      1  N   UNL     1       9.359  -3.358  -0.049  0.00  0.00    -0.354 N 
ATOM      2  N   UNL     1       7.792  -3.909  -1.662  0.00  0.00    -0.372 N 
ATOM      3  N   UNL     1       9.231  -2.168  -2.063  0.00  0.00    -0.372 N 
ATOM      4  C   UNL     1       8.805  -3.139  -1.249  0.00  0.00    +0.166 C 
ATOM      5  H   UNL     1       8.971  -4.090   0.534  0.00  0.00    +0.163 HD
ATOM      6  H   UNL     1       7.356  -3.770  -2.564  0.00  0.00    +0.159 HD
ATOM      7  H   UNL     1       7.436  -4.671  -1.097  0.00  0.00    +0.159 HD
ATOM      8  H   UNL     1       9.988  -1.548  -1.808  0.00  0.00    +0.159 HD
ATOM      9  H   UNL     1       8.800  -2.005  -2.965  0.00  0.00    +0.159 HD
ENDROOT
BRANCH   1  10
ATOM     10  C   UNL     1      10.502  -2.610   0.473  0.00  0.00    +0.151 C 
BRANCH  10  11
ATOM     11  C   UNL     1      10.223  -2.215   1.897  0.00  0.00    -0.028 A 
ATOM     12  C   UNL     1       9.664  -3.137   2.795  0.00  0.00    +0.005 A 
ATOM     13  C   UNL     1      10.519  -0.923   2.355  0.00  0.00    +0.005 A 
ATOM     14  C   UNL     1       9.432  -2.779   4.125  0.00  0.00    +0.000 A 
ATOM     15  C   UNL     1      10.285  -0.570   3.684  0.00  0.00    +0.000 A 
ATOM     16  C   UNL     1       9.744  -1.499   4.569  0.00  0.00    +0.000 A 
ENDBRANCH  10  11
ENDBRANCH   1  10
TORSDOF 2
ENDMDL
MODEL 4
REMARK VINA RESULT:    -5.582      1.458      2.050
REMARK INTER + INTRA:          -6.415
REMARK INTER:                  -6.275
REMARK INTRA:                  -0.141
REMARK UNBOUND:                -0.181
REMARK  Name = 1550473
REMARK  2 active torsions:
REMARK  status: ('A' for Active; 'I' for Inactive)
REMARK    1  A    between atoms: N_1  and  C_4
REMARK    2  A    between atoms: C_4  and  C_5
REMARK                            x       y       z     vdW  Elec       q    Type
REMARK                         _______ _______ _______ _____ _____    ______ ____
ROOT
ATOM      1  N   UNL     1       9.624  -3.205  -0.160  0.00  0.00    -0.354 N 
ATOM      2  N   UNL     1       9.478  -2.647  -2.403  0.00  0.00    -0.372 N 
ATOM      3  N   UNL     1       7.622  -3.483  -1.345  0.00  0.00    -0.372 N 
ATOM      4  C   UNL     1       8.906  -3.117  -1.287  0.00  0.00    +0.166 C 
ATOM      5  H   UNL     1      10.602  -2.939  -0.189  0.00  0.00    +0.163 HD
ATOM      6  H   UNL     1       8.961  -2.565  -3.268  0.00  0.00    +0.159 HD
ATOM      7  H   UNL     1      10.443  -2.339  -2.418  0.00  0.00    +0.159 HD
ATOM      8  H   UNL     1       7.133  -3.851  -0.540  0.00  0.00    +0.159 HD
ATOM      9  H   UNL     1       7.090  -3.420  -2.204  0.00  0.00    +0.159 HD
ENDROOT
BRANCH   1  10
ATOM     10  C   UNL     1       9.081  -3.652   1.122  0.00  0.00    +0.151 C 
BRANCH  10  11
ATOM     11  C   UNL     1       9.545  -2.718   2.205  0.00  0.00    -0.028 A 
ATOM     12  C   UNL     1      10.343  -1.607   1.893  0.00  0.00    +0.005 A 
ATOM     13  C   UNL     1       9.186  -2.935   3.544  0.00  0.00    +0.005 A 
ATOM     14  C   UNL     1      10.750  -0.722   2.895  0.00  0.00    +0.000 A 
ATOM     15  C   UNL     1       9.595  -2.049   4.541  0.00  0.00    +0.000 A 
ATOM     16  C   UNL     1      10.374  -0.942   4.216  0.00  0.00    +0.000 A 
ENDBRANCH  10  11
ENDBRANCH   1  10
TORSDOF 2
ENDMDL
MODEL 5
REMARK VINA RESULT:    -5.129      1.687      2.549
REMARK INTER + INTRA:          -5.909
REMARK INTER:                  -5.797
REMARK INTRA:                  -0.113
REMARK UNBOUND:                -0.181
REMARK  Name = 1550473
REMARK  2 active torsions:
REMARK  status: ('A' for Active; 'I' for Inactive)
REMARK    1  A    between atoms: N_1  and  C_4
REMARK    2  A    between atoms: C_4  and  C_5
REMARK                            x       y       z     vdW  Elec       q    Type
REMARK                         _______ _______ _______ _____ _____    ______ ____
ROOT
ATOM      1  N   UNL     1      11.464  -1.333   1.195  0.00  0.00    -0.354 N 
ATOM      2  N   UNL     1      13.219   0.071   0.636  0.00  0.00    -0.372 N 
ATOM      3  N   UNL     1      13.656  -1.814   1.870  0.00  0.00    -0.372 N 
ATOM      4  C   UNL     1      12.770  -1.036   1.239  0.00  0.00    +0.166 C 
ATOM      5  H   UNL     1      10.839  -0.687   0.726  0.00  0.00    +0.163 HD
ATOM      6  H   UNL     1      14.199   0.319   0.650  0.00  0.00    +0.159 HD
ATOM      7  H   UNL     1      12.599   0.691   0.129  0.00  0.00    +0.159 HD
ATOM      8  H   UNL     1      13.380  -2.660   2.350  0.00  0.00    +0.159 HD
ATOM      9  H   UNL     1      14.640  -1.576   1.904  0.00  0.00    +0.159 HD
ENDROOT
BRANCH   1  10
ATOM     10  C   UNL     1      10.880  -2.542   1.773  0.00  0.00    +0.151 C 
BRANCH  10  11
ATOM     11  C   UNL     1       9.938  -2.153   2.879  0.00  0.00    -0.028 A 
ATOM     12  C   UNL     1       8.766  -2.888   3.107  0.00  0.00    +0.005 A 
ATOM     13  C   UNL     1      10.215  -1.054   3.705  0.00  0.00    +0.005 A 
ATOM     14  C   UNL     1       7.905  -2.545   4.152  0.00  0.00    +0.000 A 
ATOM     15  C   UNL     1       9.353  -0.714   4.748  0.00  0.00    +0.000 A 
ATOM     16  C   UNL     1       8.200  -1.461   4.973  0.00  0.00    +0.000 A 
ENDBRANCH  10  11
ENDBRANCH   1  10
TORSDOF 2
ENDMDL
MODEL 6
REMARK VINA RESULT:    -5.014      8.056      9.594
REMARK INTER + INTRA:          -5.781
REMARK INTER:                  -5.620
REMARK INTRA:                  -0.161
REMARK UNBOUND:                -0.181
REMARK  Name = 1550473
REMARK  2 active torsions:
REMARK  status: ('A' for Active; 'I' for Inactive)
REMARK    1  A    between atoms: N_1  and  C_4
REMARK    2  A    between atoms: C_4  and  C_5
REMARK                            x       y       z     vdW  Elec       q    Type
REMARK                         _______ _______ _______ _____ _____    ______ ____
ROOT
ATOM      1  N   UNL     1       4.245  -6.117  -0.960  0.00  0.00    -0.354 N 
ATOM      2  N   UNL     1       2.078  -5.888  -0.178  0.00  0.00    -0.372 N 
ATOM      3  N   UNL     1       2.413  -6.297  -2.410  0.00  0.00    -0.372 N 
ATOM      4  C   UNL     1       2.926  -6.102  -1.191  0.00  0.00    +0.166 C 
ATOM      5  H   UNL     1       4.572  -5.933  -0.019  0.00  0.00    +0.163 HD
ATOM      6  H   UNL     1       1.077  -5.875  -0.320  0.00  0.00    +0.159 HD
ATOM      7  H   UNL     1       2.405  -5.750   0.771  0.00  0.00    +0.159 HD
ATOM      8  H   UNL     1       3.000  -6.458  -3.218  0.00  0.00    +0.159 HD
ATOM      9  H   UNL     1       1.415  -6.275  -2.575  0.00  0.00    +0.159 HD
ENDROOT
BRANCH   1  10
ATOM     10  C   UNL     1       5.251  -6.395  -1.984  0.00  0.00    +0.151 C 
BRANCH  10  11
ATOM     11  C   UNL     1       5.537  -7.871  -2.005  0.00  0.00    -0.028 A 
ATOM     12  C   UNL     1       5.571  -8.573  -3.218  0.00  0.00    +0.005 A 
ATOM     13  C   UNL     1       5.780  -8.572  -0.814  0.00  0.00    +0.005 A 
ATOM     14  C   UNL     1       5.866  -9.938  -3.240  0.00  0.00    +0.000 A 
ATOM     15  C   UNL     1       6.074  -9.936  -0.840  0.00  0.00    +0.000 A 
ATOM     16  C   UNL     1       6.119 -10.618  -2.053  0.00  0.00    +0.000 A 
ENDBRANCH  10  11
ENDBRANCH   1  10
TORSDOF 2
ENDMDL
MODEL 7
REMARK VINA RESULT:    -4.988     16.661     17.958
REMARK INTER + INTRA:          -5.752
REMARK INTER:                  -5.644
REMARK INTRA:                  -0.108
REMARK UNBOUND:                -0.181
REMARK  Name = 1550473
REMARK  2 active torsions:
REMARK  status: ('A' for Active; 'I' for Inactive)
REMARK    1  A    between atoms: N_1  and  C_4
REMARK    2  A    between atoms: C_4  and  C_5
REMARK                            x       y       z     vdW  Elec       q    Type
REMARK                         _______ _______ _______ _____ _____    ______ ____
ROOT
ATOM      1  N   UNL     1       0.141  -0.747  17.311  0.00  0.00    -0.354 N 
ATOM      2  N   UNL     1       2.443  -0.957  17.458  0.00  0.00    -0.372 N 
ATOM      3  N   UNL     1       1.421   0.807  18.510  0.00  0.00    -0.372 N 
ATOM      4  C   UNL     1       1.320  -0.295  17.760  0.00  0.00    +0.166 C 
ATOM      5  H   UNL     1       0.135  -1.572  16.722  0.00  0.00    +0.163 HD
ATOM      6  H   UNL     1       3.346  -0.642  17.786  0.00  0.00    +0.159 HD
ATOM      7  H   UNL     1       2.429  -1.807  16.907  0.00  0.00    +0.159 HD
ATOM      8  H   UNL     1       0.611   1.355  18.769  0.00  0.00    +0.159 HD
ATOM      9  H   UNL     1       2.317   1.145  18.838  0.00  0.00    +0.159 HD
ENDROOT
BRANCH   1  10
ATOM     10  C   UNL     1      -1.146  -0.131  17.628  0.00  0.00    +0.151 C 
BRANCH  10  11
ATOM     11  C   UNL     1      -1.716   0.485  16.380  0.00  0.00    -0.028 A 
ATOM     12  C   UNL     1      -2.997   1.056  16.389  0.00  0.00    +0.005 A 
ATOM     13  C   UNL     1      -0.977   0.507  15.187  0.00  0.00    +0.005 A 
ATOM     14  C   UNL     1      -3.515   1.655  15.238  0.00  0.00    +0.000 A 
ATOM     15  C   UNL     1      -1.498   1.105  14.040  0.00  0.00    +0.000 A 
ATOM     16  C   UNL     1      -2.766   1.681  14.067  0.00  0.00    +0.000 A 
ENDBRANCH  10  11
ENDBRANCH   1  10
TORSDOF 2
ENDMDL
MODEL 8
REMARK VINA RESULT:    -4.912      6.062      7.498
REMARK INTER + INTRA:          -5.667
REMARK INTER:                  -5.553
REMARK INTRA:                  -0.114
REMARK UNBOUND:                -0.181
REMARK  Name = 1550473
REMARK  2 active torsions:
REMARK  status: ('A' for Active; 'I' for Inactive)
REMARK    1  A    between atoms: N_1  and  C_4
REMARK    2  A    between atoms: C_4  and  C_5
REMARK                            x       y       z     vdW  Elec       q    Type
REMARK                         _______ _______ _______ _____ _____    ______ ____
ROOT
ATOM      1  N   UNL     1       4.083  -6.187  -1.137  0.00  0.00    -0.354 N 
ATOM      2  N   UNL     1       1.847  -6.245  -0.536  0.00  0.00    -0.372 N 
ATOM      3  N   UNL     1       2.409  -6.509  -2.745  0.00  0.00    -0.372 N 
ATOM      4  C   UNL     1       2.794  -6.313  -1.479  0.00  0.00    +0.166 C 
ATOM      5  H   UNL     1       4.308  -6.010  -0.165  0.00  0.00    +0.163 HD
ATOM      6  H   UNL     1       0.866  -6.340  -0.764  0.00  0.00    +0.159 HD
ATOM      7  H   UNL     1       2.077  -6.114   0.442  0.00  0.00    +0.159 HD
ATOM      8  H   UNL     1       3.074  -6.564  -3.505  0.00  0.00    +0.159 HD
ATOM      9  H   UNL     1       1.431  -6.595  -2.994  0.00  0.00    +0.159 HD
ENDROOT
BRANCH   1  10
ATOM     10  C   UNL     1       5.194  -6.300  -2.080  0.00  0.00    +0.151 C 
BRANCH  10  11
ATOM     11  C   UNL     1       6.432  -5.720  -1.453  0.00  0.00    -0.028 A 
ATOM     12  C   UNL     1       7.661  -6.387  -1.553  0.00  0.00    +0.005 A 
ATOM     13  C   UNL     1       6.382  -4.499  -0.762  0.00  0.00    +0.005 A 
ATOM     14  C   UNL     1       8.816  -5.834  -0.996  0.00  0.00    +0.000 A 
ATOM     15  C   UNL     1       7.538  -3.950  -0.207  0.00  0.00    +0.000 A 
ATOM     16  C   UNL     1       8.755  -4.617  -0.326  0.00  0.00    +0.000 A 
ENDBRANCH  10  11
ENDBRANCH   1  10
TORSDOF 2
ENDMDL
MODEL 9
REMARK VINA RESULT:    -4.878     15.766     17.097
REMARK INTER + INTRA:          -5.629
REMARK INTER:                  -5.454
REMARK INTRA:                  -0.175
REMARK UNBOUND:                -0.181
REMARK  Name = 1550473
REMARK  2 active torsions:
REMARK  status: ('A' for Active; 'I' for Inactive)
REMARK    1  A    between atoms: N_1  and  C_4
REMARK    2  A    between atoms: C_4  and  C_5
REMARK                            x       y       z     vdW  Elec       q    Type
REMARK                         _______ _______ _______ _____ _____    ______ ____
ROOT
ATOM      1  N   UNL     1       4.425  13.478   8.330  0.00  0.00    -0.354 N 
ATOM      2  N   UNL     1       2.895  11.953   9.167  0.00  0.00    -0.372 N 
ATOM      3  N   UNL     1       5.125  11.645   9.612  0.00  0.00    -0.372 N 
ATOM      4  C   UNL     1       4.161  12.367   9.032  0.00  0.00    +0.166 C 
ATOM      5  H   UNL     1       3.652  13.964   7.889  0.00  0.00    +0.163 HD
ATOM      6  H   UNL     1       2.665  11.121   9.694  0.00  0.00    +0.159 HD
ATOM      7  H   UNL     1       2.121  12.466   8.764  0.00  0.00    +0.159 HD
ATOM      8  H   UNL     1       6.101  11.901   9.542  0.00  0.00    +0.159 HD
ATOM      9  H   UNL     1       4.916  10.803  10.133  0.00  0.00    +0.159 HD
ENDROOT
BRANCH   1  10
ATOM     10  C   UNL     1       5.763  14.044   8.167  0.00  0.00    +0.151 C 
BRANCH  10  11
ATOM     11  C   UNL     1       6.225  13.813   6.755  0.00  0.00    -0.028 A 
ATOM     12  C   UNL     1       5.898  14.725   5.741  0.00  0.00    +0.005 A 
ATOM     13  C   UNL     1       6.996  12.688   6.426  0.00  0.00    +0.005 A 
ATOM     14  C   UNL     1       6.353  14.527   4.435  0.00  0.00    +0.000 A 
ATOM     15  C   UNL     1       7.447  12.493   5.120  0.00  0.00    +0.000 A 
ATOM     16  C   UNL     1       7.128  13.415   4.126  0.00  0.00    +0.000 A 
ENDBRANCH  10  11
ENDBRANCH   1  10
TORSDOF 2
ENDMDL
