MODEL 1
REMARK VINA RESULT:    -4.593      0.000      0.000
REMARK INTER + INTRA:          -5.303
REMARK INTER:                  -5.130
REMARK INTRA:                  -0.173
REMARK UNBOUND:                -0.173
REMARK  Name = 1550473
REMARK  2 active torsions:
REMARK  status: ('A' for Active; 'I' for Inactive)
REMARK    1  A    between atoms: N_1  and  C_4
REMARK    2  A    between atoms: C_4  and  C_5
REMARK                            x       y       z     vdW  Elec       q    Type
REMARK                         _______ _______ _______ _____ _____    ______ ____
ROOT
ATOM      1  N   UNL     1     -10.872  -5.505  -4.326  0.00  0.00    -0.354 N 
ATOM      2  N   UNL     1     -10.492  -6.390  -2.220  0.00  0.00    -0.372 N 
ATOM      3  N   UNL     1     -10.191  -4.139  -2.547  0.00  0.00    -0.372 N 
ATOM      4  C   UNL     1     -10.520  -5.336  -3.044  0.00  0.00    +0.166 C 
ATOM      5  H   UNL     1     -11.080  -6.443  -4.648  0.00  0.00    +0.163 HD
ATOM      6  H   UNL     1     -10.233  -6.293  -1.247  0.00  0.00    +0.159 HD
ATOM      7  H   UNL     1     -10.745  -7.319  -2.533  0.00  0.00    +0.159 HD
ATOM      8  H   UNL     1     -10.187  -3.305  -3.119  0.00  0.00    +0.159 HD
ATOM      9  H   UNL     1      -9.919  -4.024  -1.579  0.00  0.00    +0.159 HD
ENDROOT
BRANCH   1  10
ATOM     10  C   UNL     1     -10.986  -4.415  -5.293  0.00  0.00    +0.151 C 
BRANCH  10  11
ATOM     11  C   UNL     1      -9.875  -4.532  -6.300  0.00  0.00    -0.028 A 
ATOM     12  C   UNL     1      -8.644  -3.899  -6.079  0.00  0.00    +0.005 A 
ATOM     13  C   UNL     1     -10.046  -5.282  -7.474  0.00  0.00    +0.005 A 
ATOM     14  C   UNL     1      -7.602  -4.033  -7.000  0.00  0.00    +0.000 A 
ATOM     15  C   UNL     1      -9.003  -5.412  -8.391  0.00  0.00    +0.000 A 
ATOM     16  C   UNL     1      -7.781  -4.790  -8.153  0.00  0.00    +0.000 A 
ENDBRANCH  10  11
ENDBRANCH   1  10
TORSDOF 2
ENDMDL
MODEL 2
REMARK VINA RESULT:    -4.378     26.817     27.743
REMARK INTER + INTRA:          -5.063
REMARK INTER:                  -4.942
REMARK INTRA:                  -0.122
REMARK UNBOUND:                -0.173
REMARK  Name = 1550473
REMARK  2 active torsions:
REMARK  status: ('A' for Active; 'I' for Inactive)
REMARK    1  A    between atoms: N_1  and  C_4
REMARK    2  A    between atoms: C_4  and  C_5
REMARK                            x       y       z     vdW  Elec       q    Type
REMARK                         _______ _______ _______ _____ _____    ______ ____
ROOT
ATOM      1  N   UNL     1      13.380  -9.121   8.174  0.00  0.00    -0.354 N 
ATOM      2  N   UNL     1      14.505 -10.580   6.770  0.00  0.00    -0.372 N 
ATOM      3  N   UNL     1      14.914 -10.674   9.025  0.00  0.00    -0.372 N 
ATOM      4  C   UNL     1      14.260 -10.116   8.001  0.00  0.00    +0.166 C 
ATOM      5  H   UNL     1      12.940  -8.720   7.353  0.00  0.00    +0.163 HD
ATOM      6  H   UNL     1      15.161 -11.333   6.609  0.00  0.00    +0.159 HD
ATOM      7  H   UNL     1      14.029 -10.209   5.956  0.00  0.00    +0.159 HD
ATOM      8  H   UNL     1      14.780 -10.366   9.979  0.00  0.00    +0.159 HD
ATOM      9  H   UNL     1      15.584 -11.421   8.884  0.00  0.00    +0.159 HD
ENDROOT
BRANCH   1  10
ATOM     10  C   UNL     1      13.003  -8.580   9.478  0.00  0.00    +0.151 C 
BRANCH  10  11
ATOM     11  C   UNL     1      13.133  -7.082   9.445  0.00  0.00    -0.028 A 
ATOM     12  C   UNL     1      14.125  -6.436  10.196  0.00  0.00    +0.005 A 
ATOM     13  C   UNL     1      12.269  -6.303   8.659  0.00  0.00    +0.005 A 
ATOM     14  C   UNL     1      14.265  -5.047  10.142  0.00  0.00    +0.000 A 
ATOM     15  C   UNL     1      12.411  -4.917   8.608  0.00  0.00    +0.000 A 
ATOM     16  C   UNL     1      13.411  -4.289   9.348  0.00  0.00    +0.000 A 
ENDBRANCH  10  11
ENDBRANCH   1  10
TORSDOF 2
ENDMDL
MODEL 3
REMARK VINA RESULT:    -4.365     26.779     27.802
REMARK INTER + INTRA:          -5.048
REMARK INTER:                  -4.913
REMARK INTRA:                  -0.135
REMARK UNBOUND:                -0.173
REMARK  Name = 1550473
REMARK  2 active torsions:
REMARK  status: ('A' for Active; 'I' for Inactive)
REMARK    1  A    between atoms: N_1  and  C_4
REMARK    2  A    between atoms: C_4  and  C_5
REMARK                            x       y       z     vdW  Elec       q    Type
REMARK                         _______ _______ _______ _____ _____    ______ ____
ROOT
ATOM      1  N   UNL     1      14.824  -9.149   7.445  0.00  0.00    -0.354 N 
ATOM      2  N   UNL     1      14.480 -11.187   6.400  0.00  0.00    -0.372 N 
ATOM      3  N   UNL     1      16.027  -9.738   5.522  0.00  0.00    -0.372 N 
ATOM      4  C   UNL     1      15.114 -10.010   6.461  0.00  0.00    +0.166 C 
ATOM      5  H   UNL     1      14.101  -9.402   8.108  0.00  0.00    +0.163 HD
ATOM      6  H   UNL     1      14.680 -11.858   5.671  0.00  0.00    +0.159 HD
ATOM      7  H   UNL     1      13.790 -11.456   7.091  0.00  0.00    +0.159 HD
ATOM      8  H   UNL     1      16.537  -8.865   5.508  0.00  0.00    +0.159 HD
ATOM      9  H   UNL     1      16.233 -10.392   4.777  0.00  0.00    +0.159 HD
ENDROOT
BRANCH   1  10
ATOM     10  C   UNL     1      15.497  -7.864   7.632  0.00  0.00    +0.151 C 
BRANCH  10  11
ATOM     11  C   UNL     1      14.486  -6.840   8.068  0.00  0.00    -0.028 A 
ATOM     12  C   UNL     1      13.175  -7.223   8.387  0.00  0.00    +0.005 A 
ATOM     13  C   UNL     1      14.834  -5.484   8.169  0.00  0.00    +0.005 A 
ATOM     14  C   UNL     1      12.244  -6.276   8.820  0.00  0.00    +0.000 A 
ATOM     15  C   UNL     1      13.901  -4.541   8.601  0.00  0.00    +0.000 A 
ATOM     16  C   UNL     1      12.607  -4.938   8.929  0.00  0.00    +0.000 A 
ENDBRANCH  10  11
ENDBRANCH   1  10
TORSDOF 2
ENDMDL
MODEL 4
REMARK VINA RESULT:    -4.353     28.549     29.450
REMARK INTER + INTRA:          -5.035
REMARK INTER:                  -4.925
REMARK INTRA:                  -0.111
REMARK UNBOUND:                -0.173
REMARK  Name = 1550473
REMARK  2 active torsions:
REMARK  status: ('A' for Active; 'I' for Inactive)
REMARK    1  A    between atoms: N_1  and  C_4
REMARK    2  A    between atoms: C_4  and  C_5
REMARK                            x       y       z     vdW  Elec       q    Type
REMARK                         _______ _______ _______ _____ _____    ______ ____
ROOT
ATOM      1  N   UNL     1      15.261  -6.233  12.361  0.00  0.00    -0.354 N 
ATOM      2  N   UNL     1      15.528  -7.146  14.473  0.00  0.00    -0.372 N 
ATOM      3  N   UNL     1      17.357  -6.980  13.097  0.00  0.00    -0.372 N 
ATOM      4  C   UNL     1      16.049  -6.781  13.296  0.00  0.00    +0.166 C 
ATOM      5  H   UNL     1      14.272  -6.137  12.562  0.00  0.00    +0.163 HD
ATOM      6  H   UNL     1      16.099  -7.558  15.199  0.00  0.00    +0.159 HD
ATOM      7  H   UNL     1      14.548  -7.006  14.688  0.00  0.00    +0.159 HD
ATOM      8  H   UNL     1      17.811  -6.732  12.228  0.00  0.00    +0.159 HD
ATOM      9  H   UNL     1      17.942  -7.402  13.807  0.00  0.00    +0.159 HD
ENDROOT
BRANCH   1  10
ATOM     10  C   UNL     1      15.740  -5.752  11.067  0.00  0.00    +0.151 C 
BRANCH  10  11
ATOM     11  C   UNL     1      14.569  -5.596  10.137  0.00  0.00    -0.028 A 
ATOM     12  C   UNL     1      13.692  -6.667   9.909  0.00  0.00    +0.005 A 
ATOM     13  C   UNL     1      14.327  -4.377   9.484  0.00  0.00    +0.005 A 
ATOM     14  C   UNL     1      12.586  -6.512   9.069  0.00  0.00    +0.000 A 
ATOM     15  C   UNL     1      13.223  -4.227   8.645  0.00  0.00    +0.000 A 
ATOM     16  C   UNL     1      12.351  -5.294   8.440  0.00  0.00    +0.000 A 
ENDBRANCH  10  11
ENDBRANCH   1  10
TORSDOF 2
ENDMDL
MODEL 5
REMARK VINA RESULT:    -4.325     14.852     16.151
REMARK INTER + INTRA:          -5.004
REMARK INTER:                  -4.878
REMARK INTRA:                  -0.126
REMARK UNBOUND:                -0.173
REMARK  Name = 1550473
REMARK  2 active torsions:
REMARK  status: ('A' for Active; 'I' for Inactive)
REMARK    1  A    between atoms: N_1  and  C_4
REMARK    2  A    between atoms: C_4  and  C_5
REMARK                            x       y       z     vdW  Elec       q    Type
REMARK                         _______ _______ _______ _____ _____    ______ ____
ROOT
ATOM      1  N   UNL     1      -2.269   6.981  -1.134  0.00  0.00    -0.354 N 
ATOM      2  N   UNL     1      -3.508   5.539  -2.456  0.00  0.00    -0.372 N 
ATOM      3  N   UNL     1      -2.722   4.791  -0.435  0.00  0.00    -0.372 N 
ATOM      4  C   UNL     1      -2.825   5.778  -1.331  0.00  0.00    +0.166 C 
ATOM      5  H   UNL     1      -2.357   7.677  -1.865  0.00  0.00    +0.163 HD
ATOM      6  H   UNL     1      -3.941   4.642  -2.631  0.00  0.00    +0.159 HD
ATOM      7  H   UNL     1      -3.634   6.251  -3.165  0.00  0.00    +0.159 HD
ATOM      8  H   UNL     1      -2.215   4.905   0.432  0.00  0.00    +0.159 HD
ATOM      9  H   UNL     1      -3.139   3.882  -0.597  0.00  0.00    +0.159 HD
ENDROOT
BRANCH   1  10
ATOM     10  C   UNL     1      -1.550   7.361   0.081  0.00  0.00    +0.151 C 
BRANCH  10  11
ATOM     11  C   UNL     1      -2.358   8.384   0.830  0.00  0.00    -0.028 A 
ATOM     12  C   UNL     1      -1.816   9.644   1.122  0.00  0.00    +0.005 A 
ATOM     13  C   UNL     1      -3.668   8.102   1.246  0.00  0.00    +0.005 A 
ATOM     14  C   UNL     1      -2.576  10.606   1.792  0.00  0.00    +0.000 A 
ATOM     15  C   UNL     1      -4.423   9.064   1.916  0.00  0.00    +0.000 A 
ATOM     16  C   UNL     1      -3.878  10.317   2.186  0.00  0.00    +0.000 A 
ENDBRANCH  10  11
ENDBRANCH   1  10
TORSDOF 2
ENDMDL
MODEL 6
REMARK VINA RESULT:    -4.120     24.384     25.608
REMARK INTER + INTRA:          -4.775
REMARK INTER:                  -4.635
REMARK INTRA:                  -0.140
REMARK UNBOUND:                -0.173
REMARK  Name = 1550473
REMARK  2 active torsions:
REMARK  status: ('A' for Active; 'I' for Inactive)
REMARK    1  A    between atoms: N_1  and  C_4
REMARK    2  A    between atoms: C_4  and  C_5
REMARK                            x       y       z     vdW  Elec       q    Type
REMARK                         _______ _______ _______ _____ _____    ______ ____
ROOT
ATOM      1  N   UNL     1      10.250  -9.494  10.253  0.00  0.00    -0.354 N 
ATOM      2  N   UNL     1      11.446  -7.930   9.034  0.00  0.00    -0.372 N 
ATOM      3  N   UNL     1      12.573  -9.678  10.004  0.00  0.00    -0.372 N 
ATOM      4  C   UNL     1      11.417  -9.046   9.773  0.00  0.00    +0.166 C 
ATOM      5  H   UNL     1       9.413  -8.953  10.068  0.00  0.00    +0.163 HD
ATOM      6  H   UNL     1      12.311  -7.569   8.655  0.00  0.00    +0.159 HD
ATOM      7  H   UNL     1      10.602  -7.416   8.812  0.00  0.00    +0.159 HD
ATOM      8  H   UNL     1      12.620 -10.522  10.559  0.00  0.00    +0.159 HD
ATOM      9  H   UNL     1      13.451  -9.326   9.643  0.00  0.00    +0.159 HD
ENDROOT
BRANCH   1  10
ATOM     10  C   UNL     1      10.102 -10.728  11.023  0.00  0.00    +0.151 C 
BRANCH  10  11
ATOM     11  C   UNL     1       8.911 -11.488  10.509  0.00  0.00    -0.028 A 
ATOM     12  C   UNL     1       8.491 -12.667  11.143  0.00  0.00    +0.005 A 
ATOM     13  C   UNL     1       8.194 -11.032   9.393  0.00  0.00    +0.005 A 
ATOM     14  C   UNL     1       7.366 -13.357  10.685  0.00  0.00    +0.000 A 
ATOM     15  C   UNL     1       7.072 -11.724   8.937  0.00  0.00    +0.000 A 
ATOM     16  C   UNL     1       6.657 -12.885   9.585  0.00  0.00    +0.000 A 
ENDBRANCH  10  11
ENDBRANCH   1  10
TORSDOF 2
ENDMDL
MODEL 7
REMARK VINA RESULT:    -4.100     12.865     14.105
REMARK INTER + INTRA:          -4.752
REMARK INTER:                  -4.617
REMARK INTRA:                  -0.135
REMARK UNBOUND:                -0.173
REMARK  Name = 1550473
REMARK  2 active torsions:
REMARK  status: ('A' for Active; 'I' for Inactive)
REMARK    1  A    between atoms: N_1  and  C_4
REMARK    2  A    between atoms: C_4  and  C_5
REMARK                            x       y       z     vdW  Elec       q    Type
REMARK                         _______ _______ _______ _____ _____    ______ ____
ROOT
ATOM      1  N   UNL     1      -6.176   7.382  -0.214  0.00  0.00    -0.354 N 
ATOM      2  N   UNL     1      -4.083   6.440   0.093  0.00  0.00    -0.372 N 
ATOM      3  N   UNL     1      -4.681   8.253   1.366  0.00  0.00    -0.372 N 
ATOM      4  C   UNL     1      -4.993   7.367   0.415  0.00  0.00    +0.166 C 
ATOM      5  H   UNL     1      -6.341   6.702  -0.947  0.00  0.00    +0.163 HD
ATOM      6  H   UNL     1      -3.183   6.401   0.553  0.00  0.00    +0.159 HD
ATOM      7  H   UNL     1      -4.267   5.732  -0.608  0.00  0.00    +0.159 HD
ATOM      8  H   UNL     1      -5.322   8.982   1.650  0.00  0.00    +0.159 HD
ATOM      9  H   UNL     1      -3.781   8.238   1.829  0.00  0.00    +0.159 HD
ENDROOT
BRANCH   1  10
ATOM     10  C   UNL     1      -7.257   8.316   0.099  0.00  0.00    +0.151 C 
BRANCH  10  11
ATOM     11  C   UNL     1      -8.562   7.569   0.118  0.00  0.00    -0.028 A 
ATOM     12  C   UNL     1      -8.659   6.292  -0.454  0.00  0.00    +0.005 A 
ATOM     13  C   UNL     1      -9.702   8.130   0.712  0.00  0.00    +0.005 A 
ATOM     14  C   UNL     1      -9.863   5.585  -0.410  0.00  0.00    +0.000 A 
ATOM     15  C   UNL     1     -10.903   7.421   0.754  0.00  0.00    +0.000 A 
ATOM     16  C   UNL     1     -10.982   6.148   0.195  0.00  0.00    +0.000 A 
ENDBRANCH  10  11
ENDBRANCH   1  10
TORSDOF 2
ENDMDL
MODEL 8
REMARK VINA RESULT:    -4.047     16.051     17.201
REMARK INTER + INTRA:          -4.693
REMARK INTER:                  -4.559
REMARK INTRA:                  -0.134
REMARK UNBOUND:                -0.173
REMARK  Name = 1550473
REMARK  2 active torsions:
REMARK  status: ('A' for Active; 'I' for Inactive)
REMARK    1  A    between atoms: N_1  and  C_4
REMARK    2  A    between atoms: C_4  and  C_5
REMARK                            x       y       z     vdW  Elec       q    Type
REMARK                         _______ _______ _______ _____ _____    ______ ____
ROOT
ATOM      1  N   UNL     1      -2.506  10.291   1.961  0.00  0.00    -0.354 N 
ATOM      2  N   UNL     1      -1.453  11.795   3.374  0.00  0.00    -0.372 N 
ATOM      3  N   UNL     1      -2.625  12.599   1.572  0.00  0.00    -0.372 N 
ATOM      4  C   UNL     1      -2.202  11.554   2.291  0.00  0.00    +0.166 C 
ATOM      5  H   UNL     1      -2.130   9.542   2.530  0.00  0.00    +0.163 HD
ATOM      6  H   UNL     1      -1.211  12.737   3.650  0.00  0.00    +0.159 HD
ATOM      7  H   UNL     1      -1.117  11.046   3.967  0.00  0.00    +0.159 HD
ATOM      8  H   UNL     1      -3.188  12.484   0.741  0.00  0.00    +0.159 HD
ATOM      9  H   UNL     1      -2.383  13.549   1.826  0.00  0.00    +0.159 HD
ENDROOT
BRANCH   1  10
ATOM     10  C   UNL     1      -3.359   9.924   0.833  0.00  0.00    +0.151 C 
BRANCH  10  11
ATOM     11  C   UNL     1      -2.881   8.617   0.261  0.00  0.00    -0.028 A 
ATOM     12  C   UNL     1      -1.650   8.075   0.657  0.00  0.00    +0.005 A 
ATOM     13  C   UNL     1      -3.658   7.915  -0.673  0.00  0.00    +0.005 A 
ATOM     14  C   UNL     1      -1.220   6.847   0.149  0.00  0.00    +0.000 A 
ATOM     15  C   UNL     1      -3.225   6.689  -1.178  0.00  0.00    +0.000 A 
ATOM     16  C   UNL     1      -2.007   6.154  -0.766  0.00  0.00    +0.000 A 
ENDBRANCH  10  11
ENDBRANCH   1  10
TORSDOF 2
ENDMDL
MODEL 9
REMARK VINA RESULT:    -4.024      1.006      1.959
REMARK INTER + INTRA:          -4.667
REMARK INTER:                  -4.488
REMARK INTRA:                  -0.179
REMARK UNBOUND:                -0.173
REMARK  Name = 1550473
REMARK  2 active torsions:
REMARK  status: ('A' for Active; 'I' for Inactive)
REMARK    1  A    between atoms: N_1  and  C_4
REMARK    2  A    between atoms: C_4  and  C_5
REMARK                            x       y       z     vdW  Elec       q    Type
REMARK                         _______ _______ _______ _____ _____    ______ ____
ROOT
ATOM      1  N   UNL     1     -11.142  -5.329  -4.247  0.00  0.00    -0.354 N 
ATOM      2  N   UNL     1     -10.290  -6.507  -2.444  0.00  0.00    -0.372 N 
ATOM      3  N   UNL     1      -9.131  -4.688  -3.228  0.00  0.00    -0.372 N 
ATOM      4  C   UNL     1     -10.191  -5.498  -3.319  0.00  0.00    +0.166 C 
ATOM      5  H   UNL     1     -11.904  -5.995  -4.282  0.00  0.00    +0.163 HD
ATOM      6  H   UNL     1      -9.589  -6.658  -1.731  0.00  0.00    +0.159 HD
ATOM      7  H   UNL     1     -11.077  -7.144  -2.453  0.00  0.00    +0.159 HD
ATOM      8  H   UNL     1      -8.995  -3.912  -3.861  0.00  0.00    +0.159 HD
ATOM      9  H   UNL     1      -8.414  -4.830  -2.528  0.00  0.00    +0.159 HD
ENDROOT
BRANCH   1  10
ATOM     10  C   UNL     1     -11.156  -4.230  -5.211  0.00  0.00    +0.151 C 
BRANCH  10  11
ATOM     11  C   UNL     1     -10.705  -4.746  -6.550  0.00  0.00    -0.028 A 
ATOM     12  C   UNL     1     -11.621  -5.343  -7.429  0.00  0.00    +0.005 A 
ATOM     13  C   UNL     1      -9.364  -4.635  -6.948  0.00  0.00    +0.005 A 
ATOM     14  C   UNL     1     -11.208  -5.795  -8.684  0.00  0.00    +0.000 A 
ATOM     15  C   UNL     1      -8.955  -5.088  -8.203  0.00  0.00    +0.000 A 
ATOM     16  C   UNL     1      -9.878  -5.665  -9.071  0.00  0.00    +0.000 A 
ENDBRANCH  10  11
ENDBRANCH   1  10
TORSDOF 2
ENDMDL
