MODEL 1
REMARK VINA RESULT:    -5.345      0.000      0.000
REMARK INTER + INTRA:          -6.099
REMARK INTER:                  -5.970
REMARK INTRA:                  -0.129
REMARK UNBOUND:                -0.129
REMARK  Name = 1550473
REMARK  2 active torsions:
REMARK  status: ('A' for Active; 'I' for Inactive)
REMARK    1  A    between atoms: N_1  and  C_4
REMARK    2  A    between atoms: C_4  and  C_5
REMARK                            x       y       z     vdW  Elec       q    Type
REMARK                         _______ _______ _______ _____ _____    ______ ____
ROOT
ATOM      1  N   UNL     1      -4.766   2.782  -3.467  0.00  0.00    -0.354 N 
ATOM      2  N   UNL     1      -5.227   2.410  -1.228  0.00  0.00    -0.372 N 
ATOM      3  N   UNL     1      -3.167   1.820  -2.049  0.00  0.00    -0.372 N 
ATOM      4  C   UNL     1      -4.381   2.338  -2.263  0.00  0.00    +0.166 C 
ATOM      5  H   UNL     1      -5.710   3.136  -3.570  0.00  0.00    +0.163 HD
ATOM      6  H   UNL     1      -4.964   2.086  -0.307  0.00  0.00    +0.159 HD
ATOM      7  H   UNL     1      -6.154   2.807  -1.324  0.00  0.00    +0.159 HD
ATOM      8  H   UNL     1      -2.484   1.732  -2.789  0.00  0.00    +0.159 HD
ATOM      9  H   UNL     1      -2.889   1.480  -1.136  0.00  0.00    +0.159 HD
ENDROOT
BRANCH   1  10
ATOM     10  C   UNL     1      -3.902   2.798  -4.646  0.00  0.00    +0.151 C 
BRANCH  10  11
ATOM     11  C   UNL     1      -4.398   1.777  -5.633  0.00  0.00    -0.028 A 
ATOM     12  C   UNL     1      -5.612   1.109  -5.416  0.00  0.00    +0.005 A 
ATOM     13  C   UNL     1      -3.661   1.478  -6.789  0.00  0.00    +0.005 A 
ATOM     14  C   UNL     1      -6.088   0.182  -6.347  0.00  0.00    +0.000 A 
ATOM     15  C   UNL     1      -4.139   0.552  -7.716  0.00  0.00    +0.000 A 
ATOM     16  C   UNL     1      -5.354  -0.094  -7.496  0.00  0.00    +0.000 A 
ENDBRANCH  10  11
ENDBRANCH   1  10
TORSDOF 2
ENDMDL
MODEL 2
REMARK VINA RESULT:    -5.340      3.082      4.739
REMARK INTER + INTRA:          -6.093
REMARK INTER:                  -5.947
REMARK INTRA:                  -0.146
REMARK UNBOUND:                -0.129
REMARK  Name = 1550473
REMARK  2 active torsions:
REMARK  status: ('A' for Active; 'I' for Inactive)
REMARK    1  A    between atoms: N_1  and  C_4
REMARK    2  A    between atoms: C_4  and  C_5
REMARK                            x       y       z     vdW  Elec       q    Type
REMARK                         _______ _______ _______ _____ _____    ______ ____
ROOT
ATOM      1  N   UNL     1      -2.186   2.041  -6.812  0.00  0.00    -0.354 N 
ATOM      2  N   UNL     1       0.063   1.697  -7.247  0.00  0.00    -0.372 N 
ATOM      3  N   UNL     1      -1.385  -0.074  -7.426  0.00  0.00    -0.372 N 
ATOM      4  C   UNL     1      -1.185   1.221  -7.159  0.00  0.00    +0.166 C 
ATOM      5  H   UNL     1      -1.964   3.005  -6.593  0.00  0.00    +0.163 HD
ATOM      6  H   UNL     1       0.837   1.102  -7.510  0.00  0.00    +0.159 HD
ATOM      7  H   UNL     1       0.275   2.671  -7.072  0.00  0.00    +0.159 HD
ATOM      8  H   UNL     1      -2.303  -0.497  -7.371  0.00  0.00    +0.159 HD
ATOM      9  H   UNL     1      -0.621  -0.688  -7.679  0.00  0.00    +0.159 HD
ENDROOT
BRANCH   1  10
ATOM     10  C   UNL     1      -3.588   1.635  -6.739  0.00  0.00    +0.151 C 
BRANCH  10  11
ATOM     11  C   UNL     1      -4.113   1.923  -5.360  0.00  0.00    -0.028 A 
ATOM     12  C   UNL     1      -3.464   2.850  -4.531  0.00  0.00    +0.005 A 
ATOM     13  C   UNL     1      -5.261   1.277  -4.878  0.00  0.00    +0.005 A 
ATOM     14  C   UNL     1      -3.968   3.140  -3.261  0.00  0.00    +0.000 A 
ATOM     15  C   UNL     1      -5.761   1.569  -3.609  0.00  0.00    +0.000 A 
ATOM     16  C   UNL     1      -5.115   2.502  -2.801  0.00  0.00    +0.000 A 
ENDBRANCH  10  11
ENDBRANCH   1  10
TORSDOF 2
ENDMDL
MODEL 3
REMARK VINA RESULT:    -5.311      3.058      4.702
REMARK INTER + INTRA:          -6.061
REMARK INTER:                  -5.930
REMARK INTRA:                  -0.131
REMARK UNBOUND:                -0.129
REMARK  Name = 1550473
REMARK  2 active torsions:
REMARK  status: ('A' for Active; 'I' for Inactive)
REMARK    1  A    between atoms: N_1  and  C_4
REMARK    2  A    between atoms: C_4  and  C_5
REMARK                            x       y       z     vdW  Elec       q    Type
REMARK                         _______ _______ _______ _____ _____    ______ ____
ROOT
ATOM      1  N   UNL     1      -2.798   1.907  -6.676  0.00  0.00    -0.354 N 
ATOM      2  N   UNL     1      -2.268   0.574  -8.494  0.00  0.00    -0.372 N 
ATOM      3  N   UNL     1      -0.567   1.440  -7.220  0.00  0.00    -0.372 N 
ATOM      4  C   UNL     1      -1.879   1.317  -7.450  0.00  0.00    +0.166 C 
ATOM      5  H   UNL     1      -3.776   1.799  -6.922  0.00  0.00    +0.163 HD
ATOM      6  H   UNL     1      -1.597   0.113  -9.094  0.00  0.00    +0.159 HD
ATOM      7  H   UNL     1      -3.247   0.430  -8.710  0.00  0.00    +0.159 HD
ATOM      8  H   UNL     1      -0.208   1.992  -6.452  0.00  0.00    +0.159 HD
ATOM      9  H   UNL     1       0.120   0.997  -7.816  0.00  0.00    +0.159 HD
ENDROOT
BRANCH   1  10
ATOM     10  C   UNL     1      -2.482   2.693  -5.484  0.00  0.00    +0.151 C 
BRANCH  10  11
ATOM     11  C   UNL     1      -3.560   2.484  -4.457  0.00  0.00    -0.028 A 
ATOM     12  C   UNL     1      -4.764   1.856  -4.807  0.00  0.00    +0.005 A 
ATOM     13  C   UNL     1      -3.382   2.908  -3.131  0.00  0.00    +0.005 A 
ATOM     14  C   UNL     1      -5.754   1.635  -3.846  0.00  0.00    +0.000 A 
ATOM     15  C   UNL     1      -4.373   2.686  -2.176  0.00  0.00    +0.000 A 
ATOM     16  C   UNL     1      -5.558   2.048  -2.533  0.00  0.00    +0.000 A 
ENDBRANCH  10  11
ENDBRANCH   1  10
TORSDOF 2
ENDMDL
MODEL 4
REMARK VINA RESULT:    -5.140      7.539      8.670
REMARK INTER + INTRA:          -5.870
REMARK INTER:                  -5.706
REMARK INTRA:                  -0.164
REMARK UNBOUND:                -0.129
REMARK  Name = 1550473
REMARK  2 active torsions:
REMARK  status: ('A' for Active; 'I' for Inactive)
REMARK    1  A    between atoms: N_1  and  C_4
REMARK    2  A    between atoms: C_4  and  C_5
REMARK                            x       y       z     vdW  Elec       q    Type
REMARK                         _______ _______ _______ _____ _____    ______ ____
ROOT
ATOM      1  N   UNL     1       0.766   0.738   1.906  0.00  0.00    -0.354 N 
ATOM      2  N   UNL     1       0.048   2.223   3.531  0.00  0.00    -0.372 N 
ATOM      3  N   UNL     1       1.510   0.556   4.121  0.00  0.00    -0.372 N 
ATOM      4  C   UNL     1       0.781   1.161   3.177  0.00  0.00    +0.166 C 
ATOM      5  H   UNL     1       0.170   1.222   1.245  0.00  0.00    +0.163 HD
ATOM      6  H   UNL     1       0.041   2.567   4.482  0.00  0.00    +0.159 HD
ATOM      7  H   UNL     1      -0.512   2.733   2.859  0.00  0.00    +0.159 HD
ATOM      8  H   UNL     1       2.080  -0.255   3.919  0.00  0.00    +0.159 HD
ATOM      9  H   UNL     1       1.507   0.878   5.080  0.00  0.00    +0.159 HD
ENDROOT
BRANCH   1  10
ATOM     10  C   UNL     1       1.570  -0.375   1.405  0.00  0.00    +0.151 C 
BRANCH  10  11
ATOM     11  C   UNL     1       0.656  -1.498   0.998  0.00  0.00    -0.028 A 
ATOM     12  C   UNL     1       0.402  -2.563   1.874  0.00  0.00    +0.005 A 
ATOM     13  C   UNL     1       0.034  -1.498  -0.260  0.00  0.00    +0.005 A 
ATOM     14  C   UNL     1      -0.471  -3.590   1.509  0.00  0.00    +0.000 A 
ATOM     15  C   UNL     1      -0.836  -2.526  -0.622  0.00  0.00    +0.000 A 
ATOM     16  C   UNL     1      -1.090  -3.571   0.264  0.00  0.00    +0.000 A 
ENDBRANCH  10  11
ENDBRANCH   1  10
TORSDOF 2
ENDMDL
MODEL 5
REMARK VINA RESULT:    -5.134      3.035      5.020
REMARK INTER + INTRA:          -5.863
REMARK INTER:                  -5.738
REMARK INTRA:                  -0.125
REMARK UNBOUND:                -0.129
REMARK  Name = 1550473
REMARK  2 active torsions:
REMARK  status: ('A' for Active; 'I' for Inactive)
REMARK    1  A    between atoms: N_1  and  C_4
REMARK    2  A    between atoms: C_4  and  C_5
REMARK                            x       y       z     vdW  Elec       q    Type
REMARK                         _______ _______ _______ _____ _____    ______ ____
ROOT
ATOM      1  N   UNL     1      -5.944  -0.628  -5.649  0.00  0.00    -0.354 N 
ATOM      2  N   UNL     1      -6.796  -0.250  -7.769  0.00  0.00    -0.372 N 
ATOM      3  N   UNL     1      -4.522  -0.391  -7.496  0.00  0.00    -0.372 N 
ATOM      4  C   UNL     1      -5.745  -0.425  -6.958  0.00  0.00    +0.166 C 
ATOM      5  H   UNL     1      -6.894  -0.613  -5.298  0.00  0.00    +0.163 HD
ATOM      6  H   UNL     1      -6.677  -0.099  -8.762  0.00  0.00    +0.159 HD
ATOM      7  H   UNL     1      -7.747  -0.281  -7.423  0.00  0.00    +0.159 HD
ATOM      8  H   UNL     1      -3.687  -0.510  -6.938  0.00  0.00    +0.159 HD
ATOM      9  H   UNL     1      -4.382  -0.228  -8.486  0.00  0.00    +0.159 HD
ENDROOT
BRANCH   1  10
ATOM     10  C   UNL     1      -4.871  -0.882  -4.689  0.00  0.00    +0.151 C 
BRANCH  10  11
ATOM     11  C   UNL     1      -4.870   0.207  -3.653  0.00  0.00    -0.028 A 
ATOM     12  C   UNL     1      -5.657   1.355  -3.826  0.00  0.00    +0.005 A 
ATOM     13  C   UNL     1      -4.089   0.095  -2.492  0.00  0.00    +0.005 A 
ATOM     14  C   UNL     1      -5.679   2.354  -2.849  0.00  0.00    +0.000 A 
ATOM     15  C   UNL     1      -4.113   1.095  -1.520  0.00  0.00    +0.000 A 
ATOM     16  C   UNL     1      -4.910   2.223  -1.698  0.00  0.00    +0.000 A 
ENDBRANCH  10  11
ENDBRANCH   1  10
TORSDOF 2
ENDMDL
MODEL 6
REMARK VINA RESULT:    -5.099      3.038      4.416
REMARK INTER + INTRA:          -5.824
REMARK INTER:                  -5.645
REMARK INTRA:                  -0.180
REMARK UNBOUND:                -0.129
REMARK  Name = 1550473
REMARK  2 active torsions:
REMARK  status: ('A' for Active; 'I' for Inactive)
REMARK    1  A    between atoms: N_1  and  C_4
REMARK    2  A    between atoms: C_4  and  C_5
REMARK                            x       y       z     vdW  Elec       q    Type
REMARK                         _______ _______ _______ _____ _____    ______ ____
ROOT
ATOM      1  N   UNL     1      -5.837  -1.050  -5.364  0.00  0.00    -0.354 N 
ATOM      2  N   UNL     1      -4.882  -3.149  -5.144  0.00  0.00    -0.372 N 
ATOM      3  N   UNL     1      -4.141  -1.762  -6.815  0.00  0.00    -0.372 N 
ATOM      4  C   UNL     1      -4.958  -1.972  -5.778  0.00  0.00    +0.166 C 
ATOM      5  H   UNL     1      -6.450  -1.282  -4.591  0.00  0.00    +0.163 HD
ATOM      6  H   UNL     1      -4.226  -3.862  -5.432  0.00  0.00    +0.159 HD
ATOM      7  H   UNL     1      -5.464  -3.360  -4.343  0.00  0.00    +0.159 HD
ATOM      8  H   UNL     1      -4.152  -0.898  -7.340  0.00  0.00    +0.159 HD
ATOM      9  H   UNL     1      -3.485  -2.469  -7.126  0.00  0.00    +0.159 HD
ENDROOT
BRANCH   1  10
ATOM     10  C   UNL     1      -5.963   0.282  -5.952  0.00  0.00    +0.151 C 
BRANCH  10  11
ATOM     11  C   UNL     1      -5.282   1.280  -5.057  0.00  0.00    -0.028 A 
ATOM     12  C   UNL     1      -5.759   1.513  -3.758  0.00  0.00    +0.005 A 
ATOM     13  C   UNL     1      -4.156   1.992  -5.498  0.00  0.00    +0.005 A 
ATOM     14  C   UNL     1      -5.109   2.418  -2.915  0.00  0.00    +0.000 A 
ATOM     15  C   UNL     1      -3.511   2.895  -4.654  0.00  0.00    +0.000 A 
ATOM     16  C   UNL     1      -3.986   3.106  -3.362  0.00  0.00    +0.000 A 
ENDBRANCH  10  11
ENDBRANCH   1  10
TORSDOF 2
ENDMDL
MODEL 7
REMARK VINA RESULT:    -5.070     18.316     19.747
REMARK INTER + INTRA:          -5.791
REMARK INTER:                  -5.613
REMARK INTRA:                  -0.179
REMARK UNBOUND:                -0.129
REMARK  Name = 1550473
REMARK  2 active torsions:
REMARK  status: ('A' for Active; 'I' for Inactive)
REMARK    1  A    between atoms: N_1  and  C_4
REMARK    2  A    between atoms: C_4  and  C_5
REMARK                            x       y       z     vdW  Elec       q    Type
REMARK                         _______ _______ _______ _____ _____    ______ ____
ROOT
ATOM      1  N   UNL     1       8.927   6.128   7.881  0.00  0.00    -0.354 N 
ATOM      2  N   UNL     1       6.684   5.591   7.666  0.00  0.00    -0.372 N 
ATOM      3  N   UNL     1       8.033   4.234   8.932  0.00  0.00    -0.372 N 
ATOM      4  C   UNL     1       7.897   5.319   8.163  0.00  0.00    +0.166 C 
ATOM      5  H   UNL     1       8.765   6.917   7.267  0.00  0.00    +0.163 HD
ATOM      6  H   UNL     1       5.887   5.001   7.864  0.00  0.00    +0.159 HD
ATOM      7  H   UNL     1       6.515   6.407   7.090  0.00  0.00    +0.159 HD
ATOM      8  H   UNL     1       8.923   3.969   9.333  0.00  0.00    +0.159 HD
ATOM      9  H   UNL     1       7.250   3.624   9.132  0.00  0.00    +0.159 HD
ENDROOT
BRANCH   1  10
ATOM     10  C   UNL     1      10.276   5.950   8.415  0.00  0.00    +0.151 C 
BRANCH  10  11
ATOM     11  C   UNL     1      11.160   5.382   7.339  0.00  0.00    -0.028 A 
ATOM     12  C   UNL     1      11.826   6.231   6.444  0.00  0.00    +0.005 A 
ATOM     13  C   UNL     1      11.339   3.996   7.213  0.00  0.00    +0.005 A 
ATOM     14  C   UNL     1      12.671   5.706   5.463  0.00  0.00    +0.000 A 
ATOM     15  C   UNL     1      12.183   3.475   6.232  0.00  0.00    +0.000 A 
ATOM     16  C   UNL     1      12.850   4.330   5.359  0.00  0.00    +0.000 A 
ENDBRANCH  10  11
ENDBRANCH   1  10
TORSDOF 2
ENDMDL
MODEL 8
REMARK VINA RESULT:    -5.023      2.936      3.624
REMARK INTER + INTRA:          -5.739
REMARK INTER:                  -5.615
REMARK INTRA:                  -0.124
REMARK UNBOUND:                -0.129
REMARK  Name = 1550473
REMARK  2 active torsions:
REMARK  status: ('A' for Active; 'I' for Inactive)
REMARK    1  A    between atoms: N_1  and  C_4
REMARK    2  A    between atoms: C_4  and  C_5
REMARK                            x       y       z     vdW  Elec       q    Type
REMARK                         _______ _______ _______ _____ _____    ______ ____
ROOT
ATOM      1  N   UNL     1      -1.547   2.285  -6.431  0.00  0.00    -0.354 N 
ATOM      2  N   UNL     1       0.568   1.647  -7.128  0.00  0.00    -0.372 N 
ATOM      3  N   UNL     1      -0.138   1.043  -5.030  0.00  0.00    -0.372 N 
ATOM      4  C   UNL     1      -0.386   1.662  -6.189  0.00  0.00    +0.166 C 
ATOM      5  H   UNL     1      -1.661   2.762  -7.319  0.00  0.00    +0.163 HD
ATOM      6  H   UNL     1       1.453   1.182  -6.975  0.00  0.00    +0.159 HD
ATOM      7  H   UNL     1       0.433   2.085  -8.031  0.00  0.00    +0.159 HD
ATOM      8  H   UNL     1      -0.814   1.023  -4.278  0.00  0.00    +0.159 HD
ATOM      9  H   UNL     1       0.746   0.582  -4.854  0.00  0.00    +0.159 HD
ENDROOT
BRANCH   1  10
ATOM     10  C   UNL     1      -2.671   2.313  -5.497  0.00  0.00    +0.151 C 
BRANCH  10  11
ATOM     11  C   UNL     1      -3.788   1.471  -6.047  0.00  0.00    -0.028 A 
ATOM     12  C   UNL     1      -4.935   1.220  -5.279  0.00  0.00    +0.005 A 
ATOM     13  C   UNL     1      -3.709   0.926  -7.338  0.00  0.00    +0.005 A 
ATOM     14  C   UNL     1      -5.986   0.462  -5.801  0.00  0.00    +0.000 A 
ATOM     15  C   UNL     1      -4.761   0.170  -7.855  0.00  0.00    +0.000 A 
ATOM     16  C   UNL     1      -5.900  -0.060  -7.087  0.00  0.00    +0.000 A 
ENDBRANCH  10  11
ENDBRANCH   1  10
TORSDOF 2
ENDMDL
MODEL 9
REMARK VINA RESULT:    -4.917     16.845     18.069
REMARK INTER + INTRA:          -5.621
REMARK INTER:                  -5.453
REMARK INTRA:                  -0.168
REMARK UNBOUND:                -0.129
REMARK  Name = 1550473
REMARK  2 active torsions:
REMARK  status: ('A' for Active; 'I' for Inactive)
REMARK    1  A    between atoms: N_1  and  C_4
REMARK    2  A    between atoms: C_4  and  C_5
REMARK                            x       y       z     vdW  Elec       q    Type
REMARK                         _______ _______ _______ _____ _____    ______ ____
ROOT
ATOM      1  N   UNL     1       8.233   6.208   8.160  0.00  0.00    -0.354 N 
ATOM      2  N   UNL     1       6.637   7.862   7.874  0.00  0.00    -0.372 N 
ATOM      3  N   UNL     1       5.967   5.785   8.583  0.00  0.00    -0.372 N 
ATOM      4  C   UNL     1       6.955   6.606   8.208  0.00  0.00    +0.166 C 
ATOM      5  H   UNL     1       8.931   6.869   7.838  0.00  0.00    +0.163 HD
ATOM      6  H   UNL     1       5.682   8.192   7.904  0.00  0.00    +0.159 HD
ATOM      7  H   UNL     1       7.343   8.534   7.597  0.00  0.00    +0.159 HD
ATOM      8  H   UNL     1       6.140   4.823   8.842  0.00  0.00    +0.159 HD
ATOM      9  H   UNL     1       5.003   6.093   8.608  0.00  0.00    +0.159 HD
ENDROOT
BRANCH   1  10
ATOM     10  C   UNL     1       8.691   4.878   8.555  0.00  0.00    +0.151 C 
BRANCH  10  11
ATOM     11  C   UNL     1       9.003   4.078   7.320  0.00  0.00    -0.028 A 
ATOM     12  C   UNL     1       7.981   3.412   6.627  0.00  0.00    +0.005 A 
ATOM     13  C   UNL     1      10.316   3.988   6.834  0.00  0.00    +0.005 A 
ATOM     14  C   UNL     1       8.265   2.695   5.462  0.00  0.00    +0.000 A 
ATOM     15  C   UNL     1      10.596   3.270   5.671  0.00  0.00    +0.000 A 
ATOM     16  C   UNL     1       9.570   2.625   4.985  0.00  0.00    +0.000 A 
ENDBRANCH  10  11
ENDBRANCH   1  10
TORSDOF 2
ENDMDL
