MODEL 1
REMARK VINA RESULT:    -5.526      0.000      0.000
REMARK INTER + INTRA:          -6.265
REMARK INTER:                  -6.172
REMARK INTRA:                  -0.093
REMARK UNBOUND:                -0.093
REMARK  Name = 1550473
REMARK  2 active torsions:
REMARK  status: ('A' for Active; 'I' for Inactive)
REMARK    1  A    between atoms: N_1  and  C_4
REMARK    2  A    between atoms: C_4  and  C_5
REMARK                            x       y       z     vdW  Elec       q    Type
REMARK                         _______ _______ _______ _____ _____    ______ ____
ROOT
ATOM      1  N   UNL     1      10.443  15.166  12.341  0.00  0.00    -0.354 N 
ATOM      2  N   UNL     1      10.342  13.782  14.195  0.00  0.00    -0.372 N 
ATOM      3  N   UNL     1      11.687  15.640  14.269  0.00  0.00    -0.372 N 
ATOM      4  C   UNL     1      10.827  14.873  13.590  0.00  0.00    +0.166 C 
ATOM      5  H   UNL     1       9.812  14.528  11.869  0.00  0.00    +0.163 HD
ATOM      6  H   UNL     1      10.611  13.538  15.139  0.00  0.00    +0.159 HD
ATOM      7  H   UNL     1       9.676  13.171  13.739  0.00  0.00    +0.159 HD
ATOM      8  H   UNL     1      12.094  16.474  13.867  0.00  0.00    +0.159 HD
ATOM      9  H   UNL     1      11.977  15.406  15.210  0.00  0.00    +0.159 HD
ENDROOT
BRANCH   1  10
ATOM     10  C   UNL     1      10.870  16.359  11.612  0.00  0.00    +0.151 C 
BRANCH  10  11
ATOM     11  C   UNL     1      10.037  16.500  10.368  0.00  0.00    -0.028 A 
ATOM     12  C   UNL     1      10.292  15.699   9.246  0.00  0.00    +0.005 A 
ATOM     13  C   UNL     1       8.986  17.428  10.309  0.00  0.00    +0.005 A 
ATOM     14  C   UNL     1       9.499  15.808   8.101  0.00  0.00    +0.000 A 
ATOM     15  C   UNL     1       8.197  17.535   9.163  0.00  0.00    +0.000 A 
ATOM     16  C   UNL     1       8.452  16.723   8.061  0.00  0.00    +0.000 A 
ENDBRANCH  10  11
ENDBRANCH   1  10
TORSDOF 2
ENDMDL
MODEL 2
REMARK VINA RESULT:    -5.451      4.604      5.899
REMARK INTER + INTRA:          -6.181
REMARK INTER:                  -6.051
REMARK INTRA:                  -0.130
REMARK UNBOUND:                -0.093
REMARK  Name = 1550473
REMARK  2 active torsions:
REMARK  status: ('A' for Active; 'I' for Inactive)
REMARK    1  A    between atoms: N_1  and  C_4
REMARK    2  A    between atoms: C_4  and  C_5
REMARK                            x       y       z     vdW  Elec       q    Type
REMARK                         _______ _______ _______ _____ _____    ______ ____
ROOT
ATOM      1  N   UNL     1       6.869  13.421   6.975  0.00  0.00    -0.354 N 
ATOM      2  N   UNL     1       4.642  13.006   7.456  0.00  0.00    -0.372 N 
ATOM      3  N   UNL     1       6.096  11.236   7.319  0.00  0.00    -0.372 N 
ATOM      4  C   UNL     1       5.884  12.554   7.247  0.00  0.00    +0.166 C 
ATOM      5  H   UNL     1       6.637  14.406   6.905  0.00  0.00    +0.163 HD
ATOM      6  H   UNL     1       3.879  12.376   7.666  0.00  0.00    +0.159 HD
ATOM      7  H   UNL     1       4.422  13.994   7.430  0.00  0.00    +0.159 HD
ATOM      8  H   UNL     1       7.009  10.831   7.165  0.00  0.00    +0.159 HD
ATOM      9  H   UNL     1       5.343  10.588   7.516  0.00  0.00    +0.159 HD
ENDROOT
BRANCH   1  10
ATOM     10  C   UNL     1       8.266  13.038   6.784  0.00  0.00    +0.151 C 
BRANCH  10  11
ATOM     11  C   UNL     1       9.142  13.951   7.598  0.00  0.00    -0.028 A 
ATOM     12  C   UNL     1      10.339  13.479   8.156  0.00  0.00    +0.005 A 
ATOM     13  C   UNL     1       8.783  15.291   7.808  0.00  0.00    +0.005 A 
ATOM     14  C   UNL     1      11.167  14.335   8.886  0.00  0.00    +0.000 A 
ATOM     15  C   UNL     1       9.612  16.142   8.539  0.00  0.00    +0.000 A 
ATOM     16  C   UNL     1      10.805  15.664   9.075  0.00  0.00    +0.000 A 
ENDBRANCH  10  11
ENDBRANCH   1  10
TORSDOF 2
ENDMDL
MODEL 3
REMARK VINA RESULT:    -5.394      4.054      5.354
REMARK INTER + INTRA:          -6.117
REMARK INTER:                  -5.968
REMARK INTRA:                  -0.150
REMARK UNBOUND:                -0.093
REMARK  Name = 1550473
REMARK  2 active torsions:
REMARK  status: ('A' for Active; 'I' for Inactive)
REMARK    1  A    between atoms: N_1  and  C_4
REMARK    2  A    between atoms: C_4  and  C_5
REMARK                            x       y       z     vdW  Elec       q    Type
REMARK                         _______ _______ _______ _____ _____    ______ ____
ROOT
ATOM      1  N   UNL     1       7.723  14.151   6.865  0.00  0.00    -0.354 N 
ATOM      2  N   UNL     1       5.599  13.339   6.424  0.00  0.00    -0.372 N 
ATOM      3  N   UNL     1       6.889  12.276   7.997  0.00  0.00    -0.372 N 
ATOM      4  C   UNL     1       6.752  13.259   7.100  0.00  0.00    +0.166 C 
ATOM      5  H   UNL     1       7.569  14.853   6.151  0.00  0.00    +0.163 HD
ATOM      6  H   UNL     1       4.847  12.683   6.583  0.00  0.00    +0.159 HD
ATOM      7  H   UNL     1       5.431  14.070   5.744  0.00  0.00    +0.159 HD
ATOM      8  H   UNL     1       7.736  12.157   8.536  0.00  0.00    +0.159 HD
ATOM      9  H   UNL     1       6.151  11.602   8.161  0.00  0.00    +0.159 HD
ENDROOT
BRANCH   1  10
ATOM     10  C   UNL     1       8.995  14.184   7.585  0.00  0.00    +0.151 C 
BRANCH  10  11
ATOM     11  C   UNL     1       9.014  15.382   8.494  0.00  0.00    -0.028 A 
ATOM     12  C   UNL     1       8.168  16.473   8.251  0.00  0.00    +0.005 A 
ATOM     13  C   UNL     1       9.873  15.429   9.603  0.00  0.00    +0.005 A 
ATOM     14  C   UNL     1       8.164  17.573   9.112  0.00  0.00    +0.000 A 
ATOM     15  C   UNL     1       9.867  16.530  10.460  0.00  0.00    +0.000 A 
ATOM     16  C   UNL     1       9.010  17.601  10.215  0.00  0.00    +0.000 A 
ENDBRANCH  10  11
ENDBRANCH   1  10
TORSDOF 2
ENDMDL
MODEL 4
REMARK VINA RESULT:    -5.383      1.551      1.937
REMARK INTER + INTRA:          -6.105
REMARK INTER:                  -6.151
REMARK INTRA:                   0.045
REMARK UNBOUND:                -0.093
REMARK  Name = 1550473
REMARK  2 active torsions:
REMARK  status: ('A' for Active; 'I' for Inactive)
REMARK    1  A    between atoms: N_1  and  C_4
REMARK    2  A    between atoms: C_4  and  C_5
REMARK                            x       y       z     vdW  Elec       q    Type
REMARK                         _______ _______ _______ _____ _____    ______ ____
ROOT
ATOM      1  N   UNL     1      10.647  16.241  12.264  0.00  0.00    -0.354 N 
ATOM      2  N   UNL     1      10.733  18.042  13.718  0.00  0.00    -0.372 N 
ATOM      3  N   UNL     1      12.227  17.948  11.980  0.00  0.00    -0.372 N 
ATOM      4  C   UNL     1      11.204  17.399  12.643  0.00  0.00    +0.166 C 
ATOM      5  H   UNL     1       9.894  15.862  12.827  0.00  0.00    +0.163 HD
ATOM      6  H   UNL     1      11.130  18.919  14.026  0.00  0.00    +0.159 HD
ATOM      7  H   UNL     1       9.950  17.684  14.252  0.00  0.00    +0.159 HD
ATOM      8  H   UNL     1      12.633  17.510  11.164  0.00  0.00    +0.159 HD
ATOM      9  H   UNL     1      12.647  18.820  12.279  0.00  0.00    +0.159 HD
ENDROOT
BRANCH   1  10
ATOM     10  C   UNL     1      11.051  15.489  11.077  0.00  0.00    +0.151 C 
BRANCH  10  11
ATOM     11  C   UNL     1      10.147  15.855   9.933  0.00  0.00    -0.028 A 
ATOM     12  C   UNL     1      10.200  15.141   8.727  0.00  0.00    +0.005 A 
ATOM     13  C   UNL     1       9.231  16.912  10.050  0.00  0.00    +0.005 A 
ATOM     14  C   UNL     1       9.340  15.462   7.674  0.00  0.00    +0.000 A 
ATOM     15  C   UNL     1       8.374  17.229   8.996  0.00  0.00    +0.000 A 
ATOM     16  C   UNL     1       8.427  16.502   7.809  0.00  0.00    +0.000 A 
ENDBRANCH  10  11
ENDBRANCH   1  10
TORSDOF 2
ENDMDL
MODEL 5
REMARK VINA RESULT:    -5.285      2.950      4.490
REMARK INTER + INTRA:          -5.995
REMARK INTER:                  -5.875
REMARK INTRA:                  -0.120
REMARK UNBOUND:                -0.093
REMARK  Name = 1550473
REMARK  2 active torsions:
REMARK  status: ('A' for Active; 'I' for Inactive)
REMARK    1  A    between atoms: N_1  and  C_4
REMARK    2  A    between atoms: C_4  and  C_5
REMARK                            x       y       z     vdW  Elec       q    Type
REMARK                         _______ _______ _______ _____ _____    ______ ____
ROOT
ATOM      1  N   UNL     1       9.355  16.331   9.720  0.00  0.00    -0.354 N 
ATOM      2  N   UNL     1       7.851  18.020   9.221  0.00  0.00    -0.372 N 
ATOM      3  N   UNL     1       9.013  18.117  11.198  0.00  0.00    -0.372 N 
ATOM      4  C   UNL     1       8.750  17.479  10.052  0.00  0.00    +0.166 C 
ATOM      5  H   UNL     1       9.090  15.881   8.851  0.00  0.00    +0.163 HD
ATOM      6  H   UNL     1       7.381  18.888   9.444  0.00  0.00    +0.159 HD
ATOM      7  H   UNL     1       7.622  17.592   8.333  0.00  0.00    +0.159 HD
ATOM      8  H   UNL     1       9.677  17.758  11.871  0.00  0.00    +0.159 HD
ATOM      9  H   UNL     1       8.545  18.980  11.443  0.00  0.00    +0.159 HD
ENDROOT
BRANCH   1  10
ATOM     10  C   UNL     1      10.388  15.686  10.529  0.00  0.00    +0.151 C 
BRANCH  10  11
ATOM     11  C   UNL     1      11.511  15.246   9.632  0.00  0.00    -0.028 A 
ATOM     12  C   UNL     1      12.517  16.147   9.255  0.00  0.00    +0.005 A 
ATOM     13  C   UNL     1      11.579  13.926   9.160  0.00  0.00    +0.005 A 
ATOM     14  C   UNL     1      13.577  15.731   8.446  0.00  0.00    +0.000 A 
ATOM     15  C   UNL     1      12.638  13.514   8.351  0.00  0.00    +0.000 A 
ATOM     16  C   UNL     1      13.638  14.416   7.997  0.00  0.00    +0.000 A 
ENDBRANCH  10  11
ENDBRANCH   1  10
TORSDOF 2
ENDMDL
MODEL 6
REMARK VINA RESULT:    -5.236      2.729      3.720
REMARK INTER + INTRA:          -5.941
REMARK INTER:                  -5.816
REMARK INTRA:                  -0.125
REMARK UNBOUND:                -0.093
REMARK  Name = 1550473
REMARK  2 active torsions:
REMARK  status: ('A' for Active; 'I' for Inactive)
REMARK    1  A    between atoms: N_1  and  C_4
REMARK    2  A    between atoms: C_4  and  C_5
REMARK                            x       y       z     vdW  Elec       q    Type
REMARK                         _______ _______ _______ _____ _____    ______ ____
ROOT
ATOM      1  N   UNL     1      10.984  17.305  12.235  0.00  0.00    -0.354 N 
ATOM      2  N   UNL     1      10.680  19.584  12.518  0.00  0.00    -0.372 N 
ATOM      3  N   UNL     1       8.904  18.305  11.828  0.00  0.00    -0.372 N 
ATOM      4  C   UNL     1      10.189  18.382  12.191  0.00  0.00    +0.166 C 
ATOM      5  H   UNL     1      11.957  17.435  12.488  0.00  0.00    +0.163 HD
ATOM      6  H   UNL     1      10.103  20.414  12.497  0.00  0.00    +0.159 HD
ATOM      7  H   UNL     1      11.641  19.703  12.815  0.00  0.00    +0.159 HD
ATOM      8  H   UNL     1       8.474  17.428  11.564  0.00  0.00    +0.159 HD
ATOM      9  H   UNL     1       8.314  19.126  11.790  0.00  0.00    +0.159 HD
ENDROOT
BRANCH   1  10
ATOM     10  C   UNL     1      10.534  15.944  11.950  0.00  0.00    +0.151 C 
BRANCH  10  11
ATOM     11  C   UNL     1      11.155  15.480  10.661  0.00  0.00    -0.028 A 
ATOM     12  C   UNL     1      12.102  16.276  10.001  0.00  0.00    +0.005 A 
ATOM     13  C   UNL     1      10.804  14.244  10.098  0.00  0.00    +0.005 A 
ATOM     14  C   UNL     1      12.701  15.833   8.819  0.00  0.00    +0.000 A 
ATOM     15  C   UNL     1      11.404  13.805   8.918  0.00  0.00    +0.000 A 
ATOM     16  C   UNL     1      12.354  14.599   8.280  0.00  0.00    +0.000 A 
ENDBRANCH  10  11
ENDBRANCH   1  10
TORSDOF 2
ENDMDL
MODEL 7
REMARK VINA RESULT:    -5.192      2.190      2.332
REMARK INTER + INTRA:          -5.892
REMARK INTER:                  -5.743
REMARK INTRA:                  -0.149
REMARK UNBOUND:                -0.093
REMARK  Name = 1550473
REMARK  2 active torsions:
REMARK  status: ('A' for Active; 'I' for Inactive)
REMARK    1  A    between atoms: N_1  and  C_4
REMARK    2  A    between atoms: C_4  and  C_5
REMARK                            x       y       z     vdW  Elec       q    Type
REMARK                         _______ _______ _______ _____ _____    ______ ____
ROOT
ATOM      1  N   UNL     1      10.093  15.101  13.264  0.00  0.00    -0.354 N 
ATOM      2  N   UNL     1       9.899  13.740  15.128  0.00  0.00    -0.372 N 
ATOM      3  N   UNL     1      11.871  14.859  14.772  0.00  0.00    -0.372 N 
ATOM      4  C   UNL     1      10.625  14.576  14.376  0.00  0.00    +0.166 C 
ATOM      5  H   UNL     1       9.154  14.824  13.003  0.00  0.00    +0.163 HD
ATOM      6  H   UNL     1      10.273  13.331  15.974  0.00  0.00    +0.159 HD
ATOM      7  H   UNL     1       8.945  13.500  14.889  0.00  0.00    +0.159 HD
ATOM      8  H   UNL     1      12.472  15.478  14.245  0.00  0.00    +0.159 HD
ATOM      9  H   UNL     1      12.266  14.450  15.609  0.00  0.00    +0.159 HD
ENDROOT
BRANCH   1  10
ATOM     10  C   UNL     1      10.780  16.064  12.405  0.00  0.00    +0.151 C 
BRANCH  10  11
ATOM     11  C   UNL     1      10.964  15.460  11.040  0.00  0.00    -0.028 A 
ATOM     12  C   UNL     1      10.270  14.297  10.677  0.00  0.00    +0.005 A 
ATOM     13  C   UNL     1      11.827  16.050  10.104  0.00  0.00    +0.005 A 
ATOM     14  C   UNL     1      10.418  13.752   9.399  0.00  0.00    +0.000 A 
ATOM     15  C   UNL     1      11.973  15.503   8.829  0.00  0.00    +0.000 A 
ATOM     16  C   UNL     1      11.267  14.355   8.476  0.00  0.00    +0.000 A 
ENDBRANCH  10  11
ENDBRANCH   1  10
TORSDOF 2
ENDMDL
MODEL 8
REMARK VINA RESULT:    -5.124      3.383      4.703
REMARK INTER + INTRA:          -5.815
REMARK INTER:                  -5.667
REMARK INTRA:                  -0.149
REMARK UNBOUND:                -0.093
REMARK  Name = 1550473
REMARK  2 active torsions:
REMARK  status: ('A' for Active; 'I' for Inactive)
REMARK    1  A    between atoms: N_1  and  C_4
REMARK    2  A    between atoms: C_4  and  C_5
REMARK                            x       y       z     vdW  Elec       q    Type
REMARK                         _______ _______ _______ _____ _____    ______ ____
ROOT
ATOM      1  N   UNL     1       6.999  16.656   9.507  0.00  0.00    -0.354 N 
ATOM      2  N   UNL     1       5.191  15.999  10.797  0.00  0.00    -0.372 N 
ATOM      3  N   UNL     1       5.784  14.721   8.985  0.00  0.00    -0.372 N 
ATOM      4  C   UNL     1       6.003  15.794   9.752  0.00  0.00    +0.166 C 
ATOM      5  H   UNL     1       7.094  17.466  10.108  0.00  0.00    +0.163 HD
ATOM      6  H   UNL     1       4.433  15.364  11.009  0.00  0.00    +0.159 HD
ATOM      7  H   UNL     1       5.317  16.785  11.423  0.00  0.00    +0.159 HD
ATOM      8  H   UNL     1       6.357  14.514   8.178  0.00  0.00    +0.159 HD
ATOM      9  H   UNL     1       5.023  14.081   9.175  0.00  0.00    +0.159 HD
ENDROOT
BRANCH   1  10
ATOM     10  C   UNL     1       7.971  16.495   8.427  0.00  0.00    +0.151 C 
BRANCH  10  11
ATOM     11  C   UNL     1       9.346  16.355   9.021  0.00  0.00    -0.028 A 
ATOM     12  C   UNL     1       9.640  16.912  10.274  0.00  0.00    +0.005 A 
ATOM     13  C   UNL     1      10.357  15.662   8.338  0.00  0.00    +0.005 A 
ATOM     14  C   UNL     1      10.908  16.757  10.839  0.00  0.00    +0.000 A 
ATOM     15  C   UNL     1      11.622  15.510   8.905  0.00  0.00    +0.000 A 
ATOM     16  C   UNL     1      11.896  16.055  10.157  0.00  0.00    +0.000 A 
ENDBRANCH  10  11
ENDBRANCH   1  10
TORSDOF 2
ENDMDL
MODEL 9
REMARK VINA RESULT:    -5.014     19.495     20.653
REMARK INTER + INTRA:          -5.693
REMARK INTER:                  -5.517
REMARK INTRA:                  -0.176
REMARK UNBOUND:                -0.093
REMARK  Name = 1550473
REMARK  2 active torsions:
REMARK  status: ('A' for Active; 'I' for Inactive)
REMARK    1  A    between atoms: N_1  and  C_4
REMARK    2  A    between atoms: C_4  and  C_5
REMARK                            x       y       z     vdW  Elec       q    Type
REMARK                         _______ _______ _______ _____ _____    ______ ____
ROOT
ATOM      1  N   UNL     1       3.955  -1.141   1.883  0.00  0.00    -0.354 N 
ATOM      2  N   UNL     1       2.616  -2.442   0.512  0.00  0.00    -0.372 N 
ATOM      3  N   UNL     1       4.885  -2.442   0.170  0.00  0.00    -0.372 N 
ATOM      4  C   UNL     1       3.830  -2.000   0.863  0.00  0.00    +0.166 C 
ATOM      5  H   UNL     1       3.113  -0.820   2.348  0.00  0.00    +0.163 HD
ATOM      6  H   UNL     1       2.491  -3.093  -0.252  0.00  0.00    +0.159 HD
ATOM      7  H   UNL     1       1.781  -2.155   1.008  0.00  0.00    +0.159 HD
ATOM      8  H   UNL     1       5.827  -2.143   0.381  0.00  0.00    +0.159 HD
ATOM      9  H   UNL     1       4.779  -3.085  -0.604  0.00  0.00    +0.159 HD
ENDROOT
BRANCH   1  10
ATOM     10  C   UNL     1       5.236  -0.641   2.379  0.00  0.00    +0.151 C 
BRANCH  10  11
ATOM     11  C   UNL     1       5.547  -1.307   3.692  0.00  0.00    -0.028 A 
ATOM     12  C   UNL     1       5.128  -0.730   4.899  0.00  0.00    +0.005 A 
ATOM     13  C   UNL     1       6.256  -2.517   3.734  0.00  0.00    +0.005 A 
ATOM     14  C   UNL     1       5.391  -1.362   6.117  0.00  0.00    +0.000 A 
ATOM     15  C   UNL     1       6.517  -3.145   4.952  0.00  0.00    +0.000 A 
ATOM     16  C   UNL     1       6.082  -2.569   6.142  0.00  0.00    +0.000 A 
ENDBRANCH  10  11
ENDBRANCH   1  10
TORSDOF 2
ENDMDL
