MODEL 1
REMARK VINA RESULT:    -5.556      0.000      0.000
REMARK INTER + INTRA:          -6.325
REMARK INTER:                  -6.205
REMARK INTRA:                  -0.120
REMARK UNBOUND:                -0.120
REMARK  Name = 1550473
REMARK  2 active torsions:
REMARK  status: ('A' for Active; 'I' for Inactive)
REMARK    1  A    between atoms: N_1  and  C_4
REMARK    2  A    between atoms: C_4  and  C_5
REMARK                            x       y       z     vdW  Elec       q    Type
REMARK                         _______ _______ _______ _____ _____    ______ ____
ROOT
ATOM      1  N   UNL     1     -12.915  -7.525 -13.142  0.00  0.00    -0.354 N 
ATOM      2  N   UNL     1     -11.480  -6.424 -14.588  0.00  0.00    -0.372 N 
ATOM      3  N   UNL     1     -13.348  -7.446 -15.444  0.00  0.00    -0.372 N 
ATOM      4  C   UNL     1     -12.592  -7.140 -14.384  0.00  0.00    +0.166 C 
ATOM      5  H   UNL     1     -12.285  -7.287 -12.385  0.00  0.00    +0.163 HD
ATOM      6  H   UNL     1     -11.212  -6.117 -15.513  0.00  0.00    +0.159 HD
ATOM      7  H   UNL     1     -10.876  -6.149 -13.823  0.00  0.00    +0.159 HD
ATOM      8  H   UNL     1     -14.196  -7.989 -15.358  0.00  0.00    +0.159 HD
ATOM      9  H   UNL     1     -13.090  -7.157 -16.379  0.00  0.00    +0.159 HD
ENDROOT
BRANCH   1  10
ATOM     10  C   UNL     1     -14.132  -8.262 -12.805  0.00  0.00    +0.151 C 
BRANCH  10  11
ATOM     11  C   UNL     1     -13.836  -9.211 -11.677  0.00  0.00    -0.028 A 
ATOM     12  C   UNL     1     -12.929  -8.856 -10.668  0.00  0.00    +0.005 A 
ATOM     13  C   UNL     1     -14.462 -10.465 -11.610  0.00  0.00    +0.005 A 
ATOM     14  C   UNL     1     -12.676  -9.726  -9.604  0.00  0.00    +0.000 A 
ATOM     15  C   UNL     1     -14.206 -11.331 -10.546  0.00  0.00    +0.000 A 
ATOM     16  C   UNL     1     -13.315 -10.960  -9.542  0.00  0.00    +0.000 A 
ENDBRANCH  10  11
ENDBRANCH   1  10
TORSDOF 2
ENDMDL
MODEL 2
REMARK VINA RESULT:    -5.264      3.043      4.582
REMARK INTER + INTRA:          -6.000
REMARK INTER:                  -5.848
REMARK INTRA:                  -0.151
REMARK UNBOUND:                -0.120
REMARK  Name = 1550473
REMARK  2 active torsions:
REMARK  status: ('A' for Active; 'I' for Inactive)
REMARK    1  A    between atoms: N_1  and  C_4
REMARK    2  A    between atoms: C_4  and  C_5
REMARK                            x       y       z     vdW  Elec       q    Type
REMARK                         _______ _______ _______ _____ _____    ______ ____
ROOT
ATOM      1  N   UNL     1     -13.765  -7.132 -14.528  0.00  0.00    -0.354 N 
ATOM      2  N   UNL     1     -12.507  -6.760 -16.437  0.00  0.00    -0.372 N 
ATOM      3  N   UNL     1     -11.479  -6.633 -14.389  0.00  0.00    -0.372 N 
ATOM      4  C   UNL     1     -12.590  -6.844 -15.103  0.00  0.00    +0.166 C 
ATOM      5  H   UNL     1     -14.576  -7.251 -15.123  0.00  0.00    +0.163 HD
ATOM      6  H   UNL     1     -11.634  -6.548 -16.899  0.00  0.00    +0.159 HD
ATOM      7  H   UNL     1     -13.310  -6.925 -17.032  0.00  0.00    +0.159 HD
ATOM      8  H   UNL     1     -11.477  -6.676 -13.379  0.00  0.00    +0.159 HD
ATOM      9  H   UNL     1     -10.598  -6.408 -14.833  0.00  0.00    +0.159 HD
ENDROOT
BRANCH   1  10
ATOM     10  C   UNL     1     -13.951  -7.299 -13.087  0.00  0.00    +0.151 C 
BRANCH  10  11
ATOM     11  C   UNL     1     -14.859  -6.213 -12.580  0.00  0.00    -0.028 A 
ATOM     12  C   UNL     1     -15.676  -5.496 -13.467  0.00  0.00    +0.005 A 
ATOM     13  C   UNL     1     -14.913  -5.900 -11.213  0.00  0.00    +0.005 A 
ATOM     14  C   UNL     1     -16.542  -4.508 -12.993  0.00  0.00    +0.000 A 
ATOM     15  C   UNL     1     -15.778  -4.913 -10.744  0.00  0.00    +0.000 A 
ATOM     16  C   UNL     1     -16.595  -4.218 -11.634  0.00  0.00    +0.000 A 
ENDBRANCH  10  11
ENDBRANCH   1  10
TORSDOF 2
ENDMDL
MODEL 3
REMARK VINA RESULT:    -5.171      1.343      2.326
REMARK INTER + INTRA:          -5.896
REMARK INTER:                  -5.761
REMARK INTRA:                  -0.135
REMARK UNBOUND:                -0.120
REMARK  Name = 1550473
REMARK  2 active torsions:
REMARK  status: ('A' for Active; 'I' for Inactive)
REMARK    1  A    between atoms: N_1  and  C_4
REMARK    2  A    between atoms: C_4  and  C_5
REMARK                            x       y       z     vdW  Elec       q    Type
REMARK                         _______ _______ _______ _____ _____    ______ ____
ROOT
ATOM      1  N   UNL     1     -14.506  -8.374 -12.318  0.00  0.00    -0.354 N 
ATOM      2  N   UNL     1     -14.321  -6.093 -12.670  0.00  0.00    -0.372 N 
ATOM      3  N   UNL     1     -12.533  -7.440 -13.170  0.00  0.00    -0.372 N 
ATOM      4  C   UNL     1     -13.785  -7.318 -12.718  0.00  0.00    +0.166 C 
ATOM      5  H   UNL     1     -15.439  -8.211 -11.956  0.00  0.00    +0.163 HD
ATOM      6  H   UNL     1     -13.803  -5.277 -12.969  0.00  0.00    +0.159 HD
ATOM      7  H   UNL     1     -15.270  -5.938 -12.352  0.00  0.00    +0.159 HD
ATOM      8  H   UNL     1     -12.069  -8.337 -13.226  0.00  0.00    +0.159 HD
ATOM      9  H   UNL     1     -11.994  -6.635 -13.463  0.00  0.00    +0.159 HD
ENDROOT
BRANCH   1  10
ATOM     10  C   UNL     1     -14.034  -9.757 -12.380  0.00  0.00    +0.151 C 
BRANCH  10  11
ATOM     11  C   UNL     1     -13.800 -10.259 -10.982  0.00  0.00    -0.028 A 
ATOM     12  C   UNL     1     -14.529 -11.350 -10.486  0.00  0.00    +0.005 A 
ATOM     13  C   UNL     1     -12.847  -9.651 -10.150  0.00  0.00    +0.005 A 
ATOM     14  C   UNL     1     -14.290 -11.836  -9.198  0.00  0.00    +0.000 A 
ATOM     15  C   UNL     1     -12.613 -10.139  -8.864  0.00  0.00    +0.000 A 
ATOM     16  C   UNL     1     -13.333 -11.233  -8.390  0.00  0.00    +0.000 A 
ENDBRANCH  10  11
ENDBRANCH   1  10
TORSDOF 2
ENDMDL
MODEL 4
REMARK VINA RESULT:    -4.599     20.719     22.598
REMARK INTER + INTRA:          -5.256
REMARK INTER:                  -5.094
REMARK INTRA:                  -0.163
REMARK UNBOUND:                -0.120
REMARK  Name = 1550473
REMARK  2 active torsions:
REMARK  status: ('A' for Active; 'I' for Inactive)
REMARK    1  A    between atoms: N_1  and  C_4
REMARK    2  A    between atoms: C_4  and  C_5
REMARK                            x       y       z     vdW  Elec       q    Type
REMARK                         _______ _______ _______ _____ _____    ______ ____
ROOT
ATOM      1  N   UNL     1      -7.060  10.242 -21.172  0.00  0.00    -0.354 N 
ATOM      2  N   UNL     1      -8.953   9.014 -20.649  0.00  0.00    -0.372 N 
ATOM      3  N   UNL     1      -7.041   8.679 -19.426  0.00  0.00    -0.372 N 
ATOM      4  C   UNL     1      -7.670   9.318 -20.417  0.00  0.00    +0.166 C 
ATOM      5  H   UNL     1      -7.584  10.668 -21.928  0.00  0.00    +0.163 HD
ATOM      6  H   UNL     1      -9.441   8.324 -20.093  0.00  0.00    +0.159 HD
ATOM      7  H   UNL     1      -9.487   9.476 -21.375  0.00  0.00    +0.159 HD
ATOM      8  H   UNL     1      -6.070   8.858 -19.204  0.00  0.00    +0.159 HD
ATOM      9  H   UNL     1      -7.509   7.977 -18.867  0.00  0.00    +0.159 HD
ENDROOT
BRANCH   1  10
ATOM     10  C   UNL     1      -5.682  10.684 -20.968  0.00  0.00    +0.151 C 
BRANCH  10  11
ATOM     11  C   UNL     1      -4.794  10.010 -21.977  0.00  0.00    -0.028 A 
ATOM     12  C   UNL     1      -5.266   9.736 -23.270  0.00  0.00    +0.005 A 
ATOM     13  C   UNL     1      -3.479   9.646 -21.649  0.00  0.00    +0.005 A 
ATOM     14  C   UNL     1      -4.432   9.137 -24.217  0.00  0.00    +0.000 A 
ATOM     15  C   UNL     1      -2.650   9.047 -22.598  0.00  0.00    +0.000 A 
ATOM     16  C   UNL     1      -3.126   8.795 -23.882  0.00  0.00    +0.000 A 
ENDBRANCH  10  11
ENDBRANCH   1  10
TORSDOF 2
ENDMDL
MODEL 5
REMARK VINA RESULT:    -4.512      6.788      8.435
REMARK INTER + INTRA:          -5.160
REMARK INTER:                  -5.021
REMARK INTRA:                  -0.139
REMARK UNBOUND:                -0.120
REMARK  Name = 1550473
REMARK  2 active torsions:
REMARK  status: ('A' for Active; 'I' for Inactive)
REMARK    1  A    between atoms: N_1  and  C_4
REMARK    2  A    between atoms: C_4  and  C_5
REMARK                            x       y       z     vdW  Elec       q    Type
REMARK                         _______ _______ _______ _____ _____    ______ ____
ROOT
ATOM      1  N   UNL     1     -19.798 -13.623  -9.586  0.00  0.00    -0.354 N 
ATOM      2  N   UNL     1     -21.158 -15.498  -9.595  0.00  0.00    -0.372 N 
ATOM      3  N   UNL     1     -20.369 -14.709  -7.589  0.00  0.00    -0.372 N 
ATOM      4  C   UNL     1     -20.432 -14.598  -8.921  0.00  0.00    +0.166 C 
ATOM      5  H   UNL     1     -19.861 -13.612 -10.598  0.00  0.00    +0.163 HD
ATOM      6  H   UNL     1     -21.650 -16.243  -9.119  0.00  0.00    +0.159 HD
ATOM      7  H   UNL     1     -21.257 -15.457 -10.602  0.00  0.00    +0.159 HD
ATOM      8  H   UNL     1     -19.833 -14.066  -7.023  0.00  0.00    +0.159 HD
ATOM      9  H   UNL     1     -20.845 -15.455  -7.097  0.00  0.00    +0.159 HD
ENDROOT
BRANCH   1  10
ATOM     10  C   UNL     1     -19.026 -12.562  -8.942  0.00  0.00    +0.151 C 
BRANCH  10  11
ATOM     11  C   UNL     1     -17.664 -12.492  -9.577  0.00  0.00    -0.028 A 
ATOM     12  C   UNL     1     -17.469 -12.932 -10.894  0.00  0.00    +0.005 A 
ATOM     13  C   UNL     1     -16.566 -11.980  -8.868  0.00  0.00    +0.005 A 
ATOM     14  C   UNL     1     -16.211 -12.838 -11.494  0.00  0.00    +0.000 A 
ATOM     15  C   UNL     1     -15.311 -11.890  -9.470  0.00  0.00    +0.000 A 
ATOM     16  C   UNL     1     -15.135 -12.317 -10.784  0.00  0.00    +0.000 A 
ENDBRANCH  10  11
ENDBRANCH   1  10
TORSDOF 2
ENDMDL
MODEL 6
REMARK VINA RESULT:    -4.499     18.127     19.427
REMARK INTER + INTRA:          -5.145
REMARK INTER:                  -5.043
REMARK INTRA:                  -0.102
REMARK UNBOUND:                -0.120
REMARK  Name = 1550473
REMARK  2 active torsions:
REMARK  status: ('A' for Active; 'I' for Inactive)
REMARK    1  A    between atoms: N_1  and  C_4
REMARK    2  A    between atoms: C_4  and  C_5
REMARK                            x       y       z     vdW  Elec       q    Type
REMARK                         _______ _______ _______ _____ _____    ______ ____
ROOT
ATOM      1  N   UNL     1      -8.296  -8.671   7.352  0.00  0.00    -0.354 N 
ATOM      2  N   UNL     1      -6.030  -8.238   7.557  0.00  0.00    -0.372 N 
ATOM      3  N   UNL     1      -7.520  -6.523   7.876  0.00  0.00    -0.372 N 
ATOM      4  C   UNL     1      -7.298  -7.811   7.594  0.00  0.00    +0.166 C 
ATOM      5  H   UNL     1      -8.060  -9.628   7.114  0.00  0.00    +0.163 HD
ATOM      6  H   UNL     1      -5.257  -7.613   7.739  0.00  0.00    +0.159 HD
ATOM      7  H   UNL     1      -5.799  -9.206   7.365  0.00  0.00    +0.159 HD
ATOM      8  H   UNL     1      -8.454  -6.136   7.913  0.00  0.00    +0.159 HD
ATOM      9  H   UNL     1      -6.759  -5.879   8.049  0.00  0.00    +0.159 HD
ENDROOT
BRANCH   1  10
ATOM     10  C   UNL     1      -9.714  -8.319   7.420  0.00  0.00    +0.151 C 
BRANCH  10  11
ATOM     11  C   UNL     1     -10.498  -9.271   6.559  0.00  0.00    -0.028 A 
ATOM     12  C   UNL     1     -10.424 -10.654   6.776  0.00  0.00    +0.005 A 
ATOM     13  C   UNL     1     -11.321  -8.794   5.527  0.00  0.00    +0.005 A 
ATOM     14  C   UNL     1     -11.175 -11.536   5.996  0.00  0.00    +0.000 A 
ATOM     15  C   UNL     1     -12.069  -9.678   4.750  0.00  0.00    +0.000 A 
ATOM     16  C   UNL     1     -11.998 -11.049   4.986  0.00  0.00    +0.000 A 
ENDBRANCH  10  11
ENDBRANCH   1  10
TORSDOF 2
ENDMDL
MODEL 7
REMARK VINA RESULT:    -4.472     25.152     26.380
REMARK INTER + INTRA:          -5.115
REMARK INTER:                  -4.990
REMARK INTRA:                  -0.125
REMARK UNBOUND:                -0.120
REMARK  Name = 1550473
REMARK  2 active torsions:
REMARK  status: ('A' for Active; 'I' for Inactive)
REMARK    1  A    between atoms: N_1  and  C_4
REMARK    2  A    between atoms: C_4  and  C_5
REMARK                            x       y       z     vdW  Elec       q    Type
REMARK                         _______ _______ _______ _____ _____    ______ ____
ROOT
ATOM      1  N   UNL     1      -2.428   6.731   4.737  0.00  0.00    -0.354 N 
ATOM      2  N   UNL     1      -3.764   7.411   2.971  0.00  0.00    -0.372 N 
ATOM      3  N   UNL     1      -4.617   5.929   4.501  0.00  0.00    -0.372 N 
ATOM      4  C   UNL     1      -3.596   6.684   4.082  0.00  0.00    +0.166 C 
ATOM      5  H   UNL     1      -1.683   7.300   4.351  0.00  0.00    +0.163 HD
ATOM      6  H   UNL     1      -4.635   7.398   2.458  0.00  0.00    +0.159 HD
ATOM      7  H   UNL     1      -3.033   8.014   2.613  0.00  0.00    +0.159 HD
ATOM      8  H   UNL     1      -4.553   5.352   5.329  0.00  0.00    +0.159 HD
ATOM      9  H   UNL     1      -5.493   5.894   3.994  0.00  0.00    +0.159 HD
ENDROOT
BRANCH   1  10
ATOM     10  C   UNL     1      -2.161   6.020   5.986  0.00  0.00    +0.151 C 
BRANCH  10  11
ATOM     11  C   UNL     1      -0.674   5.910   6.180  0.00  0.00    -0.028 A 
ATOM     12  C   UNL     1       0.191   5.928   5.077  0.00  0.00    +0.005 A 
ATOM     13  C   UNL     1      -0.124   5.792   7.466  0.00  0.00    +0.005 A 
ATOM     14  C   UNL     1       1.574   5.856   5.259  0.00  0.00    +0.000 A 
ATOM     15  C   UNL     1       1.257   5.719   7.644  0.00  0.00    +0.000 A 
ATOM     16  C   UNL     1       2.106   5.754   6.540  0.00  0.00    +0.000 A 
ENDBRANCH  10  11
ENDBRANCH   1  10
TORSDOF 2
ENDMDL
MODEL 8
REMARK VINA RESULT:    -4.363     14.819     15.849
REMARK INTER + INTRA:          -4.993
REMARK INTER:                  -4.822
REMARK INTRA:                  -0.171
REMARK UNBOUND:                -0.120
REMARK  Name = 1550473
REMARK  2 active torsions:
REMARK  status: ('A' for Active; 'I' for Inactive)
REMARK    1  A    between atoms: N_1  and  C_4
REMARK    2  A    between atoms: C_4  and  C_5
REMARK                            x       y       z     vdW  Elec       q    Type
REMARK                         _______ _______ _______ _____ _____    ______ ____
ROOT
ATOM      1  N   UNL     1     -16.591  -9.841   3.959  0.00  0.00    -0.354 N 
ATOM      2  N   UNL     1     -14.320  -9.396   3.870  0.00  0.00    -0.372 N 
ATOM      3  N   UNL     1     -15.686  -8.520   2.248  0.00  0.00    -0.372 N 
ATOM      4  C   UNL     1     -15.548  -9.254   3.357  0.00  0.00    +0.166 C 
ATOM      5  H   UNL     1     -16.415 -10.410   4.780  0.00  0.00    +0.163 HD
ATOM      6  H   UNL     1     -13.514  -8.962   3.440  0.00  0.00    +0.159 HD
ATOM      7  H   UNL     1     -14.154  -9.927   4.717  0.00  0.00    +0.159 HD
ATOM      8  H   UNL     1     -16.585  -8.379   1.808  0.00  0.00    +0.159 HD
ATOM      9  H   UNL     1     -14.890  -8.088   1.796  0.00  0.00    +0.159 HD
ENDROOT
BRANCH   1  10
ATOM     10  C   UNL     1     -17.976  -9.705   3.512  0.00  0.00    +0.151 C 
BRANCH  10  11
ATOM     11  C   UNL     1     -18.366 -10.935   2.740  0.00  0.00    -0.028 A 
ATOM     12  C   UNL     1     -18.093 -12.212   3.250  0.00  0.00    +0.005 A 
ATOM     13  C   UNL     1     -19.015 -10.829   1.500  0.00  0.00    +0.005 A 
ATOM     14  C   UNL     1     -18.482 -13.355   2.547  0.00  0.00    +0.000 A 
ATOM     15  C   UNL     1     -19.402 -11.973   0.801  0.00  0.00    +0.000 A 
ATOM     16  C   UNL     1     -19.137 -13.235   1.326  0.00  0.00    +0.000 A 
ENDBRANCH  10  11
ENDBRANCH   1  10
TORSDOF 2
ENDMDL
MODEL 9
REMARK VINA RESULT:    -4.259     20.783     21.397
REMARK INTER + INTRA:          -4.877
REMARK INTER:                  -4.776
REMARK INTRA:                  -0.101
REMARK UNBOUND:                -0.120
REMARK  Name = 1550473
REMARK  2 active torsions:
REMARK  status: ('A' for Active; 'I' for Inactive)
REMARK    1  A    between atoms: N_1  and  C_4
REMARK    2  A    between atoms: C_4  and  C_5
REMARK                            x       y       z     vdW  Elec       q    Type
REMARK                         _______ _______ _______ _____ _____    ______ ____
ROOT
ATOM      1  N   UNL     1       4.409  -3.025 -21.411  0.00  0.00    -0.354 N 
ATOM      2  N   UNL     1       2.583  -2.345 -22.663  0.00  0.00    -0.372 N 
ATOM      3  N   UNL     1       4.550  -1.178 -22.848  0.00  0.00    -0.372 N 
ATOM      4  C   UNL     1       3.861  -2.185 -22.300  0.00  0.00    +0.166 C 
ATOM      5  H   UNL     1       3.825  -3.749 -21.010  0.00  0.00    +0.163 HD
ATOM      6  H   UNL     1       2.143  -1.729 -23.333  0.00  0.00    +0.159 HD
ATOM      7  H   UNL     1       2.014  -3.098 -22.294  0.00  0.00    +0.159 HD
ATOM      8  H   UNL     1       5.517  -1.000 -22.611  0.00  0.00    +0.159 HD
ATOM      9  H   UNL     1       4.124  -0.544 -23.512  0.00  0.00    +0.159 HD
ENDROOT
BRANCH   1  10
ATOM     10  C   UNL     1       5.808  -2.970 -20.990  0.00  0.00    +0.151 C 
BRANCH  10  11
ATOM     11  C   UNL     1       6.205  -4.309 -20.431  0.00  0.00    -0.028 A 
ATOM     12  C   UNL     1       6.429  -5.398 -21.285  0.00  0.00    +0.005 A 
ATOM     13  C   UNL     1       6.365  -4.492 -19.049  0.00  0.00    +0.005 A 
ATOM     14  C   UNL     1       6.827  -6.634 -20.769  0.00  0.00    +0.000 A 
ATOM     15  C   UNL     1       6.762  -5.728 -18.538  0.00  0.00    +0.000 A 
ATOM     16  C   UNL     1       6.995  -6.798 -19.399  0.00  0.00    +0.000 A 
ENDBRANCH  10  11
ENDBRANCH   1  10
TORSDOF 2
ENDMDL
