MODEL 1
REMARK VINA RESULT:    -4.661      0.000      0.000
REMARK INTER + INTRA:          -5.343
REMARK INTER:                  -5.206
REMARK INTRA:                  -0.137
REMARK UNBOUND:                -0.137
REMARK  Name = 1550473
REMARK  2 active torsions:
REMARK  status: ('A' for Active; 'I' for Inactive)
REMARK    1  A    between atoms: N_1  and  C_4
REMARK    2  A    between atoms: C_4  and  C_5
REMARK                            x       y       z     vdW  Elec       q    Type
REMARK                         _______ _______ _______ _____ _____    ______ ____
ROOT
ATOM      1  N   UNL     1       8.986  -7.117  -6.362  0.00  0.00    -0.354 N 
ATOM      2  N   UNL     1       8.881  -6.772  -4.074  0.00  0.00    -0.372 N 
ATOM      3  N   UNL     1      10.937  -6.969  -5.073  0.00  0.00    -0.372 N 
ATOM      4  C   UNL     1       9.605  -6.955  -5.185  0.00  0.00    +0.166 C 
ATOM      5  H   UNL     1       7.972  -7.127  -6.375  0.00  0.00    +0.163 HD
ATOM      6  H   UNL     1       9.320  -6.644  -3.172  0.00  0.00    +0.159 HD
ATOM      7  H   UNL     1       7.869  -6.737  -4.097  0.00  0.00    +0.159 HD
ATOM      8  H   UNL     1      11.540  -7.108  -5.873  0.00  0.00    +0.159 HD
ATOM      9  H   UNL     1      11.395  -6.854  -4.177  0.00  0.00    +0.159 HD
ENDROOT
BRANCH   1  10
ATOM     10  C   UNL     1       9.682  -7.269  -7.638  0.00  0.00    +0.151 C 
BRANCH  10  11
ATOM     11  C   UNL     1       9.201  -6.209  -8.590  0.00  0.00    -0.028 A 
ATOM     12  C   UNL     1      10.090  -5.601  -9.488  0.00  0.00    +0.005 A 
ATOM     13  C   UNL     1       7.854  -5.813  -8.603  0.00  0.00    +0.005 A 
ATOM     14  C   UNL     1       9.637  -4.638 -10.393  0.00  0.00    +0.000 A 
ATOM     15  C   UNL     1       7.406  -4.850  -9.508  0.00  0.00    +0.000 A 
ATOM     16  C   UNL     1       8.297  -4.265 -10.404  0.00  0.00    +0.000 A 
ENDBRANCH  10  11
ENDBRANCH   1  10
TORSDOF 2
ENDMDL
MODEL 2
REMARK VINA RESULT:    -4.517     20.927     22.382
REMARK INTER + INTRA:          -5.182
REMARK INTER:                  -5.037
REMARK INTRA:                  -0.144
REMARK UNBOUND:                -0.137
REMARK  Name = 1550473
REMARK  2 active torsions:
REMARK  status: ('A' for Active; 'I' for Inactive)
REMARK    1  A    between atoms: N_1  and  C_4
REMARK    2  A    between atoms: C_4  and  C_5
REMARK                            x       y       z     vdW  Elec       q    Type
REMARK                         _______ _______ _______ _____ _____    ______ ____
ROOT
ATOM      1  N   UNL     1      -5.943  11.103  -8.427  0.00  0.00    -0.354 N 
ATOM      2  N   UNL     1      -5.268  11.986  -6.395  0.00  0.00    -0.372 N 
ATOM      3  N   UNL     1      -7.508  11.927  -6.890  0.00  0.00    -0.372 N 
ATOM      4  C   UNL     1      -6.247  11.667  -7.251  0.00  0.00    +0.166 C 
ATOM      5  H   UNL     1      -4.966  10.959  -8.654  0.00  0.00    +0.163 HD
ATOM      6  H   UNL     1      -5.467  12.409  -5.499  0.00  0.00    +0.159 HD
ATOM      7  H   UNL     1      -4.295  11.799  -6.605  0.00  0.00    +0.159 HD
ATOM      8  H   UNL     1      -8.292  11.716  -7.493  0.00  0.00    +0.159 HD
ATOM      9  H   UNL     1      -7.727  12.361  -6.002  0.00  0.00    +0.159 HD
ENDROOT
BRANCH   1  10
ATOM     10  C   UNL     1      -6.938  10.669  -9.407  0.00  0.00    +0.151 C 
BRANCH  10  11
ATOM     11  C   UNL     1      -6.811   9.184  -9.610  0.00  0.00    -0.028 A 
ATOM     12  C   UNL     1      -7.950   8.397  -9.837  0.00  0.00    +0.005 A 
ATOM     13  C   UNL     1      -5.555   8.559  -9.581  0.00  0.00    +0.005 A 
ATOM     14  C   UNL     1      -7.830   7.022 -10.055  0.00  0.00    +0.000 A 
ATOM     15  C   UNL     1      -5.440   7.186  -9.799  0.00  0.00    +0.000 A 
ATOM     16  C   UNL     1      -6.577   6.419 -10.038  0.00  0.00    +0.000 A 
ENDBRANCH  10  11
ENDBRANCH   1  10
TORSDOF 2
ENDMDL
MODEL 3
REMARK VINA RESULT:    -4.356     17.369     18.126
REMARK INTER + INTRA:          -5.002
REMARK INTER:                  -4.901
REMARK INTRA:                  -0.101
REMARK UNBOUND:                -0.137
REMARK  Name = 1550473
REMARK  2 active torsions:
REMARK  status: ('A' for Active; 'I' for Inactive)
REMARK    1  A    between atoms: N_1  and  C_4
REMARK    2  A    between atoms: C_4  and  C_5
REMARK                            x       y       z     vdW  Elec       q    Type
REMARK                         _______ _______ _______ _____ _____    ______ ____
ROOT
ATOM      1  N   UNL     1      12.533   9.797  -0.332  0.00  0.00    -0.354 N 
ATOM      2  N   UNL     1      10.280  10.283  -0.558  0.00  0.00    -0.372 N 
ATOM      3  N   UNL     1      11.592  11.670   0.715  0.00  0.00    -0.372 N 
ATOM      4  C   UNL     1      11.484  10.583  -0.055  0.00  0.00    +0.166 C 
ATOM      5  H   UNL     1      12.380   8.970  -0.897  0.00  0.00    +0.163 HD
ATOM      6  H   UNL     1       9.471  10.859  -0.370  0.00  0.00    +0.159 HD
ATOM      7  H   UNL     1      10.139   9.482  -1.161  0.00  0.00    +0.159 HD
ATOM      8  H   UNL     1      12.471  11.948   1.130  0.00  0.00    +0.159 HD
ATOM      9  H   UNL     1      10.791  12.253   0.925  0.00  0.00    +0.159 HD
ENDROOT
BRANCH   1  10
ATOM     10  C   UNL     1      13.897  10.064   0.123  0.00  0.00    +0.151 C 
BRANCH  10  11
ATOM     11  C   UNL     1      14.593   8.757   0.384  0.00  0.00    -0.028 A 
ATOM     12  C   UNL     1      15.050   7.968  -0.681  0.00  0.00    +0.005 A 
ATOM     13  C   UNL     1      14.802   8.304   1.696  0.00  0.00    +0.005 A 
ATOM     14  C   UNL     1      15.723   6.768  -0.438  0.00  0.00    +0.000 A 
ATOM     15  C   UNL     1      15.473   7.105   1.935  0.00  0.00    +0.000 A 
ATOM     16  C   UNL     1      15.936   6.339   0.868  0.00  0.00    +0.000 A 
ENDBRANCH  10  11
ENDBRANCH   1  10
TORSDOF 2
ENDMDL
MODEL 4
REMARK VINA RESULT:    -4.217     17.125     18.213
REMARK INTER + INTRA:          -4.847
REMARK INTER:                  -4.753
REMARK INTRA:                  -0.095
REMARK UNBOUND:                -0.137
REMARK  Name = 1550473
REMARK  2 active torsions:
REMARK  status: ('A' for Active; 'I' for Inactive)
REMARK    1  A    between atoms: N_1  and  C_4
REMARK    2  A    between atoms: C_4  and  C_5
REMARK                            x       y       z     vdW  Elec       q    Type
REMARK                         _______ _______ _______ _____ _____    ______ ____
ROOT
ATOM      1  N   UNL     1       1.254   8.222  -6.108  0.00  0.00    -0.354 N 
ATOM      2  N   UNL     1       1.151   6.381  -7.509  0.00  0.00    -0.372 N 
ATOM      3  N   UNL     1       2.622   6.354  -5.748  0.00  0.00    -0.372 N 
ATOM      4  C   UNL     1       1.678   6.997  -6.444  0.00  0.00    +0.166 C 
ATOM      5  H   UNL     1       0.558   8.668  -6.695  0.00  0.00    +0.163 HD
ATOM      6  H   UNL     1       1.449   5.455  -7.785  0.00  0.00    +0.159 HD
ATOM      7  H   UNL     1       0.423   6.810  -8.066  0.00  0.00    +0.159 HD
ATOM      8  H   UNL     1       3.064   6.767  -4.937  0.00  0.00    +0.159 HD
ATOM      9  H   UNL     1       2.942   5.431  -6.015  0.00  0.00    +0.159 HD
ENDROOT
BRANCH   1  10
ATOM     10  C   UNL     1       1.724   8.958  -4.936  0.00  0.00    +0.151 C 
BRANCH  10  11
ATOM     11  C   UNL     1       0.919  10.220  -4.792  0.00  0.00    -0.028 A 
ATOM     12  C   UNL     1      -0.405  10.171  -4.333  0.00  0.00    +0.005 A 
ATOM     13  C   UNL     1       1.477  11.468  -5.108  0.00  0.00    +0.005 A 
ATOM     14  C   UNL     1      -1.143  11.346  -4.171  0.00  0.00    +0.000 A 
ATOM     15  C   UNL     1       0.736  12.639  -4.945  0.00  0.00    +0.000 A 
ATOM     16  C   UNL     1      -0.573  12.578  -4.474  0.00  0.00    +0.000 A 
ENDBRANCH  10  11
ENDBRANCH   1  10
TORSDOF 2
ENDMDL
MODEL 5
REMARK VINA RESULT:    -4.143     13.032     14.698
REMARK INTER + INTRA:          -4.765
REMARK INTER:                  -4.604
REMARK INTRA:                  -0.160
REMARK UNBOUND:                -0.137
REMARK  Name = 1550473
REMARK  2 active torsions:
REMARK  status: ('A' for Active; 'I' for Inactive)
REMARK    1  A    between atoms: N_1  and  C_4
REMARK    2  A    between atoms: C_4  and  C_5
REMARK                            x       y       z     vdW  Elec       q    Type
REMARK                         _______ _______ _______ _____ _____    ______ ____
ROOT
ATOM      1  N   UNL     1      20.187 -12.387   0.782  0.00  0.00    -0.354 N 
ATOM      2  N   UNL     1      20.561 -14.670   0.677  0.00  0.00    -0.372 N 
ATOM      3  N   UNL     1      20.745 -13.608   2.703  0.00  0.00    -0.372 N 
ATOM      4  C   UNL     1      20.496 -13.539   1.391  0.00  0.00    +0.166 C 
ATOM      5  H   UNL     1      20.038 -12.396  -0.220  0.00  0.00    +0.163 HD
ATOM      6  H   UNL     1      20.788 -15.555   1.109  0.00  0.00    +0.159 HD
ATOM      7  H   UNL     1      20.367 -14.684  -0.317  0.00  0.00    +0.159 HD
ATOM      8  H   UNL     1      20.718 -12.790   3.296  0.00  0.00    +0.159 HD
ATOM      9  H   UNL     1      20.985 -14.483   3.151  0.00  0.00    +0.159 HD
ENDROOT
BRANCH   1  10
ATOM     10  C   UNL     1      20.037 -11.110   1.478  0.00  0.00    +0.151 C 
BRANCH  10  11
ATOM     11  C   UNL     1      18.580 -10.741   1.521  0.00  0.00    -0.028 A 
ATOM     12  C   UNL     1      17.795 -10.803   0.360  0.00  0.00    +0.005 A 
ATOM     13  C   UNL     1      17.976 -10.334   2.720  0.00  0.00    +0.005 A 
ATOM     14  C   UNL     1      16.435 -10.490   0.405  0.00  0.00    +0.000 A 
ATOM     15  C   UNL     1      16.617 -10.021   2.761  0.00  0.00    +0.000 A 
ATOM     16  C   UNL     1      15.847 -10.102   1.604  0.00  0.00    +0.000 A 
ENDBRANCH  10  11
ENDBRANCH   1  10
TORSDOF 2
ENDMDL
MODEL 6
REMARK VINA RESULT:    -4.133     24.999     26.661
REMARK INTER + INTRA:          -4.753
REMARK INTER:                  -4.574
REMARK INTRA:                  -0.179
REMARK UNBOUND:                -0.137
REMARK  Name = 1550473
REMARK  2 active torsions:
REMARK  status: ('A' for Active; 'I' for Inactive)
REMARK    1  A    between atoms: N_1  and  C_4
REMARK    2  A    between atoms: C_4  and  C_5
REMARK                            x       y       z     vdW  Elec       q    Type
REMARK                         _______ _______ _______ _____ _____    ______ ____
ROOT
ATOM      1  N   UNL     1      10.462  -3.793  19.125  0.00  0.00    -0.354 N 
ATOM      2  N   UNL     1       9.507  -1.838  19.918  0.00  0.00    -0.372 N 
ATOM      3  N   UNL     1      11.141  -2.859  21.165  0.00  0.00    -0.372 N 
ATOM      4  C   UNL     1      10.378  -2.844  20.067  0.00  0.00    +0.166 C 
ATOM      5  H   UNL     1       9.835  -3.741  18.331  0.00  0.00    +0.163 HD
ATOM      6  H   UNL     1       9.424  -1.105  20.610  0.00  0.00    +0.159 HD
ATOM      7  H   UNL     1       8.914  -1.763  19.101  0.00  0.00    +0.159 HD
ATOM      8  H   UNL     1      11.814  -3.594  21.339  0.00  0.00    +0.159 HD
ATOM      9  H   UNL     1      11.064  -2.141  21.874  0.00  0.00    +0.159 HD
ENDROOT
BRANCH   1  10
ATOM     10  C   UNL     1      11.415  -4.902  19.165  0.00  0.00    +0.151 C 
BRANCH  10  11
ATOM     11  C   UNL     1      12.530  -4.626  18.194  0.00  0.00    -0.028 A 
ATOM     12  C   UNL     1      12.396  -4.967  16.840  0.00  0.00    +0.005 A 
ATOM     13  C   UNL     1      13.721  -4.018  18.620  0.00  0.00    +0.005 A 
ATOM     14  C   UNL     1      13.419  -4.684  15.932  0.00  0.00    +0.000 A 
ATOM     15  C   UNL     1      14.740  -3.738  17.711  0.00  0.00    +0.000 A 
ATOM     16  C   UNL     1      14.588  -4.069  16.367  0.00  0.00    +0.000 A 
ENDBRANCH  10  11
ENDBRANCH   1  10
TORSDOF 2
ENDMDL
MODEL 7
REMARK VINA RESULT:    -4.070     13.006     14.591
REMARK INTER + INTRA:          -4.683
REMARK INTER:                  -4.567
REMARK INTRA:                  -0.117
REMARK UNBOUND:                -0.137
REMARK  Name = 1550473
REMARK  2 active torsions:
REMARK  status: ('A' for Active; 'I' for Inactive)
REMARK    1  A    between atoms: N_1  and  C_4
REMARK    2  A    between atoms: C_4  and  C_5
REMARK                            x       y       z     vdW  Elec       q    Type
REMARK                         _______ _______ _______ _____ _____    ______ ____
ROOT
ATOM      1  N   UNL     1      20.698 -10.857   0.510  0.00  0.00    -0.354 N 
ATOM      2  N   UNL     1      22.279 -12.550   0.516  0.00  0.00    -0.372 N 
ATOM      3  N   UNL     1      22.590 -10.738   1.888  0.00  0.00    -0.372 N 
ATOM      4  C   UNL     1      21.846 -11.369   0.973  0.00  0.00    +0.166 C 
ATOM      5  H   UNL     1      20.197 -11.371  -0.206  0.00  0.00    +0.163 HD
ATOM      6  H   UNL     1      23.139 -12.963   0.850  0.00  0.00    +0.159 HD
ATOM      7  H   UNL     1      21.752 -13.083  -0.165  0.00  0.00    +0.159 HD
ATOM      8  H   UNL     1      22.322  -9.840   2.269  0.00  0.00    +0.159 HD
ATOM      9  H   UNL     1      23.460 -11.129   2.226  0.00  0.00    +0.159 HD
ENDROOT
BRANCH   1  10
ATOM     10  C   UNL     1      20.113  -9.604   0.981  0.00  0.00    +0.151 C 
BRANCH  10  11
ATOM     11  C   UNL     1      18.644  -9.810   1.230  0.00  0.00    -0.028 A 
ATOM     12  C   UNL     1      18.074  -9.460   2.463  0.00  0.00    +0.005 A 
ATOM     13  C   UNL     1      17.815 -10.352   0.235  0.00  0.00    +0.005 A 
ATOM     14  C   UNL     1      16.705  -9.624   2.684  0.00  0.00    +0.000 A 
ATOM     15  C   UNL     1      16.449 -10.515   0.460  0.00  0.00    +0.000 A 
ATOM     16  C   UNL     1      15.893 -10.148   1.684  0.00  0.00    +0.000 A 
ENDBRANCH  10  11
ENDBRANCH   1  10
TORSDOF 2
ENDMDL
MODEL 8
REMARK VINA RESULT:    -4.059     13.388     14.167
REMARK INTER + INTRA:          -4.671
REMARK INTER:                  -4.563
REMARK INTRA:                  -0.107
REMARK UNBOUND:                -0.137
REMARK  Name = 1550473
REMARK  2 active torsions:
REMARK  status: ('A' for Active; 'I' for Inactive)
REMARK    1  A    between atoms: N_1  and  C_4
REMARK    2  A    between atoms: C_4  and  C_5
REMARK                            x       y       z     vdW  Elec       q    Type
REMARK                         _______ _______ _______ _____ _____    ______ ____
ROOT
ATOM      1  N   UNL     1      19.047   4.420  -5.557  0.00  0.00    -0.354 N 
ATOM      2  N   UNL     1      20.122   5.647  -7.201  0.00  0.00    -0.372 N 
ATOM      3  N   UNL     1      21.109   3.726  -6.428  0.00  0.00    -0.372 N 
ATOM      4  C   UNL     1      20.087   4.588  -6.384  0.00  0.00    +0.166 C 
ATOM      5  H   UNL     1      18.319   5.126  -5.550  0.00  0.00    +0.163 HD
ATOM      6  H   UNL     1      20.892   5.798  -7.839  0.00  0.00    +0.159 HD
ATOM      7  H   UNL     1      19.371   6.326  -7.225  0.00  0.00    +0.159 HD
ATOM      8  H   UNL     1      21.146   2.909  -5.832  0.00  0.00    +0.159 HD
ATOM      9  H   UNL     1      21.894   3.866  -7.051  0.00  0.00    +0.159 HD
ENDROOT
BRANCH   1  10
ATOM     10  C   UNL     1      18.887   3.273  -4.665  0.00  0.00    +0.151 C 
BRANCH  10  11
ATOM     11  C   UNL     1      17.512   3.311  -4.057  0.00  0.00    -0.028 A 
ATOM     12  C   UNL     1      16.995   4.508  -3.542  0.00  0.00    +0.005 A 
ATOM     13  C   UNL     1      16.720   2.154  -3.999  0.00  0.00    +0.005 A 
ATOM     14  C   UNL     1      15.706   4.550  -3.004  0.00  0.00    +0.000 A 
ATOM     15  C   UNL     1      15.434   2.200  -3.461  0.00  0.00    +0.000 A 
ATOM     16  C   UNL     1      14.927   3.399  -2.965  0.00  0.00    +0.000 A 
ENDBRANCH  10  11
ENDBRANCH   1  10
TORSDOF 2
ENDMDL
MODEL 9
REMARK VINA RESULT:    -4.055      9.713     10.888
REMARK INTER + INTRA:          -4.666
REMARK INTER:                  -4.529
REMARK INTRA:                  -0.137
REMARK UNBOUND:                -0.137
REMARK  Name = 1550473
REMARK  2 active torsions:
REMARK  status: ('A' for Active; 'I' for Inactive)
REMARK    1  A    between atoms: N_1  and  C_4
REMARK    2  A    between atoms: C_4  and  C_5
REMARK                            x       y       z     vdW  Elec       q    Type
REMARK                         _______ _______ _______ _____ _____    ______ ____
ROOT
ATOM      1  N   UNL     1      20.281  -8.813  -9.897  0.00  0.00    -0.354 N 
ATOM      2  N   UNL     1      20.041 -10.703  -8.580  0.00  0.00    -0.372 N 
ATOM      3  N   UNL     1      21.149  -8.887  -7.721  0.00  0.00    -0.372 N 
ATOM      4  C   UNL     1      20.494  -9.454  -8.740  0.00  0.00    +0.166 C 
ATOM      5  H   UNL     1      19.804  -9.309 -10.641  0.00  0.00    +0.163 HD
ATOM      6  H   UNL     1      20.183 -11.211  -7.717  0.00  0.00    +0.159 HD
ATOM      7  H   UNL     1      19.524 -11.180  -9.309  0.00  0.00    +0.159 HD
ATOM      8  H   UNL     1      21.521  -7.948  -7.780  0.00  0.00    +0.159 HD
ATOM      9  H   UNL     1      21.312  -9.383  -6.854  0.00  0.00    +0.159 HD
ENDROOT
BRANCH   1  10
ATOM     10  C   UNL     1      20.686  -7.432 -10.153  0.00  0.00    +0.151 C 
BRANCH  10  11
ATOM     11  C   UNL     1      19.560  -6.709 -10.839  0.00  0.00    -0.028 A 
ATOM     12  C   UNL     1      18.226  -7.006 -10.523  0.00  0.00    +0.005 A 
ATOM     13  C   UNL     1      19.820  -5.722 -11.802  0.00  0.00    +0.005 A 
ATOM     14  C   UNL     1      17.180  -6.314 -11.139  0.00  0.00    +0.000 A 
ATOM     15  C   UNL     1      18.773  -5.034 -12.415  0.00  0.00    +0.000 A 
ATOM     16  C   UNL     1      17.453  -5.329 -12.081  0.00  0.00    +0.000 A 
ENDBRANCH  10  11
ENDBRANCH   1  10
TORSDOF 2
ENDMDL
