MODEL 1
REMARK VINA RESULT:    -5.094      0.000      0.000
REMARK INTER + INTRA:          -5.847
REMARK INTER:                  -5.690
REMARK INTRA:                  -0.157
REMARK UNBOUND:                -0.157
REMARK  Name = 1550473
REMARK  2 active torsions:
REMARK  status: ('A' for Active; 'I' for Inactive)
REMARK    1  A    between atoms: N_1  and  C_4
REMARK    2  A    between atoms: C_4  and  C_5
REMARK                            x       y       z     vdW  Elec       q    Type
REMARK                         _______ _______ _______ _____ _____    ______ ____
ROOT
ATOM      1  N   UNL     1      -3.671   1.889  -3.110  0.00  0.00    -0.354 N 
ATOM      2  N   UNL     1      -2.696   2.283  -1.047  0.00  0.00    -0.372 N 
ATOM      3  N   UNL     1      -1.349   2.123  -2.898  0.00  0.00    -0.372 N 
ATOM      4  C   UNL     1      -2.576   2.096  -2.367  0.00  0.00    +0.166 C 
ATOM      5  H   UNL     1      -4.570   1.850  -2.643  0.00  0.00    +0.163 HD
ATOM      6  H   UNL     1      -1.888   2.445  -0.461  0.00  0.00    +0.159 HD
ATOM      7  H   UNL     1      -3.599   2.290  -0.589  0.00  0.00    +0.159 HD
ATOM      8  H   UNL     1      -1.191   1.982  -3.886  0.00  0.00    +0.159 HD
ATOM      9  H   UNL     1      -0.527   2.271  -2.326  0.00  0.00    +0.159 HD
ENDROOT
BRANCH   1  10
ATOM     10  C   UNL     1      -3.655   1.727  -4.563  0.00  0.00    +0.151 C 
BRANCH  10  11
ATOM     11  C   UNL     1      -3.537   0.265  -4.893  0.00  0.00    -0.028 A 
ATOM     12  C   UNL     1      -2.431  -0.216  -5.608  0.00  0.00    +0.005 A 
ATOM     13  C   UNL     1      -4.524  -0.646  -4.487  0.00  0.00    +0.005 A 
ATOM     14  C   UNL     1      -2.305  -1.579  -5.889  0.00  0.00    +0.000 A 
ATOM     15  C   UNL     1      -4.396  -2.006  -4.770  0.00  0.00    +0.000 A 
ATOM     16  C   UNL     1      -3.285  -2.472  -5.469  0.00  0.00    +0.000 A 
ENDBRANCH  10  11
ENDBRANCH   1  10
TORSDOF 2
ENDMDL
MODEL 2
REMARK VINA RESULT:    -5.060      9.679     10.364
REMARK INTER + INTRA:          -5.809
REMARK INTER:                  -5.642
REMARK INTRA:                  -0.167
REMARK UNBOUND:                -0.157
REMARK  Name = 1550473
REMARK  2 active torsions:
REMARK  status: ('A' for Active; 'I' for Inactive)
REMARK    1  A    between atoms: N_1  and  C_4
REMARK    2  A    between atoms: C_4  and  C_5
REMARK                            x       y       z     vdW  Elec       q    Type
REMARK                         _______ _______ _______ _____ _____    ______ ____
ROOT
ATOM      1  N   UNL     1       4.361   8.196  -1.810  0.00  0.00    -0.354 N 
ATOM      2  N   UNL     1       5.425  10.183  -1.278  0.00  0.00    -0.372 N 
ATOM      3  N   UNL     1       3.259  10.252  -2.032  0.00  0.00    -0.372 N 
ATOM      4  C   UNL     1       4.339   9.532  -1.711  0.00  0.00    +0.166 C 
ATOM      5  H   UNL     1       5.221   7.710  -1.580  0.00  0.00    +0.163 HD
ATOM      6  H   UNL     1       5.437  11.190  -1.190  0.00  0.00    +0.159 HD
ATOM      7  H   UNL     1       6.268   9.692  -1.005  0.00  0.00    +0.159 HD
ATOM      8  H   UNL     1       2.410   9.821  -2.371  0.00  0.00    +0.159 HD
ATOM      9  H   UNL     1       3.256  11.262  -1.962  0.00  0.00    +0.159 HD
ENDROOT
BRANCH   1  10
ATOM     10  C   UNL     1       3.215   7.387  -2.220  0.00  0.00    +0.151 C 
BRANCH  10  11
ATOM     11  C   UNL     1       3.290   7.143  -3.702  0.00  0.00    -0.028 A 
ATOM     12  C   UNL     1       4.379   6.454  -4.255  0.00  0.00    +0.005 A 
ATOM     13  C   UNL     1       2.272   7.593  -4.557  0.00  0.00    +0.005 A 
ATOM     14  C   UNL     1       4.435   6.201  -5.628  0.00  0.00    +0.000 A 
ATOM     15  C   UNL     1       2.332   7.338  -5.927  0.00  0.00    +0.000 A 
ATOM     16  C   UNL     1       3.412   6.640  -6.462  0.00  0.00    +0.000 A 
ENDBRANCH  10  11
ENDBRANCH   1  10
TORSDOF 2
ENDMDL
MODEL 3
REMARK VINA RESULT:    -4.907      1.577      2.769
REMARK INTER + INTRA:          -5.638
REMARK INTER:                  -5.512
REMARK INTRA:                  -0.126
REMARK UNBOUND:                -0.157
REMARK  Name = 1550473
REMARK  2 active torsions:
REMARK  status: ('A' for Active; 'I' for Inactive)
REMARK    1  A    between atoms: N_1  and  C_4
REMARK    2  A    between atoms: C_4  and  C_5
REMARK                            x       y       z     vdW  Elec       q    Type
REMARK                         _______ _______ _______ _____ _____    ______ ____
ROOT
ATOM      1  N   UNL     1      -3.452   1.032  -5.453  0.00  0.00    -0.354 N 
ATOM      2  N   UNL     1      -4.679   2.977  -5.178  0.00  0.00    -0.372 N 
ATOM      3  N   UNL     1      -3.828   1.931  -3.321  0.00  0.00    -0.372 N 
ATOM      4  C   UNL     1      -3.978   1.966  -4.650  0.00  0.00    +0.166 C 
ATOM      5  H   UNL     1      -3.627   1.099  -6.449  0.00  0.00    +0.163 HD
ATOM      6  H   UNL     1      -5.085   3.699  -4.597  0.00  0.00    +0.159 HD
ATOM      7  H   UNL     1      -4.813   3.067  -6.177  0.00  0.00    +0.159 HD
ATOM      8  H   UNL     1      -3.315   1.191  -2.860  0.00  0.00    +0.159 HD
ATOM      9  H   UNL     1      -4.237   2.637  -2.723  0.00  0.00    +0.159 HD
ENDROOT
BRANCH   1  10
ATOM     10  C   UNL     1      -2.627  -0.080  -4.983  0.00  0.00    +0.151 C 
BRANCH  10  11
ATOM     11  C   UNL     1      -3.489  -1.303  -4.836  0.00  0.00    -0.028 A 
ATOM     12  C   UNL     1      -4.143  -1.572  -3.624  0.00  0.00    +0.005 A 
ATOM     13  C   UNL     1      -3.661  -2.195  -5.906  0.00  0.00    +0.005 A 
ATOM     14  C   UNL     1      -4.968  -2.692  -3.496  0.00  0.00    +0.000 A 
ATOM     15  C   UNL     1      -4.485  -3.313  -5.774  0.00  0.00    +0.000 A 
ATOM     16  C   UNL     1      -5.140  -3.560  -4.570  0.00  0.00    +0.000 A 
ENDBRANCH  10  11
ENDBRANCH   1  10
TORSDOF 2
ENDMDL
MODEL 4
REMARK VINA RESULT:    -4.876     14.621     15.701
REMARK INTER + INTRA:          -5.604
REMARK INTER:                  -5.461
REMARK INTRA:                  -0.143
REMARK UNBOUND:                -0.157
REMARK  Name = 1550473
REMARK  2 active torsions:
REMARK  status: ('A' for Active; 'I' for Inactive)
REMARK    1  A    between atoms: N_1  and  C_4
REMARK    2  A    between atoms: C_4  and  C_5
REMARK                            x       y       z     vdW  Elec       q    Type
REMARK                         _______ _______ _______ _____ _____    ______ ____
ROOT
ATOM      1  N   UNL     1     -13.767   1.511   5.252  0.00  0.00    -0.354 N 
ATOM      2  N   UNL     1     -12.329   3.324   5.344  0.00  0.00    -0.372 N 
ATOM      3  N   UNL     1     -13.278   2.562   7.289  0.00  0.00    -0.372 N 
ATOM      4  C   UNL     1     -13.135   2.454   5.963  0.00  0.00    +0.166 C 
ATOM      5  H   UNL     1     -13.640   1.501   4.246  0.00  0.00    +0.163 HD
ATOM      6  H   UNL     1     -11.835   4.044   5.855  0.00  0.00    +0.159 HD
ATOM      7  H   UNL     1     -12.168   3.283   4.345  0.00  0.00    +0.159 HD
ATOM      8  H   UNL     1     -13.876   1.939   7.815  0.00  0.00    +0.159 HD
ATOM      9  H   UNL     1     -12.802   3.283   7.816  0.00  0.00    +0.159 HD
ENDROOT
BRANCH   1  10
ATOM     10  C   UNL     1     -14.625   0.482   5.837  0.00  0.00    +0.151 C 
BRANCH  10  11
ATOM     11  C   UNL     1     -15.977   0.538   5.182  0.00  0.00    -0.028 A 
ATOM     12  C   UNL     1     -16.118   1.049   3.883  0.00  0.00    +0.005 A 
ATOM     13  C   UNL     1     -17.120   0.077   5.852  0.00  0.00    +0.005 A 
ATOM     14  C   UNL     1     -17.369   1.073   3.262  0.00  0.00    +0.000 A 
ATOM     15  C   UNL     1     -18.368   0.104   5.229  0.00  0.00    +0.000 A 
ATOM     16  C   UNL     1     -18.492   0.600   3.933  0.00  0.00    +0.000 A 
ENDBRANCH  10  11
ENDBRANCH   1  10
TORSDOF 2
ENDMDL
MODEL 5
REMARK VINA RESULT:    -4.781      6.373      7.734
REMARK INTER + INTRA:          -5.498
REMARK INTER:                  -5.344
REMARK INTRA:                  -0.154
REMARK UNBOUND:                -0.157
REMARK  Name = 1550473
REMARK  2 active torsions:
REMARK  status: ('A' for Active; 'I' for Inactive)
REMARK    1  A    between atoms: N_1  and  C_4
REMARK    2  A    between atoms: C_4  and  C_5
REMARK                            x       y       z     vdW  Elec       q    Type
REMARK                         _______ _______ _______ _____ _____    ______ ____
ROOT
ATOM      1  N   UNL     1      -5.158  -4.837  -2.829  0.00  0.00    -0.354 N 
ATOM      2  N   UNL     1      -5.285  -4.166  -5.041  0.00  0.00    -0.372 N 
ATOM      3  N   UNL     1      -6.014  -6.266  -4.476  0.00  0.00    -0.372 N 
ATOM      4  C   UNL     1      -5.485  -5.097  -4.101  0.00  0.00    +0.166 C 
ATOM      5  H   UNL     1      -4.733  -3.942  -2.614  0.00  0.00    +0.163 HD
ATOM      6  H   UNL     1      -5.525  -4.332  -6.009  0.00  0.00    +0.159 HD
ATOM      7  H   UNL     1      -4.902  -3.255  -4.817  0.00  0.00    +0.159 HD
ATOM      8  H   UNL     1      -6.185  -7.013  -3.816  0.00  0.00    +0.159 HD
ATOM      9  H   UNL     1      -6.251  -6.456  -5.442  0.00  0.00    +0.159 HD
ENDROOT
BRANCH   1  10
ATOM     10  C   UNL     1      -5.386  -5.763  -1.720  0.00  0.00    +0.151 C 
BRANCH  10  11
ATOM     11  C   UNL     1      -4.064  -6.117  -1.097  0.00  0.00    -0.028 A 
ATOM     12  C   UNL     1      -3.334  -7.223  -1.555  0.00  0.00    +0.005 A 
ATOM     13  C   UNL     1      -3.533  -5.347  -0.050  0.00  0.00    +0.005 A 
ATOM     14  C   UNL     1      -2.092  -7.535  -0.997  0.00  0.00    +0.000 A 
ATOM     15  C   UNL     1      -2.293  -5.662   0.506  0.00  0.00    +0.000 A 
ATOM     16  C   UNL     1      -1.572  -6.755   0.031  0.00  0.00    +0.000 A 
ENDBRANCH  10  11
ENDBRANCH   1  10
TORSDOF 2
ENDMDL
MODEL 6
REMARK VINA RESULT:    -4.779      9.643     10.860
REMARK INTER + INTRA:          -5.495
REMARK INTER:                  -5.351
REMARK INTRA:                  -0.144
REMARK UNBOUND:                -0.157
REMARK  Name = 1550473
REMARK  2 active torsions:
REMARK  status: ('A' for Active; 'I' for Inactive)
REMARK    1  A    between atoms: N_1  and  C_4
REMARK    2  A    between atoms: C_4  and  C_5
REMARK                            x       y       z     vdW  Elec       q    Type
REMARK                         _______ _______ _______ _____ _____    ______ ____
ROOT
ATOM      1  N   UNL     1       3.955  10.270  -2.908  0.00  0.00    -0.354 N 
ATOM      2  N   UNL     1       5.967  11.386  -2.645  0.00  0.00    -0.372 N 
ATOM      3  N   UNL     1       5.356   9.818  -1.085  0.00  0.00    -0.372 N 
ATOM      4  C   UNL     1       5.079  10.482  -2.212  0.00  0.00    +0.166 C 
ATOM      5  H   UNL     1       3.789  10.828  -3.738  0.00  0.00    +0.163 HD
ATOM      6  H   UNL     1       6.826  11.565  -2.143  0.00  0.00    +0.159 HD
ATOM      7  H   UNL     1       5.821  11.909  -3.500  0.00  0.00    +0.159 HD
ATOM      8  H   UNL     1       4.725   9.127  -0.702  0.00  0.00    +0.159 HD
ATOM      9  H   UNL     1       6.205   9.992  -0.562  0.00  0.00    +0.159 HD
ENDROOT
BRANCH   1  10
ATOM     10  C   UNL     1       2.949   9.271  -2.552  0.00  0.00    +0.151 C 
BRANCH  10  11
ATOM     11  C   UNL     1       3.098   8.079  -3.457  0.00  0.00    -0.028 A 
ATOM     12  C   UNL     1       4.118   7.141  -3.236  0.00  0.00    +0.005 A 
ATOM     13  C   UNL     1       2.220   7.878  -4.532  0.00  0.00    +0.005 A 
ATOM     14  C   UNL     1       4.239   6.018  -4.058  0.00  0.00    +0.000 A 
ATOM     15  C   UNL     1       2.345   6.756  -5.351  0.00  0.00    +0.000 A 
ATOM     16  C   UNL     1       3.353   5.825  -5.112  0.00  0.00    +0.000 A 
ENDBRANCH  10  11
ENDBRANCH   1  10
TORSDOF 2
ENDMDL
MODEL 7
REMARK VINA RESULT:    -4.583      9.048     10.206
REMARK INTER + INTRA:          -5.276
REMARK INTER:                  -5.157
REMARK INTRA:                  -0.119
REMARK UNBOUND:                -0.157
REMARK  Name = 1550473
REMARK  2 active torsions:
REMARK  status: ('A' for Active; 'I' for Inactive)
REMARK    1  A    between atoms: N_1  and  C_4
REMARK    2  A    between atoms: C_4  and  C_5
REMARK                            x       y       z     vdW  Elec       q    Type
REMARK                         _______ _______ _______ _____ _____    ______ ____
ROOT
ATOM      1  N   UNL     1      -2.965  -8.234  -0.208  0.00  0.00    -0.354 N 
ATOM      2  N   UNL     1      -0.985  -9.343  -0.674  0.00  0.00    -0.372 N 
ATOM      3  N   UNL     1      -1.768  -7.792  -2.174  0.00  0.00    -0.372 N 
ATOM      4  C   UNL     1      -1.919  -8.447  -1.018  0.00  0.00    +0.166 C 
ATOM      5  H   UNL     1      -3.037  -8.784   0.640  0.00  0.00    +0.163 HD
ATOM      6  H   UNL     1      -0.184  -9.523  -1.263  0.00  0.00    +0.159 HD
ATOM      7  H   UNL     1      -1.037  -9.859   0.196  0.00  0.00    +0.159 HD
ATOM      8  H   UNL     1      -2.441  -7.108  -2.494  0.00  0.00    +0.159 HD
ATOM      9  H   UNL     1      -0.979  -7.967  -2.783  0.00  0.00    +0.159 HD
ENDROOT
BRANCH   1  10
ATOM     10  C   UNL     1      -4.008  -7.242  -0.464  0.00  0.00    +0.151 C 
BRANCH  10  11
ATOM     11  C   UNL     1      -5.069  -7.361   0.596  0.00  0.00    -0.028 A 
ATOM     12  C   UNL     1      -5.273  -8.576   1.265  0.00  0.00    +0.005 A 
ATOM     13  C   UNL     1      -5.868  -6.260   0.939  0.00  0.00    +0.005 A 
ATOM     14  C   UNL     1      -6.238  -8.679   2.271  0.00  0.00    +0.000 A 
ATOM     15  C   UNL     1      -6.831  -6.367   1.942  0.00  0.00    +0.000 A 
ATOM     16  C   UNL     1      -7.014  -7.575   2.610  0.00  0.00    +0.000 A 
ENDBRANCH  10  11
ENDBRANCH   1  10
TORSDOF 2
ENDMDL
MODEL 8
REMARK VINA RESULT:    -4.459      8.510      9.617
REMARK INTER + INTRA:          -5.138
REMARK INTER:                  -4.988
REMARK INTRA:                  -0.149
REMARK UNBOUND:                -0.157
REMARK  Name = 1550473
REMARK  2 active torsions:
REMARK  status: ('A' for Active; 'I' for Inactive)
REMARK    1  A    between atoms: N_1  and  C_4
REMARK    2  A    between atoms: C_4  and  C_5
REMARK                            x       y       z     vdW  Elec       q    Type
REMARK                         _______ _______ _______ _____ _____    ______ ____
ROOT
ATOM      1  N   UNL     1      -2.318  -7.427  -1.415  0.00  0.00    -0.354 N 
ATOM      2  N   UNL     1      -2.319  -9.361  -2.689  0.00  0.00    -0.372 N 
ATOM      3  N   UNL     1      -1.084  -9.307  -0.755  0.00  0.00    -0.372 N 
ATOM      4  C   UNL     1      -1.905  -8.686  -1.609  0.00  0.00    +0.166 C 
ATOM      5  H   UNL     1      -2.915  -7.002  -2.115  0.00  0.00    +0.163 HD
ATOM      6  H   UNL     1      -2.027 -10.314  -2.860  0.00  0.00    +0.159 HD
ATOM      7  H   UNL     1      -2.953  -8.950  -3.363  0.00  0.00    +0.159 HD
ATOM      8  H   UNL     1      -0.731  -8.851   0.075  0.00  0.00    +0.159 HD
ATOM      9  H   UNL     1      -0.772 -10.256  -0.915  0.00  0.00    +0.159 HD
ENDROOT
BRANCH   1  10
ATOM     10  C   UNL     1      -1.968  -6.623  -0.245  0.00  0.00    +0.151 C 
BRANCH  10  11
ATOM     11  C   UNL     1      -3.208  -6.378   0.570  0.00  0.00    -0.028 A 
ATOM     12  C   UNL     1      -4.479  -6.549   0.003  0.00  0.00    +0.005 A 
ATOM     13  C   UNL     1      -3.118  -5.980   1.913  0.00  0.00    +0.005 A 
ATOM     14  C   UNL     1      -5.631  -6.351   0.768  0.00  0.00    +0.000 A 
ATOM     15  C   UNL     1      -4.270  -5.782   2.674  0.00  0.00    +0.000 A 
ATOM     16  C   UNL     1      -5.526  -5.970   2.102  0.00  0.00    +0.000 A 
ENDBRANCH  10  11
ENDBRANCH   1  10
TORSDOF 2
ENDMDL
MODEL 9
REMARK VINA RESULT:    -4.449     10.303     11.372
REMARK INTER + INTRA:          -5.126
REMARK INTER:                  -4.994
REMARK INTRA:                  -0.132
REMARK UNBOUND:                -0.157
REMARK  Name = 1550473
REMARK  2 active torsions:
REMARK  status: ('A' for Active; 'I' for Inactive)
REMARK    1  A    between atoms: N_1  and  C_4
REMARK    2  A    between atoms: C_4  and  C_5
REMARK                            x       y       z     vdW  Elec       q    Type
REMARK                         _______ _______ _______ _____ _____    ______ ____
ROOT
ATOM      1  N   UNL     1       1.339  11.897  -2.500  0.00  0.00    -0.354 N 
ATOM      2  N   UNL     1      -0.363  12.907  -1.298  0.00  0.00    -0.372 N 
ATOM      3  N   UNL     1      -0.583  12.701  -3.573  0.00  0.00    -0.372 N 
ATOM      4  C   UNL     1       0.141  12.495  -2.468  0.00  0.00    +0.166 C 
ATOM      5  H   UNL     1       1.852  11.798  -1.631  0.00  0.00    +0.163 HD
ATOM      6  H   UNL     1      -1.266  13.358  -1.242  0.00  0.00    +0.159 HD
ATOM      7  H   UNL     1       0.131  12.766  -0.425  0.00  0.00    +0.159 HD
ATOM      8  H   UNL     1      -0.256  12.419  -4.487  0.00  0.00    +0.159 HD
ATOM      9  H   UNL     1      -1.484  13.161  -3.538  0.00  0.00    +0.159 HD
ENDROOT
BRANCH   1  10
ATOM     10  C   UNL     1       1.954  11.364  -3.715  0.00  0.00    +0.151 C 
BRANCH  10  11
ATOM     11  C   UNL     1       2.351   9.933  -3.477  0.00  0.00    -0.028 A 
ATOM     12  C   UNL     1       2.204   8.975  -4.491  0.00  0.00    +0.005 A 
ATOM     13  C   UNL     1       2.879   9.529  -2.241  0.00  0.00    +0.005 A 
ATOM     14  C   UNL     1       2.600   7.652  -4.280  0.00  0.00    +0.000 A 
ATOM     15  C   UNL     1       3.273   8.207  -2.034  0.00  0.00    +0.000 A 
ATOM     16  C   UNL     1       3.135   7.269  -3.055  0.00  0.00    +0.000 A 
ENDBRANCH  10  11
ENDBRANCH   1  10
TORSDOF 2
ENDMDL
