MODEL 1
REMARK VINA RESULT:    -6.016      0.000      0.000
REMARK INTER + INTRA:          -6.833
REMARK INTER:                  -6.720
REMARK INTRA:                  -0.113
REMARK UNBOUND:                -0.113
REMARK  Name = 1550473
REMARK  2 active torsions:
REMARK  status: ('A' for Active; 'I' for Inactive)
REMARK    1  A    between atoms: N_1  and  C_4
REMARK    2  A    between atoms: C_4  and  C_5
REMARK                            x       y       z     vdW  Elec       q    Type
REMARK                         _______ _______ _______ _____ _____    ______ ____
ROOT
ATOM      1  N   UNL     1       0.845  -3.199  -6.925  0.00  0.00    -0.354 N 
ATOM      2  N   UNL     1       2.538  -3.652  -5.411  0.00  0.00    -0.372 N 
ATOM      3  N   UNL     1       0.399  -4.316  -4.913  0.00  0.00    -0.372 N 
ATOM      4  C   UNL     1       1.247  -3.720  -5.758  0.00  0.00    +0.166 C 
ATOM      5  H   UNL     1       1.532  -2.735  -7.507  0.00  0.00    +0.163 HD
ATOM      6  H   UNL     1       2.872  -4.039  -4.538  0.00  0.00    +0.159 HD
ATOM      7  H   UNL     1       3.231  -3.227  -6.015  0.00  0.00    +0.159 HD
ATOM      8  H   UNL     1      -0.590  -4.394  -5.113  0.00  0.00    +0.159 HD
ATOM      9  H   UNL     1       0.711  -4.699  -4.030  0.00  0.00    +0.159 HD
ENDROOT
BRANCH   1  10
ATOM     10  C   UNL     1      -0.529  -3.269  -7.421  0.00  0.00    +0.151 C 
BRANCH  10  11
ATOM     11  C   UNL     1      -0.715  -2.234  -8.496  0.00  0.00    -0.028 A 
ATOM     12  C   UNL     1      -1.931  -1.546  -8.619  0.00  0.00    +0.005 A 
ATOM     13  C   UNL     1       0.322  -1.933  -9.392  0.00  0.00    +0.005 A 
ATOM     14  C   UNL     1      -2.095  -0.564  -9.598  0.00  0.00    +0.000 A 
ATOM     15  C   UNL     1       0.155  -0.952 -10.369  0.00  0.00    +0.000 A 
ATOM     16  C   UNL     1      -1.053  -0.266 -10.470  0.00  0.00    +0.000 A 
ENDBRANCH  10  11
ENDBRANCH   1  10
TORSDOF 2
ENDMDL
MODEL 2
REMARK VINA RESULT:    -5.861      3.137      5.034
REMARK INTER + INTRA:          -6.660
REMARK INTER:                  -6.484
REMARK INTRA:                  -0.175
REMARK UNBOUND:                -0.113
REMARK  Name = 1550473
REMARK  2 active torsions:
REMARK  status: ('A' for Active; 'I' for Inactive)
REMARK    1  A    between atoms: N_1  and  C_4
REMARK    2  A    between atoms: C_4  and  C_5
REMARK                            x       y       z     vdW  Elec       q    Type
REMARK                         _______ _______ _______ _____ _____    ______ ____
ROOT
ATOM      1  N   UNL     1      -2.055  -4.123  -8.772  0.00  0.00    -0.354 N 
ATOM      2  N   UNL     1      -3.509  -5.859  -9.257  0.00  0.00    -0.372 N 
ATOM      3  N   UNL     1      -4.183  -4.225  -7.795  0.00  0.00    -0.372 N 
ATOM      4  C   UNL     1      -3.241  -4.723  -8.603  0.00  0.00    +0.166 C 
ATOM      5  H   UNL     1      -1.373  -4.567  -9.375  0.00  0.00    +0.163 HD
ATOM      6  H   UNL     1      -4.396  -6.333  -9.152  0.00  0.00    +0.159 HD
ATOM      7  H   UNL     1      -2.842  -6.277  -9.895  0.00  0.00    +0.159 HD
ATOM      8  H   UNL     1      -4.041  -3.373  -7.268  0.00  0.00    +0.159 HD
ATOM      9  H   UNL     1      -5.073  -4.690  -7.667  0.00  0.00    +0.159 HD
ENDROOT
BRANCH   1  10
ATOM     10  C   UNL     1      -1.685  -2.854  -8.148  0.00  0.00    +0.151 C 
BRANCH  10  11
ATOM     11  C   UNL     1      -0.707  -3.120  -7.037  0.00  0.00    -0.028 A 
ATOM     12  C   UNL     1       0.674  -3.061  -7.274  0.00  0.00    +0.005 A 
ATOM     13  C   UNL     1      -1.155  -3.427  -5.743  0.00  0.00    +0.005 A 
ATOM     14  C   UNL     1       1.583  -3.279  -6.236  0.00  0.00    +0.000 A 
ATOM     15  C   UNL     1      -0.244  -3.645  -4.709  0.00  0.00    +0.000 A 
ATOM     16  C   UNL     1       1.124  -3.568  -4.955  0.00  0.00    +0.000 A 
ENDBRANCH  10  11
ENDBRANCH   1  10
TORSDOF 2
ENDMDL
MODEL 3
REMARK VINA RESULT:    -5.854      4.361      5.064
REMARK INTER + INTRA:          -6.651
REMARK INTER:                  -6.550
REMARK INTRA:                  -0.101
REMARK UNBOUND:                -0.113
REMARK  Name = 1550473
REMARK  2 active torsions:
REMARK  status: ('A' for Active; 'I' for Inactive)
REMARK    1  A    between atoms: N_1  and  C_4
REMARK    2  A    between atoms: C_4  and  C_5
REMARK                            x       y       z     vdW  Elec       q    Type
REMARK                         _______ _______ _______ _____ _____    ______ ____
ROOT
ATOM      1  N   UNL     1      -2.172  -4.186  -8.641  0.00  0.00    -0.354 N 
ATOM      2  N   UNL     1       0.006  -3.403  -8.553  0.00  0.00    -0.372 N 
ATOM      3  N   UNL     1      -1.320  -3.203  -6.691  0.00  0.00    -0.372 N 
ATOM      4  C   UNL     1      -1.177  -3.601  -7.960  0.00  0.00    +0.166 C 
ATOM      5  H   UNL     1      -2.009  -4.437  -9.609  0.00  0.00    +0.163 HD
ATOM      6  H   UNL     1       0.776  -2.967  -8.064  0.00  0.00    +0.159 HD
ATOM      7  H   UNL     1       0.180  -3.697  -9.507  0.00  0.00    +0.159 HD
ATOM      8  H   UNL     1      -2.190  -3.318  -6.189  0.00  0.00    +0.159 HD
ATOM      9  H   UNL     1      -0.565  -2.754  -6.188  0.00  0.00    +0.159 HD
ENDROOT
BRANCH   1  10
ATOM     10  C   UNL     1      -3.481  -4.496  -8.070  0.00  0.00    +0.151 C 
BRANCH  10  11
ATOM     11  C   UNL     1      -4.421  -4.883  -9.179  0.00  0.00    -0.028 A 
ATOM     12  C   UNL     1      -5.637  -4.204  -9.351  0.00  0.00    +0.005 A 
ATOM     13  C   UNL     1      -4.099  -5.923 -10.064  0.00  0.00    +0.005 A 
ATOM     14  C   UNL     1      -6.496  -4.543 -10.399  0.00  0.00    +0.000 A 
ATOM     15  C   UNL     1      -4.961  -6.259 -11.108  0.00  0.00    +0.000 A 
ATOM     16  C   UNL     1      -6.158  -5.567 -11.277  0.00  0.00    +0.000 A 
ENDBRANCH  10  11
ENDBRANCH   1  10
TORSDOF 2
ENDMDL
MODEL 4
REMARK VINA RESULT:    -5.470      3.806      4.740
REMARK INTER + INTRA:          -6.223
REMARK INTER:                  -6.110
REMARK INTRA:                  -0.113
REMARK UNBOUND:                -0.113
REMARK  Name = 1550473
REMARK  2 active torsions:
REMARK  status: ('A' for Active; 'I' for Inactive)
REMARK    1  A    between atoms: N_1  and  C_4
REMARK    2  A    between atoms: C_4  and  C_5
REMARK                            x       y       z     vdW  Elec       q    Type
REMARK                         _______ _______ _______ _____ _____    ______ ____
ROOT
ATOM      1  N   UNL     1      -3.198  -5.111  -8.994  0.00  0.00    -0.354 N 
ATOM      2  N   UNL     1      -4.441  -6.307 -10.540  0.00  0.00    -0.372 N 
ATOM      3  N   UNL     1      -5.541  -5.103  -8.925  0.00  0.00    -0.372 N 
ATOM      4  C   UNL     1      -4.387  -5.498  -9.474  0.00  0.00    +0.166 C 
ATOM      5  H   UNL     1      -2.360  -5.470  -9.437  0.00  0.00    +0.163 HD
ATOM      6  H   UNL     1      -5.324  -6.612 -10.927  0.00  0.00    +0.159 HD
ATOM      7  H   UNL     1      -3.603  -6.627 -11.009  0.00  0.00    +0.159 HD
ATOM      8  H   UNL     1      -5.569  -4.497  -8.116  0.00  0.00    +0.159 HD
ATOM      9  H   UNL     1      -6.434  -5.408  -9.291  0.00  0.00    +0.159 HD
ENDROOT
BRANCH   1  10
ATOM     10  C   UNL     1      -3.031  -4.190  -7.871  0.00  0.00    +0.151 C 
BRANCH  10  11
ATOM     11  C   UNL     1      -1.817  -3.336  -8.114  0.00  0.00    -0.028 A 
ATOM     12  C   UNL     1      -1.845  -2.314  -9.074  0.00  0.00    +0.005 A 
ATOM     13  C   UNL     1      -0.637  -3.540  -7.382  0.00  0.00    +0.005 A 
ATOM     14  C   UNL     1      -0.727  -1.502  -9.279  0.00  0.00    +0.000 A 
ATOM     15  C   UNL     1       0.478  -2.727  -7.590  0.00  0.00    +0.000 A 
ATOM     16  C   UNL     1       0.431  -1.707  -8.536  0.00  0.00    +0.000 A 
ENDBRANCH  10  11
ENDBRANCH   1  10
TORSDOF 2
ENDMDL
MODEL 5
REMARK VINA RESULT:    -5.299      6.959      7.997
REMARK INTER + INTRA:          -6.031
REMARK INTER:                  -5.898
REMARK INTRA:                  -0.134
REMARK UNBOUND:                -0.113
REMARK  Name = 1550473
REMARK  2 active torsions:
REMARK  status: ('A' for Active; 'I' for Inactive)
REMARK    1  A    between atoms: N_1  and  C_4
REMARK    2  A    between atoms: C_4  and  C_5
REMARK                            x       y       z     vdW  Elec       q    Type
REMARK                         _______ _______ _______ _____ _____    ______ ____
ROOT
ATOM      1  N   UNL     1      -7.802  -3.802  -8.367  0.00  0.00    -0.354 N 
ATOM      2  N   UNL     1      -9.925  -4.547  -7.816  0.00  0.00    -0.372 N 
ATOM      3  N   UNL     1      -8.110  -5.522  -6.806  0.00  0.00    -0.372 N 
ATOM      4  C   UNL     1      -8.597  -4.620  -7.665  0.00  0.00    +0.166 C 
ATOM      5  H   UNL     1      -8.231  -3.161  -9.024  0.00  0.00    +0.163 HD
ATOM      6  H   UNL     1     -10.550  -5.149  -7.297  0.00  0.00    +0.159 HD
ATOM      7  H   UNL     1     -10.353  -3.874  -8.440  0.00  0.00    +0.159 HD
ATOM      8  H   UNL     1      -7.117  -5.632  -6.650  0.00  0.00    +0.159 HD
ATOM      9  H   UNL     1      -8.719  -6.142  -6.286  0.00  0.00    +0.159 HD
ENDROOT
BRANCH   1  10
ATOM     10  C   UNL     1      -6.347  -3.765  -8.236  0.00  0.00    +0.151 C 
BRANCH  10  11
ATOM     11  C   UNL     1      -5.736  -4.641  -9.295  0.00  0.00    -0.028 A 
ATOM     12  C   UNL     1      -4.524  -5.306  -9.056  0.00  0.00    +0.005 A 
ATOM     13  C   UNL     1      -6.367  -4.815 -10.536  0.00  0.00    +0.005 A 
ATOM     14  C   UNL     1      -3.971  -6.143 -10.028  0.00  0.00    +0.000 A 
ATOM     15  C   UNL     1      -5.812  -5.651 -11.504  0.00  0.00    +0.000 A 
ATOM     16  C   UNL     1      -4.615  -6.317 -11.249  0.00  0.00    +0.000 A 
ENDBRANCH  10  11
ENDBRANCH   1  10
TORSDOF 2
ENDMDL
MODEL 6
REMARK VINA RESULT:    -5.230      4.007      5.727
REMARK INTER + INTRA:          -5.954
REMARK INTER:                  -5.820
REMARK INTRA:                  -0.134
REMARK UNBOUND:                -0.113
REMARK  Name = 1550473
REMARK  2 active torsions:
REMARK  status: ('A' for Active; 'I' for Inactive)
REMARK    1  A    between atoms: N_1  and  C_4
REMARK    2  A    between atoms: C_4  and  C_5
REMARK                            x       y       z     vdW  Elec       q    Type
REMARK                         _______ _______ _______ _____ _____    ______ ____
ROOT
ATOM      1  N   UNL     1       1.500  -0.229 -11.923  0.00  0.00    -0.354 N 
ATOM      2  N   UNL     1       3.165  -0.590 -13.491  0.00  0.00    -0.372 N 
ATOM      3  N   UNL     1       1.248   0.492 -14.138  0.00  0.00    -0.372 N 
ATOM      4  C   UNL     1       1.958  -0.105 -13.175  0.00  0.00    +0.166 C 
ATOM      5  H   UNL     1       2.073  -0.719 -11.246  0.00  0.00    +0.163 HD
ATOM      6  H   UNL     1       3.539  -0.509 -14.427  0.00  0.00    +0.159 HD
ATOM      7  H   UNL     1       3.756  -1.039 -12.802  0.00  0.00    +0.159 HD
ATOM      8  H   UNL     1       0.328   0.874 -13.966  0.00  0.00    +0.159 HD
ATOM      9  H   UNL     1       1.600   0.573 -15.084  0.00  0.00    +0.159 HD
ENDROOT
BRANCH   1  10
ATOM     10  C   UNL     1       0.222   0.312 -11.462  0.00  0.00    +0.151 C 
BRANCH  10  11
ATOM     11  C   UNL     1      -0.391  -0.646 -10.478  0.00  0.00    -0.028 A 
ATOM     12  C   UNL     1       0.342  -1.742 -10.000  0.00  0.00    +0.005 A 
ATOM     13  C   UNL     1      -1.703  -0.460 -10.016  0.00  0.00    +0.005 A 
ATOM     14  C   UNL     1      -0.216  -2.615  -9.063  0.00  0.00    +0.000 A 
ATOM     15  C   UNL     1      -2.257  -1.335  -9.081  0.00  0.00    +0.000 A 
ATOM     16  C   UNL     1      -1.512  -2.411  -8.603  0.00  0.00    +0.000 A 
ENDBRANCH  10  11
ENDBRANCH   1  10
TORSDOF 2
ENDMDL
MODEL 7
REMARK VINA RESULT:    -5.215     16.648     17.402
REMARK INTER + INTRA:          -5.938
REMARK INTER:                  -5.834
REMARK INTRA:                  -0.104
REMARK UNBOUND:                -0.113
REMARK  Name = 1550473
REMARK  2 active torsions:
REMARK  status: ('A' for Active; 'I' for Inactive)
REMARK    1  A    between atoms: N_1  and  C_4
REMARK    2  A    between atoms: C_4  and  C_5
REMARK                            x       y       z     vdW  Elec       q    Type
REMARK                         _______ _______ _______ _____ _____    ______ ____
ROOT
ATOM      1  N   UNL     1      -7.035 -12.451 -21.223  0.00  0.00    -0.354 N 
ATOM      2  N   UNL     1      -8.447 -12.604 -23.052  0.00  0.00    -0.372 N 
ATOM      3  N   UNL     1      -7.135 -10.737 -22.817  0.00  0.00    -0.372 N 
ATOM      4  C   UNL     1      -7.529 -11.927 -22.353  0.00  0.00    +0.166 C 
ATOM      5  H   UNL     1      -7.396 -13.344 -20.908  0.00  0.00    +0.163 HD
ATOM      6  H   UNL     1      -8.835 -12.236 -23.910  0.00  0.00    +0.159 HD
ATOM      7  H   UNL     1      -8.773 -13.517 -22.760  0.00  0.00    +0.159 HD
ATOM      8  H   UNL     1      -6.449 -10.173 -22.333  0.00  0.00    +0.159 HD
ATOM      9  H   UNL     1      -7.521 -10.345 -23.668  0.00  0.00    +0.159 HD
ENDROOT
BRANCH   1  10
ATOM     10  C   UNL     1      -5.992 -11.820 -20.416  0.00  0.00    +0.151 C 
BRANCH  10  11
ATOM     11  C   UNL     1      -6.274 -12.077 -18.961  0.00  0.00    -0.028 A 
ATOM     12  C   UNL     1      -6.085 -13.354 -18.414  0.00  0.00    +0.005 A 
ATOM     13  C   UNL     1      -6.724 -11.045 -18.123  0.00  0.00    +0.005 A 
ATOM     14  C   UNL     1      -6.318 -13.586 -17.057  0.00  0.00    +0.000 A 
ATOM     15  C   UNL     1      -6.957 -11.281 -16.768  0.00  0.00    +0.000 A 
ATOM     16  C   UNL     1      -6.751 -12.551 -16.235  0.00  0.00    +0.000 A 
ENDBRANCH  10  11
ENDBRANCH   1  10
TORSDOF 2
ENDMDL
MODEL 8
REMARK VINA RESULT:    -5.067     11.115     12.951
REMARK INTER + INTRA:          -5.772
REMARK INTER:                  -5.647
REMARK INTRA:                  -0.126
REMARK UNBOUND:                -0.113
REMARK  Name = 1550473
REMARK  2 active torsions:
REMARK  status: ('A' for Active; 'I' for Inactive)
REMARK    1  A    between atoms: N_1  and  C_4
REMARK    2  A    between atoms: C_4  and  C_5
REMARK                            x       y       z     vdW  Elec       q    Type
REMARK                         _______ _______ _______ _____ _____    ______ ____
ROOT
ATOM      1  N   UNL     1      -6.515  -5.978   4.105  0.00  0.00    -0.354 N 
ATOM      2  N   UNL     1      -8.325  -5.645   5.512  0.00  0.00    -0.372 N 
ATOM      3  N   UNL     1      -6.317  -6.286   6.419  0.00  0.00    -0.372 N 
ATOM      4  C   UNL     1      -7.039  -5.973   5.338  0.00  0.00    +0.166 C 
ATOM      5  H   UNL     1      -7.123  -5.761   3.323  0.00  0.00    +0.163 HD
ATOM      6  H   UNL     1      -8.746  -5.629   6.430  0.00  0.00    +0.159 HD
ATOM      7  H   UNL     1      -8.918  -5.383   4.733  0.00  0.00    +0.159 HD
ATOM      8  H   UNL     1      -5.342  -6.548   6.355  0.00  0.00    +0.159 HD
ATOM      9  H   UNL     1      -6.724  -6.287   7.346  0.00  0.00    +0.159 HD
ENDROOT
BRANCH   1  10
ATOM     10  C   UNL     1      -5.112  -6.268   3.813  0.00  0.00    +0.151 C 
BRANCH  10  11
ATOM     11  C   UNL     1      -4.630  -5.332   2.739  0.00  0.00    -0.028 A 
ATOM     12  C   UNL     1      -4.658  -3.944   2.940  0.00  0.00    +0.005 A 
ATOM     13  C   UNL     1      -4.139  -5.827   1.521  0.00  0.00    +0.005 A 
ATOM     14  C   UNL     1      -4.182  -3.076   1.954  0.00  0.00    +0.000 A 
ATOM     15  C   UNL     1      -3.666  -4.956   0.540  0.00  0.00    +0.000 A 
ATOM     16  C   UNL     1      -3.685  -3.581   0.758  0.00  0.00    +0.000 A 
ENDBRANCH  10  11
ENDBRANCH   1  10
TORSDOF 2
ENDMDL
MODEL 9
REMARK VINA RESULT:    -5.064     10.572     12.493
REMARK INTER + INTRA:          -5.769
REMARK INTER:                  -5.645
REMARK INTRA:                  -0.124
REMARK UNBOUND:                -0.113
REMARK  Name = 1550473
REMARK  2 active torsions:
REMARK  status: ('A' for Active; 'I' for Inactive)
REMARK    1  A    between atoms: N_1  and  C_4
REMARK    2  A    between atoms: C_4  and  C_5
REMARK                            x       y       z     vdW  Elec       q    Type
REMARK                         _______ _______ _______ _____ _____    ______ ____
ROOT
ATOM      1  N   UNL     1      -5.810  -5.206   4.137  0.00  0.00    -0.354 N 
ATOM      2  N   UNL     1      -6.896  -6.186   5.933  0.00  0.00    -0.372 N 
ATOM      3  N   UNL     1      -6.535  -3.920   5.957  0.00  0.00    -0.372 N 
ATOM      4  C   UNL     1      -6.406  -5.095   5.331  0.00  0.00    +0.166 C 
ATOM      5  H   UNL     1      -5.718  -6.129   3.729  0.00  0.00    +0.163 HD
ATOM      6  H   UNL     1      -7.354  -6.133   6.833  0.00  0.00    +0.159 HD
ATOM      7  H   UNL     1      -6.843  -7.101   5.502  0.00  0.00    +0.159 HD
ATOM      8  H   UNL     1      -6.181  -3.060   5.559  0.00  0.00    +0.159 HD
ATOM      9  H   UNL     1      -6.979  -3.848   6.864  0.00  0.00    +0.159 HD
ENDROOT
BRANCH   1  10
ATOM     10  C   UNL     1      -5.292  -4.072   3.373  0.00  0.00    +0.151 C 
BRANCH  10  11
ATOM     11  C   UNL     1      -4.487  -4.589   2.212  0.00  0.00    -0.028 A 
ATOM     12  C   UNL     1      -4.181  -5.954   2.110  0.00  0.00    +0.005 A 
ATOM     13  C   UNL     1      -4.033  -3.719   1.209  0.00  0.00    +0.005 A 
ATOM     14  C   UNL     1      -3.459  -6.439   1.016  0.00  0.00    +0.000 A 
ATOM     15  C   UNL     1      -3.312  -4.207   0.119  0.00  0.00    +0.000 A 
ATOM     16  C   UNL     1      -3.027  -5.567   0.022  0.00  0.00    +0.000 A 
ENDBRANCH  10  11
ENDBRANCH   1  10
TORSDOF 2
ENDMDL
