MODEL 1
REMARK VINA RESULT:    -5.823      0.000      0.000
REMARK INTER + INTRA:          -6.637
REMARK INTER:                  -6.504
REMARK INTRA:                  -0.133
REMARK UNBOUND:                -0.133
REMARK  Name = 1550473
REMARK  2 active torsions:
REMARK  status: ('A' for Active; 'I' for Inactive)
REMARK    1  A    between atoms: N_1  and  C_4
REMARK    2  A    between atoms: C_4  and  C_5
REMARK                            x       y       z     vdW  Elec       q    Type
REMARK                         _______ _______ _______ _____ _____    ______ ____
ROOT
ATOM      1  N   UNL     1      -0.072  -5.137  -1.486  0.00  0.00    -0.354 N 
ATOM      2  N   UNL     1       1.557  -4.315  -2.913  0.00  0.00    -0.372 N 
ATOM      3  N   UNL     1       2.173  -5.031  -0.822  0.00  0.00    -0.372 N 
ATOM      4  C   UNL     1       1.211  -4.834  -1.729  0.00  0.00    +0.166 C 
ATOM      5  H   UNL     1      -0.758  -4.935  -2.204  0.00  0.00    +0.163 HD
ATOM      6  H   UNL     1       2.517  -4.079  -3.126  0.00  0.00    +0.159 HD
ATOM      7  H   UNL     1       0.875  -4.157  -3.645  0.00  0.00    +0.159 HD
ATOM      8  H   UNL     1       1.977  -5.414   0.093  0.00  0.00    +0.159 HD
ATOM      9  H   UNL     1       3.138  -4.791  -1.012  0.00  0.00    +0.159 HD
ENDROOT
BRANCH   1  10
ATOM     10  C   UNL     1      -0.545  -5.756  -0.249  0.00  0.00    +0.151 C 
BRANCH  10  11
ATOM     11  C   UNL     1      -1.648  -6.725  -0.576  0.00  0.00    -0.028 A 
ATOM     12  C   UNL     1      -2.162  -7.577   0.412  0.00  0.00    +0.005 A 
ATOM     13  C   UNL     1      -2.186  -6.792  -1.870  0.00  0.00    +0.005 A 
ATOM     14  C   UNL     1      -3.207  -8.457   0.117  0.00  0.00    +0.000 A 
ATOM     15  C   UNL     1      -3.228  -7.672  -2.161  0.00  0.00    +0.000 A 
ATOM     16  C   UNL     1      -3.740  -8.502  -1.167  0.00  0.00    +0.000 A 
ENDBRANCH  10  11
ENDBRANCH   1  10
TORSDOF 2
ENDMDL
MODEL 2
REMARK VINA RESULT:    -5.753      2.636      4.442
REMARK INTER + INTRA:          -6.559
REMARK INTER:                  -6.417
REMARK INTRA:                  -0.141
REMARK UNBOUND:                -0.133
REMARK  Name = 1550473
REMARK  2 active torsions:
REMARK  status: ('A' for Active; 'I' for Inactive)
REMARK    1  A    between atoms: N_1  and  C_4
REMARK    2  A    between atoms: C_4  and  C_5
REMARK                            x       y       z     vdW  Elec       q    Type
REMARK                         _______ _______ _______ _____ _____    ______ ____
ROOT
ATOM      1  N   UNL     1      -0.498  -5.019  -3.087  0.00  0.00    -0.354 N 
ATOM      2  N   UNL     1      -0.017  -4.898  -5.349  0.00  0.00    -0.372 N 
ATOM      3  N   UNL     1      -0.519  -6.939  -4.430  0.00  0.00    -0.372 N 
ATOM      4  C   UNL     1      -0.348  -5.622  -4.274  0.00  0.00    +0.166 C 
ATOM      5  H   UNL     1      -0.324  -4.022  -3.029  0.00  0.00    +0.163 HD
ATOM      6  H   UNL     1       0.099  -5.325  -6.259  0.00  0.00    +0.159 HD
ATOM      7  H   UNL     1       0.111  -3.895  -5.298  0.00  0.00    +0.159 HD
ATOM      8  H   UNL     1      -0.764  -7.543  -3.656  0.00  0.00    +0.159 HD
ATOM      9  H   UNL     1      -0.396  -7.387  -5.330  0.00  0.00    +0.159 HD
ENDROOT
BRANCH   1  10
ATOM     10  C   UNL     1      -0.909  -5.708  -1.865  0.00  0.00    +0.151 C 
BRANCH  10  11
ATOM     11  C   UNL     1       0.059  -5.376  -0.764  0.00  0.00    -0.028 A 
ATOM     12  C   UNL     1       1.238  -4.669  -1.042  0.00  0.00    +0.005 A 
ATOM     13  C   UNL     1      -0.199  -5.760   0.561  0.00  0.00    +0.005 A 
ATOM     14  C   UNL     1       2.124  -4.333  -0.015  0.00  0.00    +0.000 A 
ATOM     15  C   UNL     1       0.688  -5.424   1.583  0.00  0.00    +0.000 A 
ATOM     16  C   UNL     1       1.848  -4.709   1.296  0.00  0.00    +0.000 A 
ENDBRANCH  10  11
ENDBRANCH   1  10
TORSDOF 2
ENDMDL
MODEL 3
REMARK VINA RESULT:    -5.665     10.296     11.659
REMARK INTER + INTRA:          -6.460
REMARK INTER:                  -6.318
REMARK INTRA:                  -0.141
REMARK UNBOUND:                -0.133
REMARK  Name = 1550473
REMARK  2 active torsions:
REMARK  status: ('A' for Active; 'I' for Inactive)
REMARK    1  A    between atoms: N_1  and  C_4
REMARK    2  A    between atoms: C_4  and  C_5
REMARK                            x       y       z     vdW  Elec       q    Type
REMARK                         _______ _______ _______ _____ _____    ______ ____
ROOT
ATOM      1  N   UNL     1       1.585  -9.214 -10.833  0.00  0.00    -0.354 N 
ATOM      2  N   UNL     1      -0.678  -9.490 -11.242  0.00  0.00    -0.372 N 
ATOM      3  N   UNL     1       0.805  -9.793 -12.966  0.00  0.00    -0.372 N 
ATOM      4  C   UNL     1       0.587  -9.498 -11.680  0.00  0.00    +0.166 C 
ATOM      5  H   UNL     1       1.351  -8.969  -9.878  0.00  0.00    +0.163 HD
ATOM      6  H   UNL     1      -1.452  -9.703 -11.857  0.00  0.00    +0.159 HD
ATOM      7  H   UNL     1      -0.906  -9.289 -10.276  0.00  0.00    +0.159 HD
ATOM      8  H   UNL     1       1.736  -9.810 -13.361  0.00  0.00    +0.159 HD
ATOM      9  H   UNL     1       0.043  -9.998 -13.600  0.00  0.00    +0.159 HD
ENDROOT
BRANCH   1  10
ATOM     10  C   UNL     1       3.001  -9.248 -11.197  0.00  0.00    +0.151 C 
BRANCH  10  11
ATOM     11  C   UNL     1       3.667  -7.997 -10.694  0.00  0.00    -0.028 A 
ATOM     12  C   UNL     1       2.970  -7.102  -9.870  0.00  0.00    +0.005 A 
ATOM     13  C   UNL     1       4.997  -7.705 -11.035  0.00  0.00    +0.005 A 
ATOM     14  C   UNL     1       3.599  -5.955  -9.378  0.00  0.00    +0.000 A 
ATOM     15  C   UNL     1       5.620  -6.558 -10.543  0.00  0.00    +0.000 A 
ATOM     16  C   UNL     1       4.921  -5.685  -9.713  0.00  0.00    +0.000 A 
ENDBRANCH  10  11
ENDBRANCH   1  10
TORSDOF 2
ENDMDL
MODEL 4
REMARK VINA RESULT:    -5.444      2.918      5.024
REMARK INTER + INTRA:          -6.213
REMARK INTER:                  -6.091
REMARK INTRA:                  -0.122
REMARK UNBOUND:                -0.133
REMARK  Name = 1550473
REMARK  2 active torsions:
REMARK  status: ('A' for Active; 'I' for Inactive)
REMARK    1  A    between atoms: N_1  and  C_4
REMARK    2  A    between atoms: C_4  and  C_5
REMARK                            x       y       z     vdW  Elec       q    Type
REMARK                         _______ _______ _______ _____ _____    ______ ____
ROOT
ATOM      1  N   UNL     1      -2.799  -7.638  -0.855  0.00  0.00    -0.354 N 
ATOM      2  N   UNL     1      -4.478  -9.213  -0.601  0.00  0.00    -0.372 N 
ATOM      3  N   UNL     1      -4.289  -8.106  -2.602  0.00  0.00    -0.372 N 
ATOM      4  C   UNL     1      -3.845  -8.307  -1.357  0.00  0.00    +0.166 C 
ATOM      5  H   UNL     1      -2.531  -7.815   0.106  0.00  0.00    +0.163 HD
ATOM      6  H   UNL     1      -5.268  -9.736  -0.954  0.00  0.00    +0.159 HD
ATOM      7  H   UNL     1      -4.179  -9.421   0.343  0.00  0.00    +0.159 HD
ATOM      8  H   UNL     1      -3.859  -7.432  -3.222  0.00  0.00    +0.159 HD
ATOM      9  H   UNL     1      -5.086  -8.611  -2.970  0.00  0.00    +0.159 HD
ENDROOT
BRANCH   1  10
ATOM     10  C   UNL     1      -2.008  -6.670  -1.613  0.00  0.00    +0.151 C 
BRANCH  10  11
ATOM     11  C   UNL     1      -1.081  -5.950  -0.673  0.00  0.00    -0.028 A 
ATOM     12  C   UNL     1      -0.848  -6.447   0.617  0.00  0.00    +0.005 A 
ATOM     13  C   UNL     1      -0.428  -4.772  -1.069  0.00  0.00    +0.005 A 
ATOM     14  C   UNL     1       0.036  -5.795   1.480  0.00  0.00    +0.000 A 
ATOM     15  C   UNL     1       0.454  -4.124  -0.204  0.00  0.00    +0.000 A 
ATOM     16  C   UNL     1       0.687  -4.637   1.069  0.00  0.00    +0.000 A 
ENDBRANCH  10  11
ENDBRANCH   1  10
TORSDOF 2
ENDMDL
MODEL 5
REMARK VINA RESULT:    -5.332     15.927     17.749
REMARK INTER + INTRA:          -6.088
REMARK INTER:                  -5.964
REMARK INTRA:                  -0.125
REMARK UNBOUND:                -0.133
REMARK  Name = 1550473
REMARK  2 active torsions:
REMARK  status: ('A' for Active; 'I' for Inactive)
REMARK    1  A    between atoms: N_1  and  C_4
REMARK    2  A    between atoms: C_4  and  C_5
REMARK                            x       y       z     vdW  Elec       q    Type
REMARK                         _______ _______ _______ _____ _____    ______ ____
ROOT
ATOM      1  N   UNL     1     -19.052  -9.874   2.575  0.00  0.00    -0.354 N 
ATOM      2  N   UNL     1     -20.106 -10.382   4.574  0.00  0.00    -0.372 N 
ATOM      3  N   UNL     1     -20.219  -8.234   3.775  0.00  0.00    -0.372 N 
ATOM      4  C   UNL     1     -19.786  -9.491   3.628  0.00  0.00    +0.166 C 
ATOM      5  H   UNL     1     -18.729 -10.834   2.538  0.00  0.00    +0.163 HD
ATOM      6  H   UNL     1     -20.662 -10.123   5.378  0.00  0.00    +0.159 HD
ATOM      7  H   UNL     1     -19.821 -11.352   4.511  0.00  0.00    +0.159 HD
ATOM      8  H   UNL     1     -20.007  -7.512   3.099  0.00  0.00    +0.159 HD
ATOM      9  H   UNL     1     -20.767  -7.952   4.579  0.00  0.00    +0.159 HD
ENDROOT
BRANCH   1  10
ATOM     10  C   UNL     1     -18.694  -8.995   1.464  0.00  0.00    +0.151 C 
BRANCH  10  11
ATOM     11  C   UNL     1     -17.312  -9.345   0.985  0.00  0.00    -0.028 A 
ATOM     12  C   UNL     1     -16.501  -8.374   0.380  0.00  0.00    +0.005 A 
ATOM     13  C   UNL     1     -16.806 -10.645   1.139  0.00  0.00    +0.005 A 
ATOM     14  C   UNL     1     -15.206  -8.692  -0.038  0.00  0.00    +0.000 A 
ATOM     15  C   UNL     1     -15.514 -10.958   0.720  0.00  0.00    +0.000 A 
ATOM     16  C   UNL     1     -14.713  -9.981   0.134  0.00  0.00    +0.000 A 
ENDBRANCH  10  11
ENDBRANCH   1  10
TORSDOF 2
ENDMDL
MODEL 6
REMARK VINA RESULT:    -5.310      2.978      5.157
REMARK INTER + INTRA:          -6.064
REMARK INTER:                  -5.938
REMARK INTRA:                  -0.126
REMARK UNBOUND:                -0.133
REMARK  Name = 1550473
REMARK  2 active torsions:
REMARK  status: ('A' for Active; 'I' for Inactive)
REMARK    1  A    between atoms: N_1  and  C_4
REMARK    2  A    between atoms: C_4  and  C_5
REMARK                            x       y       z     vdW  Elec       q    Type
REMARK                         _______ _______ _______ _____ _____    ______ ____
ROOT
ATOM      1  N   UNL     1      -3.039  -7.599  -1.845  0.00  0.00    -0.354 N 
ATOM      2  N   UNL     1      -4.753  -8.364  -3.201  0.00  0.00    -0.372 N 
ATOM      3  N   UNL     1      -4.866  -8.757  -0.944  0.00  0.00    -0.372 N 
ATOM      4  C   UNL     1      -4.209  -8.236  -1.985  0.00  0.00    +0.166 C 
ATOM      5  H   UNL     1      -2.576  -7.253  -2.677  0.00  0.00    +0.163 HD
ATOM      6  H   UNL     1      -5.637  -8.836  -3.338  0.00  0.00    +0.159 HD
ATOM      7  H   UNL     1      -4.311  -7.977  -4.026  0.00  0.00    +0.159 HD
ATOM      8  H   UNL     1      -4.506  -8.700  -0.000  0.00  0.00    +0.159 HD
ATOM      9  H   UNL     1      -5.746  -9.244  -1.062  0.00  0.00    +0.159 HD
ENDROOT
BRANCH   1  10
ATOM     10  C   UNL     1      -2.388  -7.360  -0.558  0.00  0.00    +0.151 C 
BRANCH  10  11
ATOM     11  C   UNL     1      -1.389  -6.246  -0.713  0.00  0.00    -0.028 A 
ATOM     12  C   UNL     1      -1.151  -5.673  -1.970  0.00  0.00    +0.005 A 
ATOM     13  C   UNL     1      -0.683  -5.754   0.396  0.00  0.00    +0.005 A 
ATOM     14  C   UNL     1      -0.246  -4.618  -2.110  0.00  0.00    +0.000 A 
ATOM     15  C   UNL     1       0.220  -4.701   0.253  0.00  0.00    +0.000 A 
ATOM     16  C   UNL     1       0.437  -4.132  -0.999  0.00  0.00    +0.000 A 
ENDBRANCH  10  11
ENDBRANCH   1  10
TORSDOF 2
ENDMDL
MODEL 7
REMARK VINA RESULT:    -5.223      1.783      2.785
REMARK INTER + INTRA:          -5.967
REMARK INTER:                  -5.845
REMARK INTRA:                  -0.121
REMARK UNBOUND:                -0.133
REMARK  Name = 1550473
REMARK  2 active torsions:
REMARK  status: ('A' for Active; 'I' for Inactive)
REMARK    1  A    between atoms: N_1  and  C_4
REMARK    2  A    between atoms: C_4  and  C_5
REMARK                            x       y       z     vdW  Elec       q    Type
REMARK                         _______ _______ _______ _____ _____    ______ ____
ROOT
ATOM      1  N   UNL     1       0.470  -5.197  -1.320  0.00  0.00    -0.354 N 
ATOM      2  N   UNL     1       1.958  -5.149   0.454  0.00  0.00    -0.372 N 
ATOM      3  N   UNL     1      -0.135  -4.252   0.738  0.00  0.00    -0.372 N 
ATOM      4  C   UNL     1       0.752  -4.865  -0.053  0.00  0.00    +0.166 C 
ATOM      5  H   UNL     1       1.196  -5.632  -1.877  0.00  0.00    +0.163 HD
ATOM      6  H   UNL     1       2.198  -4.913   1.408  0.00  0.00    +0.159 HD
ATOM      7  H   UNL     1       2.666  -5.626  -0.090  0.00  0.00    +0.159 HD
ATOM      8  H   UNL     1      -1.061  -4.005   0.413  0.00  0.00    +0.159 HD
ATOM      9  H   UNL     1       0.091  -3.998   1.691  0.00  0.00    +0.159 HD
ENDROOT
BRANCH   1  10
ATOM     10  C   UNL     1      -0.831  -4.980  -1.951  0.00  0.00    +0.151 C 
BRANCH  10  11
ATOM     11  C   UNL     1      -1.296  -6.268  -2.573  0.00  0.00    -0.028 A 
ATOM     12  C   UNL     1      -0.632  -6.801  -3.688  0.00  0.00    +0.005 A 
ATOM     13  C   UNL     1      -2.396  -6.964  -2.048  0.00  0.00    +0.005 A 
ATOM     14  C   UNL     1      -1.045  -8.013  -4.247  0.00  0.00    +0.000 A 
ATOM     15  C   UNL     1      -2.805  -8.173  -2.610  0.00  0.00    +0.000 A 
ATOM     16  C   UNL     1      -2.128  -8.698  -3.708  0.00  0.00    +0.000 A 
ENDBRANCH  10  11
ENDBRANCH   1  10
TORSDOF 2
ENDMDL
MODEL 8
REMARK VINA RESULT:    -5.222      9.101     10.499
REMARK INTER + INTRA:          -5.965
REMARK INTER:                  -5.811
REMARK INTRA:                  -0.154
REMARK UNBOUND:                -0.133
REMARK  Name = 1550473
REMARK  2 active torsions:
REMARK  status: ('A' for Active; 'I' for Inactive)
REMARK    1  A    between atoms: N_1  and  C_4
REMARK    2  A    between atoms: C_4  and  C_5
REMARK                            x       y       z     vdW  Elec       q    Type
REMARK                         _______ _______ _______ _____ _____    ______ ____
ROOT
ATOM      1  N   UNL     1       1.789  -6.139  -9.883  0.00  0.00    -0.354 N 
ATOM      2  N   UNL     1      -0.438  -5.665  -9.458  0.00  0.00    -0.372 N 
ATOM      3  N   UNL     1       0.822  -6.641  -7.808  0.00  0.00    -0.372 N 
ATOM      4  C   UNL     1       0.739  -6.153  -9.050  0.00  0.00    +0.166 C 
ATOM      5  H   UNL     1       1.653  -5.783 -10.822  0.00  0.00    +0.163 HD
ATOM      6  H   UNL     1      -1.247  -5.658  -8.851  0.00  0.00    +0.159 HD
ATOM      7  H   UNL     1      -0.559  -5.267 -10.382  0.00  0.00    +0.159 HD
ATOM      8  H   UNL     1       1.681  -7.030  -7.441  0.00  0.00    +0.159 HD
ATOM      9  H   UNL     1       0.021  -6.654  -7.189  0.00  0.00    +0.159 HD
ENDROOT
BRANCH   1  10
ATOM     10  C   UNL     1       3.128  -6.597  -9.518  0.00  0.00    +0.151 C 
BRANCH  10  11
ATOM     11  C   UNL     1       3.405  -7.905 -10.207  0.00  0.00    -0.028 A 
ATOM     12  C   UNL     1       4.287  -7.964 -11.295  0.00  0.00    +0.005 A 
ATOM     13  C   UNL     1       2.791  -9.090  -9.772  0.00  0.00    +0.005 A 
ATOM     14  C   UNL     1       4.568  -9.183 -11.916  0.00  0.00    +0.000 A 
ATOM     15  C   UNL     1       3.073 -10.306 -10.396  0.00  0.00    +0.000 A 
ATOM     16  C   UNL     1       3.963 -10.352 -11.466  0.00  0.00    +0.000 A 
ENDBRANCH  10  11
ENDBRANCH   1  10
TORSDOF 2
ENDMDL
MODEL 9
REMARK VINA RESULT:    -5.125     14.542     15.190
REMARK INTER + INTRA:          -5.857
REMARK INTER:                  -5.762
REMARK INTRA:                  -0.095
REMARK UNBOUND:                -0.133
REMARK  Name = 1550473
REMARK  2 active torsions:
REMARK  status: ('A' for Active; 'I' for Inactive)
REMARK    1  A    between atoms: N_1  and  C_4
REMARK    2  A    between atoms: C_4  and  C_5
REMARK                            x       y       z     vdW  Elec       q    Type
REMARK                         _______ _______ _______ _____ _____    ______ ____
ROOT
ATOM      1  N   UNL     1       4.275 -19.547  -0.710  0.00  0.00    -0.354 N 
ATOM      2  N   UNL     1       2.359 -19.606   0.589  0.00  0.00    -0.372 N 
ATOM      3  N   UNL     1       2.713 -21.278  -0.942  0.00  0.00    -0.372 N 
ATOM      4  C   UNL     1       3.127 -20.145  -0.365  0.00  0.00    +0.166 C 
ATOM      5  H   UNL     1       4.518 -18.674  -0.256  0.00  0.00    +0.163 HD
ATOM      6  H   UNL     1       1.489 -20.037   0.874  0.00  0.00    +0.159 HD
ATOM      7  H   UNL     1       2.627 -18.758   1.074  0.00  0.00    +0.159 HD
ATOM      8  H   UNL     1       3.244 -21.733  -1.672  0.00  0.00    +0.159 HD
ATOM      9  H   UNL     1       1.840 -21.718  -0.679  0.00  0.00    +0.159 HD
ENDROOT
BRANCH   1  10
ATOM     10  C   UNL     1       5.210 -20.080  -1.699  0.00  0.00    +0.151 C 
BRANCH  10  11
ATOM     11  C   UNL     1       6.310 -19.080  -1.925  0.00  0.00    -0.028 A 
ATOM     12  C   UNL     1       6.390 -18.371  -3.133  0.00  0.00    +0.005 A 
ATOM     13  C   UNL     1       7.271 -18.831  -0.933  0.00  0.00    +0.005 A 
ATOM     14  C   UNL     1       7.394 -17.420  -3.332  0.00  0.00    +0.000 A 
ATOM     15  C   UNL     1       8.272 -17.881  -1.136  0.00  0.00    +0.000 A 
ATOM     16  C   UNL     1       8.332 -17.174  -2.334  0.00  0.00    +0.000 A 
ENDBRANCH  10  11
ENDBRANCH   1  10
TORSDOF 2
ENDMDL
