MODEL 1
REMARK VINA RESULT:    -4.359      0.000      0.000
REMARK INTER + INTRA:          -4.964
REMARK INTER:                  -4.869
REMARK INTRA:                  -0.094
REMARK UNBOUND:                -0.094
REMARK  Name = 1550473
REMARK  2 active torsions:
REMARK  status: ('A' for Active; 'I' for Inactive)
REMARK    1  A    between atoms: N_1  and  C_4
REMARK    2  A    between atoms: C_4  and  C_5
REMARK                            x       y       z     vdW  Elec       q    Type
REMARK                         _______ _______ _______ _____ _____    ______ ____
ROOT
ATOM      1  N   UNL     1       6.537   8.201   6.570  0.00  0.00    -0.354 N 
ATOM      2  N   UNL     1       8.098   7.197   7.955  0.00  0.00    -0.372 N 
ATOM      3  N   UNL     1       7.264   6.008   6.179  0.00  0.00    -0.372 N 
ATOM      4  C   UNL     1       7.289   7.139   6.891  0.00  0.00    +0.166 C 
ATOM      5  H   UNL     1       6.579   9.019   7.167  0.00  0.00    +0.163 HD
ATOM      6  H   UNL     1       8.679   6.413   8.220  0.00  0.00    +0.159 HD
ATOM      7  H   UNL     1       8.172   8.031   8.524  0.00  0.00    +0.159 HD
ATOM      8  H   UNL     1       6.670   5.898   5.367  0.00  0.00    +0.159 HD
ATOM      9  H   UNL     1       7.829   5.208   6.435  0.00  0.00    +0.159 HD
ENDROOT
BRANCH   1  10
ATOM     10  C   UNL     1       5.664   8.261   5.399  0.00  0.00    +0.151 C 
BRANCH  10  11
ATOM     11  C   UNL     1       4.713   9.415   5.554  0.00  0.00    -0.028 A 
ATOM     12  C   UNL     1       3.356   9.188   5.827  0.00  0.00    +0.005 A 
ATOM     13  C   UNL     1       5.163  10.739   5.436  0.00  0.00    +0.005 A 
ATOM     14  C   UNL     1       2.478  10.261   6.001  0.00  0.00    +0.000 A 
ATOM     15  C   UNL     1       4.284  11.807   5.610  0.00  0.00    +0.000 A 
ATOM     16  C   UNL     1       2.941  11.568   5.895  0.00  0.00    +0.000 A 
ENDBRANCH  10  11
ENDBRANCH   1  10
TORSDOF 2
ENDMDL
MODEL 2
REMARK VINA RESULT:    -4.302     30.326     31.272
REMARK INTER + INTRA:          -4.899
REMARK INTER:                  -4.807
REMARK INTRA:                  -0.092
REMARK UNBOUND:                -0.094
REMARK  Name = 1550473
REMARK  2 active torsions:
REMARK  status: ('A' for Active; 'I' for Inactive)
REMARK    1  A    between atoms: N_1  and  C_4
REMARK    2  A    between atoms: C_4  and  C_5
REMARK                            x       y       z     vdW  Elec       q    Type
REMARK                         _______ _______ _______ _____ _____    ______ ____
ROOT
ATOM      1  N   UNL     1       5.118  25.111  34.194  0.00  0.00    -0.354 N 
ATOM      2  N   UNL     1       6.500  24.809  36.028  0.00  0.00    -0.372 N 
ATOM      3  N   UNL     1       5.940  26.944  35.402  0.00  0.00    -0.372 N 
ATOM      4  C   UNL     1       5.844  25.626  35.196  0.00  0.00    +0.166 C 
ATOM      5  H   UNL     1       5.110  24.105  34.074  0.00  0.00    +0.163 HD
ATOM      6  H   UNL     1       7.052  25.168  36.795  0.00  0.00    +0.159 HD
ATOM      7  H   UNL     1       6.453  23.802  35.933  0.00  0.00    +0.159 HD
ATOM      8  H   UNL     1       5.473  27.614  34.805  0.00  0.00    +0.159 HD
ATOM      9  H   UNL     1       6.497  27.323  36.156  0.00  0.00    +0.159 HD
ENDROOT
BRANCH   1  10
ATOM     10  C   UNL     1       4.323  25.911  33.265  0.00  0.00    +0.151 C 
BRANCH  10  11
ATOM     11  C   UNL     1       3.703  25.002  32.240  0.00  0.00    -0.028 A 
ATOM     12  C   UNL     1       4.430  24.604  31.109  0.00  0.00    +0.005 A 
ATOM     13  C   UNL     1       2.390  24.531  32.397  0.00  0.00    +0.005 A 
ATOM     14  C   UNL     1       3.865  23.736  30.172  0.00  0.00    +0.000 A 
ATOM     15  C   UNL     1       1.829  23.665  31.459  0.00  0.00    +0.000 A 
ATOM     16  C   UNL     1       2.568  23.265  30.348  0.00  0.00    +0.000 A 
ENDBRANCH  10  11
ENDBRANCH   1  10
TORSDOF 2
ENDMDL
MODEL 3
REMARK VINA RESULT:    -4.027     30.508     31.437
REMARK INTER + INTRA:          -4.592
REMARK INTER:                  -4.475
REMARK INTRA:                  -0.117
REMARK UNBOUND:                -0.094
REMARK  Name = 1550473
REMARK  2 active torsions:
REMARK  status: ('A' for Active; 'I' for Inactive)
REMARK    1  A    between atoms: N_1  and  C_4
REMARK    2  A    between atoms: C_4  and  C_5
REMARK                            x       y       z     vdW  Elec       q    Type
REMARK                         _______ _______ _______ _____ _____    ______ ____
ROOT
ATOM      1  N   UNL     1       3.973  26.474  33.750  0.00  0.00    -0.354 N 
ATOM      2  N   UNL     1       3.612  28.056  35.403  0.00  0.00    -0.372 N 
ATOM      3  N   UNL     1       5.714  27.169  35.156  0.00  0.00    -0.372 N 
ATOM      4  C   UNL     1       4.438  27.222  34.759  0.00  0.00    +0.166 C 
ATOM      5  H   UNL     1       2.988  26.538  33.517  0.00  0.00    +0.163 HD
ATOM      6  H   UNL     1       3.935  28.636  36.166  0.00  0.00    +0.159 HD
ATOM      7  H   UNL     1       2.639  28.152  35.138  0.00  0.00    +0.159 HD
ATOM      8  H   UNL     1       6.386  26.556  34.716  0.00  0.00    +0.159 HD
ATOM      9  H   UNL     1       6.053  27.733  35.926  0.00  0.00    +0.159 HD
ENDROOT
BRANCH   1  10
ATOM     10  C   UNL     1       4.801  25.574  32.950  0.00  0.00    +0.151 C 
BRANCH  10  11
ATOM     11  C   UNL     1       3.909  24.658  32.158  0.00  0.00    -0.028 A 
ATOM     12  C   UNL     1       2.747  24.123  32.734  0.00  0.00    +0.005 A 
ATOM     13  C   UNL     1       4.216  24.327  30.830  0.00  0.00    +0.005 A 
ATOM     14  C   UNL     1       1.902  23.297  31.990  0.00  0.00    +0.000 A 
ATOM     15  C   UNL     1       3.371  23.500  30.090  0.00  0.00    +0.000 A 
ATOM     16  C   UNL     1       2.212  22.988  30.670  0.00  0.00    +0.000 A 
ENDBRANCH  10  11
ENDBRANCH   1  10
TORSDOF 2
ENDMDL
MODEL 4
REMARK VINA RESULT:    -3.893     24.519     25.998
REMARK INTER + INTRA:          -4.443
REMARK INTER:                  -4.307
REMARK INTRA:                  -0.136
REMARK UNBOUND:                -0.094
REMARK  Name = 1550473
REMARK  2 active torsions:
REMARK  status: ('A' for Active; 'I' for Inactive)
REMARK    1  A    between atoms: N_1  and  C_4
REMARK    2  A    between atoms: C_4  and  C_5
REMARK                            x       y       z     vdW  Elec       q    Type
REMARK                         _______ _______ _______ _____ _____    ______ ____
ROOT
ATOM      1  N   UNL     1       2.788  31.460  20.483  0.00  0.00    -0.354 N 
ATOM      2  N   UNL     1       2.501  32.810  22.343  0.00  0.00    -0.372 N 
ATOM      3  N   UNL     1       3.514  33.688  20.480  0.00  0.00    -0.372 N 
ATOM      4  C   UNL     1       2.938  32.645  21.088  0.00  0.00    +0.166 C 
ATOM      5  H   UNL     1       2.370  30.700  21.009  0.00  0.00    +0.163 HD
ATOM      6  H   UNL     1       2.598  33.694  22.824  0.00  0.00    +0.159 HD
ATOM      7  H   UNL     1       2.043  32.062  22.850  0.00  0.00    +0.159 HD
ATOM      8  H   UNL     1       3.869  33.627  19.536  0.00  0.00    +0.159 HD
ATOM      9  H   UNL     1       3.630  34.577  20.950  0.00  0.00    +0.159 HD
ENDROOT
BRANCH   1  10
ATOM     10  C   UNL     1       3.180  31.192  19.100  0.00  0.00    +0.151 C 
BRANCH  10  11
ATOM     11  C   UNL     1       2.016  30.580  18.370  0.00  0.00    -0.028 A 
ATOM     12  C   UNL     1       2.225  29.812  17.215  0.00  0.00    +0.005 A 
ATOM     13  C   UNL     1       0.703  30.760  18.830  0.00  0.00    +0.005 A 
ATOM     14  C   UNL     1       1.148  29.218  16.553  0.00  0.00    +0.000 A 
ATOM     15  C   UNL     1      -0.370  30.167  18.166  0.00  0.00    +0.000 A 
ATOM     16  C   UNL     1      -0.147  29.394  17.029  0.00  0.00    +0.000 A 
ENDBRANCH  10  11
ENDBRANCH   1  10
TORSDOF 2
ENDMDL
MODEL 5
REMARK VINA RESULT:    -3.875     44.500     45.698
REMARK INTER + INTRA:          -4.423
REMARK INTER:                  -4.310
REMARK INTRA:                  -0.113
REMARK UNBOUND:                -0.094
REMARK  Name = 1550473
REMARK  2 active torsions:
REMARK  status: ('A' for Active; 'I' for Inactive)
REMARK    1  A    between atoms: N_1  and  C_4
REMARK    2  A    between atoms: C_4  and  C_5
REMARK                            x       y       z     vdW  Elec       q    Type
REMARK                         _______ _______ _______ _____ _____    ______ ____
ROOT
ATOM      1  N   UNL     1      -6.912 -20.651 -27.240  0.00  0.00    -0.354 N 
ATOM      2  N   UNL     1      -8.057 -22.402 -28.235  0.00  0.00    -0.372 N 
ATOM      3  N   UNL     1      -7.551 -22.535 -26.000  0.00  0.00    -0.372 N 
ATOM      4  C   UNL     1      -7.499 -21.853 -27.149  0.00  0.00    +0.166 C 
ATOM      5  H   UNL     1      -6.880 -20.199 -28.146  0.00  0.00    +0.163 HD
ATOM      6  H   UNL     1      -8.509 -23.305 -28.196  0.00  0.00    +0.159 HD
ATOM      7  H   UNL     1      -8.063 -21.927 -29.129  0.00  0.00    +0.159 HD
ATOM      8  H   UNL     1      -7.143 -22.179 -25.147  0.00  0.00    +0.159 HD
ATOM      9  H   UNL     1      -7.989 -23.446 -25.945  0.00  0.00    +0.159 HD
ENDROOT
BRANCH   1  10
ATOM     10  C   UNL     1      -6.323 -19.942 -26.106  0.00  0.00    +0.151 C 
BRANCH  10  11
ATOM     11  C   UNL     1      -4.836 -20.164 -26.107  0.00  0.00    -0.028 A 
ATOM     12  C   UNL     1      -4.084 -19.955 -24.941  0.00  0.00    +0.005 A 
ATOM     13  C   UNL     1      -4.173 -20.590 -27.268  0.00  0.00    +0.005 A 
ATOM     14  C   UNL     1      -2.707 -20.190 -24.934  0.00  0.00    +0.000 A 
ATOM     15  C   UNL     1      -2.798 -20.823 -27.257  0.00  0.00    +0.000 A 
ATOM     16  C   UNL     1      -2.066 -20.625 -26.089  0.00  0.00    +0.000 A 
ENDBRANCH  10  11
ENDBRANCH   1  10
TORSDOF 2
ENDMDL
MODEL 6
REMARK VINA RESULT:    -3.843     19.145     19.954
REMARK INTER + INTRA:          -4.386
REMARK INTER:                  -4.281
REMARK INTRA:                  -0.105
REMARK UNBOUND:                -0.094
REMARK  Name = 1550473
REMARK  2 active torsions:
REMARK  status: ('A' for Active; 'I' for Inactive)
REMARK    1  A    between atoms: N_1  and  C_4
REMARK    2  A    between atoms: C_4  and  C_5
REMARK                            x       y       z     vdW  Elec       q    Type
REMARK                         _______ _______ _______ _____ _____    ______ ____
ROOT
ATOM      1  N   UNL     1      -0.274  13.920  22.586  0.00  0.00    -0.354 N 
ATOM      2  N   UNL     1      -0.178  13.944  20.272  0.00  0.00    -0.372 N 
ATOM      3  N   UNL     1       1.306  15.232  21.458  0.00  0.00    -0.372 N 
ATOM      4  C   UNL     1       0.286  14.367  21.454  0.00  0.00    +0.166 C 
ATOM      5  H   UNL     1      -1.064  13.289  22.515  0.00  0.00    +0.163 HD
ATOM      6  H   UNL     1       0.227  14.262  19.402  0.00  0.00    +0.159 HD
ATOM      7  H   UNL     1      -0.937  13.278  20.205  0.00  0.00    +0.159 HD
ATOM      8  H   UNL     1       1.698  15.594  22.317  0.00  0.00    +0.159 HD
ATOM      9  H   UNL     1       1.717  15.571  20.597  0.00  0.00    +0.159 HD
ENDROOT
BRANCH   1  10
ATOM     10  C   UNL     1       0.191  14.277  23.925  0.00  0.00    +0.151 C 
BRANCH  10  11
ATOM     11  C   UNL     1      -0.821  13.812  24.936  0.00  0.00    -0.028 A 
ATOM     12  C   UNL     1      -1.277  14.681  25.938  0.00  0.00    +0.005 A 
ATOM     13  C   UNL     1      -1.331  12.505  24.895  0.00  0.00    +0.005 A 
ATOM     14  C   UNL     1      -2.239  14.260  26.859  0.00  0.00    +0.000 A 
ATOM     15  C   UNL     1      -2.290  12.088  25.817  0.00  0.00    +0.000 A 
ATOM     16  C   UNL     1      -2.746  12.966  26.797  0.00  0.00    +0.000 A 
ENDBRANCH  10  11
ENDBRANCH   1  10
TORSDOF 2
ENDMDL
MODEL 7
REMARK VINA RESULT:    -3.793     49.115     50.031
REMARK INTER + INTRA:          -4.331
REMARK INTER:                  -4.152
REMARK INTRA:                  -0.179
REMARK UNBOUND:                -0.094
REMARK  Name = 1550473
REMARK  2 active torsions:
REMARK  status: ('A' for Active; 'I' for Inactive)
REMARK    1  A    between atoms: N_1  and  C_4
REMARK    2  A    between atoms: C_4  and  C_5
REMARK                            x       y       z     vdW  Elec       q    Type
REMARK                         _______ _______ _______ _____ _____    ______ ____
ROOT
ATOM      1  N   UNL     1      -8.464 -11.217 -36.296  0.00  0.00    -0.354 N 
ATOM      2  N   UNL     1      -9.318 -10.739 -34.196  0.00  0.00    -0.372 N 
ATOM      3  N   UNL     1      -7.046 -10.931 -34.452  0.00  0.00    -0.372 N 
ATOM      4  C   UNL     1      -8.268 -10.966 -34.995  0.00  0.00    +0.166 C 
ATOM      5  H   UNL     1      -9.417 -11.259 -36.639  0.00  0.00    +0.163 HD
ATOM      6  H   UNL     1      -9.201 -10.543 -33.211  0.00  0.00    +0.159 HD
ATOM      7  H   UNL     1     -10.266 -10.736 -34.552  0.00  0.00    +0.159 HD
ATOM      8  H   UNL     1      -6.212 -11.099 -34.999  0.00  0.00    +0.159 HD
ATOM      9  H   UNL     1      -6.909 -10.748 -33.466  0.00  0.00    +0.159 HD
ENDROOT
BRANCH   1  10
ATOM     10  C   UNL     1      -7.386 -11.424 -37.260  0.00  0.00    +0.151 C 
BRANCH  10  11
ATOM     11  C   UNL     1      -7.290 -12.889 -37.584  0.00  0.00    -0.028 A 
ATOM     12  C   UNL     1      -6.407 -13.718 -36.877  0.00  0.00    +0.005 A 
ATOM     13  C   UNL     1      -8.085 -13.456 -38.592  0.00  0.00    +0.005 A 
ATOM     14  C   UNL     1      -6.339 -15.085 -37.157  0.00  0.00    +0.000 A 
ATOM     15  C   UNL     1      -8.015 -14.822 -38.868  0.00  0.00    +0.000 A 
ATOM     16  C   UNL     1      -7.143 -15.636 -38.149  0.00  0.00    +0.000 A 
ENDBRANCH  10  11
ENDBRANCH   1  10
TORSDOF 2
ENDMDL
MODEL 8
REMARK VINA RESULT:    -3.744     49.830     50.741
REMARK INTER + INTRA:          -4.277
REMARK INTER:                  -4.117
REMARK INTRA:                  -0.159
REMARK UNBOUND:                -0.094
REMARK  Name = 1550473
REMARK  2 active torsions:
REMARK  status: ('A' for Active; 'I' for Inactive)
REMARK    1  A    between atoms: N_1  and  C_4
REMARK    2  A    between atoms: C_4  and  C_5
REMARK                            x       y       z     vdW  Elec       q    Type
REMARK                         _______ _______ _______ _____ _____    ______ ____
ROOT
ATOM      1  N   UNL     1      -6.321 -13.921 -35.525  0.00  0.00    -0.354 N 
ATOM      2  N   UNL     1      -7.421 -13.164 -33.633  0.00  0.00    -0.372 N 
ATOM      3  N   UNL     1      -6.526 -11.628 -35.084  0.00  0.00    -0.372 N 
ATOM      4  C   UNL     1      -6.748 -12.907 -34.761  0.00  0.00    +0.166 C 
ATOM      5  H   UNL     1      -6.494 -14.868 -35.209  0.00  0.00    +0.163 HD
ATOM      6  H   UNL     1      -7.759 -12.419 -33.038  0.00  0.00    +0.159 HD
ATOM      7  H   UNL     1      -7.634 -14.110 -33.343  0.00  0.00    +0.159 HD
ATOM      8  H   UNL     1      -6.019 -11.368 -35.919  0.00  0.00    +0.159 HD
ATOM      9  H   UNL     1      -6.846 -10.869 -34.496  0.00  0.00    +0.159 HD
ENDROOT
BRANCH   1  10
ATOM     10  C   UNL     1      -5.626 -13.748 -36.799  0.00  0.00    +0.151 C 
BRANCH  10  11
ATOM     11  C   UNL     1      -6.472 -14.323 -37.902  0.00  0.00    -0.028 A 
ATOM     12  C   UNL     1      -6.231 -15.618 -38.382  0.00  0.00    +0.005 A 
ATOM     13  C   UNL     1      -7.519 -13.578 -38.466  0.00  0.00    +0.005 A 
ATOM     14  C   UNL     1      -7.036 -16.163 -39.386  0.00  0.00    +0.000 A 
ATOM     15  C   UNL     1      -8.319 -14.126 -39.469  0.00  0.00    +0.000 A 
ATOM     16  C   UNL     1      -8.079 -15.419 -39.926  0.00  0.00    +0.000 A 
ENDBRANCH  10  11
ENDBRANCH   1  10
TORSDOF 2
ENDMDL
MODEL 9
REMARK VINA RESULT:    -3.743     19.445     20.224
REMARK INTER + INTRA:          -4.275
REMARK INTER:                  -4.132
REMARK INTRA:                  -0.143
REMARK UNBOUND:                -0.094
REMARK  Name = 1550473
REMARK  2 active torsions:
REMARK  status: ('A' for Active; 'I' for Inactive)
REMARK    1  A    between atoms: N_1  and  C_4
REMARK    2  A    between atoms: C_4  and  C_5
REMARK                            x       y       z     vdW  Elec       q    Type
REMARK                         _______ _______ _______ _____ _____    ______ ____
ROOT
ATOM      1  N   UNL     1      -1.888  14.602  25.735  0.00  0.00    -0.354 N 
ATOM      2  N   UNL     1      -3.809  14.777  27.017  0.00  0.00    -0.372 N 
ATOM      3  N   UNL     1      -2.559  12.858  27.149  0.00  0.00    -0.372 N 
ATOM      4  C   UNL     1      -2.739  14.075  26.626  0.00  0.00    +0.166 C 
ATOM      5  H   UNL     1      -2.097  15.517  25.353  0.00  0.00    +0.163 HD
ATOM      6  H   UNL     1      -4.466  14.408  27.691  0.00  0.00    +0.159 HD
ATOM      7  H   UNL     1      -3.990  15.711  26.669  0.00  0.00    +0.159 HD
ATOM      8  H   UNL     1      -1.775  12.274  26.890  0.00  0.00    +0.159 HD
ATOM      9  H   UNL     1      -3.212  12.465  27.816  0.00  0.00    +0.159 HD
ENDROOT
BRANCH   1  10
ATOM     10  C   UNL     1      -0.665  13.942  25.283  0.00  0.00    +0.151 C 
BRANCH  10  11
ATOM     11  C   UNL     1      -0.616  13.973  23.780  0.00  0.00    -0.028 A 
ATOM     12  C   UNL     1      -1.748  13.635  23.024  0.00  0.00    +0.005 A 
ATOM     13  C   UNL     1       0.558  14.345  23.107  0.00  0.00    +0.005 A 
ATOM     14  C   UNL     1      -1.712  13.693  21.629  0.00  0.00    +0.000 A 
ATOM     15  C   UNL     1       0.590  14.400  21.714  0.00  0.00    +0.000 A 
ATOM     16  C   UNL     1      -0.546  14.077  20.975  0.00  0.00    +0.000 A 
ENDBRANCH  10  11
ENDBRANCH   1  10
TORSDOF 2
ENDMDL
