MODEL 1
REMARK VINA RESULT:    -5.838      0.000      0.000
REMARK INTER + INTRA:          -6.660
REMARK INTER:                  -6.520
REMARK INTRA:                  -0.140
REMARK UNBOUND:                -0.140
REMARK  Name = 1550473
REMARK  2 active torsions:
REMARK  status: ('A' for Active; 'I' for Inactive)
REMARK    1  A    between atoms: N_1  and  C_4
REMARK    2  A    between atoms: C_4  and  C_5
REMARK                            x       y       z     vdW  Elec       q    Type
REMARK                         _______ _______ _______ _____ _____    ______ ____
ROOT
ATOM      1  N   UNL     1      -2.448   3.170  -1.433  0.00  0.00    -0.354 N 
ATOM      2  N   UNL     1      -1.654   1.185  -0.543  0.00  0.00    -0.372 N 
ATOM      3  N   UNL     1      -3.857   1.740  -0.224  0.00  0.00    -0.372 N 
ATOM      4  C   UNL     1      -2.661   2.045  -0.738  0.00  0.00    +0.166 C 
ATOM      5  H   UNL     1      -1.511   3.358  -1.770  0.00  0.00    +0.163 HD
ATOM      6  H   UNL     1      -1.785   0.326  -0.026  0.00  0.00    +0.159 HD
ATOM      7  H   UNL     1      -0.729   1.353  -0.921  0.00  0.00    +0.159 HD
ATOM      8  H   UNL     1      -4.657   2.350  -0.331  0.00  0.00    +0.159 HD
ATOM      9  H   UNL     1      -4.006   0.891   0.306  0.00  0.00    +0.159 HD
ENDROOT
BRANCH   1  10
ATOM     10  C   UNL     1      -3.490   4.146  -1.748  0.00  0.00    +0.151 C 
BRANCH  10  11
ATOM     11  C   UNL     1      -3.559   4.327  -3.239  0.00  0.00    -0.028 A 
ATOM     12  C   UNL     1      -4.784   4.593  -3.868  0.00  0.00    +0.005 A 
ATOM     13  C   UNL     1      -2.402   4.241  -4.028  0.00  0.00    +0.005 A 
ATOM     14  C   UNL     1      -4.845   4.791  -5.249  0.00  0.00    +0.000 A 
ATOM     15  C   UNL     1      -2.466   4.438  -5.407  0.00  0.00    +0.000 A 
ATOM     16  C   UNL     1      -3.687   4.716  -6.017  0.00  0.00    +0.000 A 
ENDBRANCH  10  11
ENDBRANCH   1  10
TORSDOF 2
ENDMDL
MODEL 2
REMARK VINA RESULT:    -5.648     15.700     16.274
REMARK INTER + INTRA:          -6.448
REMARK INTER:                  -6.298
REMARK INTRA:                  -0.150
REMARK UNBOUND:                -0.140
REMARK  Name = 1550473
REMARK  2 active torsions:
REMARK  status: ('A' for Active; 'I' for Inactive)
REMARK    1  A    between atoms: N_1  and  C_4
REMARK    2  A    between atoms: C_4  and  C_5
REMARK                            x       y       z     vdW  Elec       q    Type
REMARK                         _______ _______ _______ _____ _____    ______ ____
ROOT
ATOM      1  N   UNL     1      12.930   1.088  -2.135  0.00  0.00    -0.354 N 
ATOM      2  N   UNL     1      11.873  -0.858  -2.815  0.00  0.00    -0.372 N 
ATOM      3  N   UNL     1      11.394   1.103  -3.905  0.00  0.00    -0.372 N 
ATOM      4  C   UNL     1      12.071   0.459  -2.949  0.00  0.00    +0.166 C 
ATOM      5  H   UNL     1      13.389   0.549  -1.411  0.00  0.00    +0.163 HD
ATOM      6  H   UNL     1      11.235  -1.361  -3.416  0.00  0.00    +0.159 HD
ATOM      7  H   UNL     1      12.369  -1.403  -2.119  0.00  0.00    +0.159 HD
ATOM      8  H   UNL     1      11.494   2.098  -4.055  0.00  0.00    +0.159 HD
ATOM      9  H   UNL     1      10.741   0.619  -4.510  0.00  0.00    +0.159 HD
ENDROOT
BRANCH   1  10
ATOM     10  C   UNL     1      13.257   2.509  -2.233  0.00  0.00    +0.151 C 
BRANCH  10  11
ATOM     11  C   UNL     1      12.849   3.196  -0.959  0.00  0.00    -0.028 A 
ATOM     12  C   UNL     1      12.604   4.577  -0.942  0.00  0.00    +0.005 A 
ATOM     13  C   UNL     1      12.701   2.471   0.233  0.00  0.00    +0.005 A 
ATOM     14  C   UNL     1      12.197   5.210   0.235  0.00  0.00    +0.000 A 
ATOM     15  C   UNL     1      12.295   3.107   1.406  0.00  0.00    +0.000 A 
ATOM     16  C   UNL     1      12.040   4.476   1.406  0.00  0.00    +0.000 A 
ENDBRANCH  10  11
ENDBRANCH   1  10
TORSDOF 2
ENDMDL
MODEL 3
REMARK VINA RESULT:    -5.503      3.097      4.089
REMARK INTER + INTRA:          -6.286
REMARK INTER:                  -6.135
REMARK INTRA:                  -0.151
REMARK UNBOUND:                -0.140
REMARK  Name = 1550473
REMARK  2 active torsions:
REMARK  status: ('A' for Active; 'I' for Inactive)
REMARK    1  A    between atoms: N_1  and  C_4
REMARK    2  A    between atoms: C_4  and  C_5
REMARK                            x       y       z     vdW  Elec       q    Type
REMARK                         _______ _______ _______ _____ _____    ______ ____
ROOT
ATOM      1  N   UNL     1      -2.052   3.237  -2.415  0.00  0.00    -0.354 N 
ATOM      2  N   UNL     1      -3.409   3.389  -0.545  0.00  0.00    -0.372 N 
ATOM      3  N   UNL     1      -4.312   3.828  -2.608  0.00  0.00    -0.372 N 
ATOM      4  C   UNL     1      -3.251   3.485  -1.870  0.00  0.00    +0.166 C 
ATOM      5  H   UNL     1      -1.280   3.012  -1.799  0.00  0.00    +0.163 HD
ATOM      6  H   UNL     1      -4.302   3.567  -0.105  0.00  0.00    +0.159 HD
ATOM      7  H   UNL     1      -2.647   3.119   0.065  0.00  0.00    +0.159 HD
ATOM      8  H   UNL     1      -4.257   3.923  -3.613  0.00  0.00    +0.159 HD
ATOM      9  H   UNL     1      -5.211   4.020  -2.186  0.00  0.00    +0.159 HD
ENDROOT
BRANCH   1  10
ATOM     10  C   UNL     1      -1.787   3.261  -3.853  0.00  0.00    +0.151 C 
BRANCH  10  11
ATOM     11  C   UNL     1      -1.396   1.881  -4.303  0.00  0.00    -0.028 A 
ATOM     12  C   UNL     1      -1.465   1.528  -5.659  0.00  0.00    +0.005 A 
ATOM     13  C   UNL     1      -0.951   0.922  -3.380  0.00  0.00    +0.005 A 
ATOM     14  C   UNL     1      -1.074   0.255  -6.082  0.00  0.00    +0.000 A 
ATOM     15  C   UNL     1      -0.562  -0.348  -3.806  0.00  0.00    +0.000 A 
ATOM     16  C   UNL     1      -0.621  -0.680  -5.157  0.00  0.00    +0.000 A 
ENDBRANCH  10  11
ENDBRANCH   1  10
TORSDOF 2
ENDMDL
MODEL 4
REMARK VINA RESULT:    -5.203     16.314     16.826
REMARK INTER + INTRA:          -5.951
REMARK INTER:                  -5.830
REMARK INTRA:                  -0.122
REMARK UNBOUND:                -0.140
REMARK  Name = 1550473
REMARK  2 active torsions:
REMARK  status: ('A' for Active; 'I' for Inactive)
REMARK    1  A    between atoms: N_1  and  C_4
REMARK    2  A    between atoms: C_4  and  C_5
REMARK                            x       y       z     vdW  Elec       q    Type
REMARK                         _______ _______ _______ _____ _____    ______ ____
ROOT
ATOM      1  N   UNL     1      13.371   0.327   1.271  0.00  0.00    -0.354 N 
ATOM      2  N   UNL     1      13.820  -1.308   2.848  0.00  0.00    -0.372 N 
ATOM      3  N   UNL     1      13.392  -1.942   0.685  0.00  0.00    -0.372 N 
ATOM      4  C   UNL     1      13.524  -0.965   1.589  0.00  0.00    +0.166 C 
ATOM      5  H   UNL     1      13.454   1.018   2.008  0.00  0.00    +0.163 HD
ATOM      6  H   UNL     1      13.944  -2.275   3.117  0.00  0.00    +0.159 HD
ATOM      7  H   UNL     1      13.948  -0.613   3.574  0.00  0.00    +0.159 HD
ATOM      8  H   UNL     1      13.163  -1.750  -0.281  0.00  0.00    +0.159 HD
ATOM      9  H   UNL     1      13.501  -2.916   0.937  0.00  0.00    +0.159 HD
ENDROOT
BRANCH   1  10
ATOM     10  C   UNL     1      13.101   0.810  -0.082  0.00  0.00    +0.151 C 
BRANCH  10  11
ATOM     11  C   UNL     1      12.782   2.278  -0.026  0.00  0.00    -0.028 A 
ATOM     12  C   UNL     1      12.316   2.860   1.163  0.00  0.00    +0.005 A 
ATOM     13  C   UNL     1      12.948   3.095  -1.155  0.00  0.00    +0.005 A 
ATOM     14  C   UNL     1      12.047   4.230   1.224  0.00  0.00    +0.000 A 
ATOM     15  C   UNL     1      12.678   4.461  -1.089  0.00  0.00    +0.000 A 
ATOM     16  C   UNL     1      12.230   5.029   0.101  0.00  0.00    +0.000 A 
ENDBRANCH  10  11
ENDBRANCH   1  10
TORSDOF 2
ENDMDL
MODEL 5
REMARK VINA RESULT:    -5.173     10.059     11.001
REMARK INTER + INTRA:          -5.918
REMARK INTER:                  -5.778
REMARK INTRA:                  -0.139
REMARK UNBOUND:                -0.140
REMARK  Name = 1550473
REMARK  2 active torsions:
REMARK  status: ('A' for Active; 'I' for Inactive)
REMARK    1  A    between atoms: N_1  and  C_4
REMARK    2  A    between atoms: C_4  and  C_5
REMARK                            x       y       z     vdW  Elec       q    Type
REMARK                         _______ _______ _______ _____ _____    ______ ____
ROOT
ATOM      1  N   UNL     1       1.061  -4.316 -10.196  0.00  0.00    -0.354 N 
ATOM      2  N   UNL     1       2.752  -5.763 -10.839  0.00  0.00    -0.372 N 
ATOM      3  N   UNL     1       3.300  -3.865  -9.671  0.00  0.00    -0.372 N 
ATOM      4  C   UNL     1       2.361  -4.637 -10.230  0.00  0.00    +0.166 C 
ATOM      5  H   UNL     1       0.402  -4.928 -10.665  0.00  0.00    +0.163 HD
ATOM      6  H   UNL     1       3.726  -6.032 -10.878  0.00  0.00    +0.159 HD
ATOM      7  H   UNL     1       2.087  -6.395 -11.267  0.00  0.00    +0.159 HD
ATOM      8  H   UNL     1       3.071  -2.999  -9.202  0.00  0.00    +0.159 HD
ATOM      9  H   UNL     1       4.281  -4.112  -9.710  0.00  0.00    +0.159 HD
ENDROOT
BRANCH   1  10
ATOM     10  C   UNL     1       0.526  -3.140  -9.512  0.00  0.00    +0.151 C 
BRANCH  10  11
ATOM     11  C   UNL     1      -0.358  -3.589  -8.381  0.00  0.00    -0.028 A 
ATOM     12  C   UNL     1      -0.700  -4.942  -8.239  0.00  0.00    +0.005 A 
ATOM     13  C   UNL     1      -0.851  -2.668  -7.445  0.00  0.00    +0.005 A 
ATOM     14  C   UNL     1      -1.496  -5.364  -7.172  0.00  0.00    +0.000 A 
ATOM     15  C   UNL     1      -1.647  -3.093  -6.381  0.00  0.00    +0.000 A 
ATOM     16  C   UNL     1      -1.967  -4.441  -6.243  0.00  0.00    +0.000 A 
ENDBRANCH  10  11
ENDBRANCH   1  10
TORSDOF 2
ENDMDL
MODEL 6
REMARK VINA RESULT:    -5.166     22.903     23.878
REMARK INTER + INTRA:          -5.910
REMARK INTER:                  -5.786
REMARK INTRA:                  -0.124
REMARK UNBOUND:                -0.140
REMARK  Name = 1550473
REMARK  2 active torsions:
REMARK  status: ('A' for Active; 'I' for Inactive)
REMARK    1  A    between atoms: N_1  and  C_4
REMARK    2  A    between atoms: C_4  and  C_5
REMARK                            x       y       z     vdW  Elec       q    Type
REMARK                         _______ _______ _______ _____ _____    ______ ____
ROOT
ATOM      1  N   UNL     1      15.298  14.851   3.314  0.00  0.00    -0.354 N 
ATOM      2  N   UNL     1      14.131  16.264   1.897  0.00  0.00    -0.372 N 
ATOM      3  N   UNL     1      13.092  14.375   2.683  0.00  0.00    -0.372 N 
ATOM      4  C   UNL     1      14.179  15.152   2.641  0.00  0.00    +0.166 C 
ATOM      5  H   UNL     1      16.098  15.465   3.216  0.00  0.00    +0.163 HD
ATOM      6  H   UNL     1      13.299  16.519   1.381  0.00  0.00    +0.159 HD
ATOM      7  H   UNL     1      14.917  16.900   1.838  0.00  0.00    +0.159 HD
ATOM      8  H   UNL     1      13.065  13.519   3.221  0.00  0.00    +0.159 HD
ATOM      9  H   UNL     1      12.254  14.607   2.164  0.00  0.00    +0.159 HD
ENDROOT
BRANCH   1  10
ATOM     10  C   UNL     1      15.436  13.693   4.194  0.00  0.00    +0.151 C 
BRANCH  10  11
ATOM     11  C   UNL     1      16.888  13.506   4.537  0.00  0.00    -0.028 A 
ATOM     12  C   UNL     1      17.848  14.426   4.092  0.00  0.00    +0.005 A 
ATOM     13  C   UNL     1      17.310  12.415   5.312  0.00  0.00    +0.005 A 
ATOM     14  C   UNL     1      19.194  14.270   4.435  0.00  0.00    +0.000 A 
ATOM     15  C   UNL     1      18.654  12.262   5.652  0.00  0.00    +0.000 A 
ATOM     16  C   UNL     1      19.595  13.191   5.215  0.00  0.00    +0.000 A 
ENDBRANCH  10  11
ENDBRANCH   1  10
TORSDOF 2
ENDMDL
MODEL 7
REMARK VINA RESULT:    -5.129     16.168     17.239
REMARK INTER + INTRA:          -5.869
REMARK INTER:                  -5.701
REMARK INTRA:                  -0.167
REMARK UNBOUND:                -0.140
REMARK  Name = 1550473
REMARK  2 active torsions:
REMARK  status: ('A' for Active; 'I' for Inactive)
REMARK    1  A    between atoms: N_1  and  C_4
REMARK    2  A    between atoms: C_4  and  C_5
REMARK                            x       y       z     vdW  Elec       q    Type
REMARK                         _______ _______ _______ _____ _____    ______ ____
ROOT
ATOM      1  N   UNL     1      14.284   3.651  -2.003  0.00  0.00    -0.354 N 
ATOM      2  N   UNL     1      16.541   4.024  -1.642  0.00  0.00    -0.372 N 
ATOM      3  N   UNL     1      15.144   3.838   0.168  0.00  0.00    -0.372 N 
ATOM      4  C   UNL     1      15.307   3.836  -1.159  0.00  0.00    +0.166 C 
ATOM      5  H   UNL     1      14.468   3.690  -2.999  0.00  0.00    +0.163 HD
ATOM      6  H   UNL     1      17.333   4.162  -1.030  0.00  0.00    +0.159 HD
ATOM      7  H   UNL     1      16.730   4.017  -2.637  0.00  0.00    +0.159 HD
ATOM      8  H   UNL     1      14.237   3.708   0.597  0.00  0.00    +0.159 HD
ATOM      9  H   UNL     1      15.923   3.987   0.798  0.00  0.00    +0.159 HD
ENDROOT
BRANCH   1  10
ATOM     10  C   UNL     1      12.911   3.384  -1.578  0.00  0.00    +0.151 C 
BRANCH  10  11
ATOM     11  C   UNL     1      12.606   1.927  -1.788  0.00  0.00    -0.028 A 
ATOM     12  C   UNL     1      12.979   0.976  -0.827  0.00  0.00    +0.005 A 
ATOM     13  C   UNL     1      11.939   1.491  -2.944  0.00  0.00    +0.005 A 
ATOM     14  C   UNL     1      12.670  -0.375  -1.008  0.00  0.00    +0.000 A 
ATOM     15  C   UNL     1      11.633   0.142  -3.121  0.00  0.00    +0.000 A 
ATOM     16  C   UNL     1      11.996  -0.790  -2.152  0.00  0.00    +0.000 A 
ENDBRANCH  10  11
ENDBRANCH   1  10
TORSDOF 2
ENDMDL
MODEL 8
REMARK VINA RESULT:    -5.011     15.958     16.817
REMARK INTER + INTRA:          -5.737
REMARK INTER:                  -5.565
REMARK INTRA:                  -0.171
REMARK UNBOUND:                -0.140
REMARK  Name = 1550473
REMARK  2 active torsions:
REMARK  status: ('A' for Active; 'I' for Inactive)
REMARK    1  A    between atoms: N_1  and  C_4
REMARK    2  A    between atoms: C_4  and  C_5
REMARK                            x       y       z     vdW  Elec       q    Type
REMARK                         _______ _______ _______ _____ _____    ______ ____
ROOT
ATOM      1  N   UNL     1      12.880   0.263   0.320  0.00  0.00    -0.354 N 
ATOM      2  N   UNL     1      12.340  -1.505  -1.075  0.00  0.00    -0.372 N 
ATOM      3  N   UNL     1      14.349  -0.436  -1.367  0.00  0.00    -0.372 N 
ATOM      4  C   UNL     1      13.196  -0.547  -0.700  0.00  0.00    +0.166 C 
ATOM      5  H   UNL     1      11.977   0.147   0.765  0.00  0.00    +0.163 HD
ATOM      6  H   UNL     1      12.553  -2.133  -1.839  0.00  0.00    +0.159 HD
ATOM      7  H   UNL     1      11.458  -1.649  -0.599  0.00  0.00    +0.159 HD
ATOM      8  H   UNL     1      15.035   0.271  -1.137  0.00  0.00    +0.159 HD
ATOM      9  H   UNL     1      14.575  -1.047  -2.141  0.00  0.00    +0.159 HD
ENDROOT
BRANCH   1  10
ATOM     10  C   UNL     1      13.765   1.303   0.842  0.00  0.00    +0.151 C 
BRANCH  10  11
ATOM     11  C   UNL     1      13.195   2.651   0.496  0.00  0.00    -0.028 A 
ATOM     12  C   UNL     1      13.385   3.198  -0.782  0.00  0.00    +0.005 A 
ATOM     13  C   UNL     1      12.460   3.385   1.440  0.00  0.00    +0.005 A 
ATOM     14  C   UNL     1      12.831   4.436  -1.113  0.00  0.00    +0.000 A 
ATOM     15  C   UNL     1      11.910   4.622   1.105  0.00  0.00    +0.000 A 
ATOM     16  C   UNL     1      12.093   5.146  -0.172  0.00  0.00    +0.000 A 
ENDBRANCH  10  11
ENDBRANCH   1  10
TORSDOF 2
ENDMDL
MODEL 9
REMARK VINA RESULT:    -4.996     16.049     17.261
REMARK INTER + INTRA:          -5.720
REMARK INTER:                  -5.626
REMARK INTRA:                  -0.094
REMARK UNBOUND:                -0.140
REMARK  Name = 1550473
REMARK  2 active torsions:
REMARK  status: ('A' for Active; 'I' for Inactive)
REMARK    1  A    between atoms: N_1  and  C_4
REMARK    2  A    between atoms: C_4  and  C_5
REMARK                            x       y       z     vdW  Elec       q    Type
REMARK                         _______ _______ _______ _____ _____    ______ ____
ROOT
ATOM      1  N   UNL     1      13.027  -1.959   1.692  0.00  0.00    -0.354 N 
ATOM      2  N   UNL     1      12.346  -2.876   3.707  0.00  0.00    -0.372 N 
ATOM      3  N   UNL     1      14.561  -2.352   3.420  0.00  0.00    -0.372 N 
ATOM      4  C   UNL     1      13.319  -2.390   2.927  0.00  0.00    +0.166 C 
ATOM      5  H   UNL     1      12.071  -2.043   1.366  0.00  0.00    +0.163 HD
ATOM      6  H   UNL     1      12.535  -3.205   4.644  0.00  0.00    +0.159 HD
ATOM      7  H   UNL     1      11.383  -2.916   3.396  0.00  0.00    +0.159 HD
ATOM      8  H   UNL     1      15.341  -2.002   2.880  0.00  0.00    +0.159 HD
ATOM      9  H   UNL     1      14.772  -2.687   4.351  0.00  0.00    +0.159 HD
ENDROOT
BRANCH   1  10
ATOM     10  C   UNL     1      14.004  -1.362   0.783  0.00  0.00    +0.151 C 
BRANCH  10  11
ATOM     11  C   UNL     1      13.276  -0.571  -0.269  0.00  0.00    -0.028 A 
ATOM     12  C   UNL     1      12.697  -1.217  -1.372  0.00  0.00    +0.005 A 
ATOM     13  C   UNL     1      13.157   0.823  -0.166  0.00  0.00    +0.005 A 
ATOM     14  C   UNL     1      11.995  -0.486  -2.333  0.00  0.00    +0.000 A 
ATOM     15  C   UNL     1      12.456   1.549  -1.129  0.00  0.00    +0.000 A 
ATOM     16  C   UNL     1      11.873   0.894  -2.211  0.00  0.00    +0.000 A 
ENDBRANCH  10  11
ENDBRANCH   1  10
TORSDOF 2
ENDMDL
