MODEL 1
REMARK VINA RESULT:    -5.267      0.000      0.000
REMARK INTER + INTRA:          -6.009
REMARK INTER:                  -5.883
REMARK INTRA:                  -0.126
REMARK UNBOUND:                -0.126
REMARK  Name = 1550473
REMARK  2 active torsions:
REMARK  status: ('A' for Active; 'I' for Inactive)
REMARK    1  A    between atoms: N_1  and  C_4
REMARK    2  A    between atoms: C_4  and  C_5
REMARK                            x       y       z     vdW  Elec       q    Type
REMARK                         _______ _______ _______ _____ _____    ______ ____
ROOT
ATOM      1  N   UNL     1      -6.684 -12.374 -24.858  0.00  0.00    -0.354 N 
ATOM      2  N   UNL     1      -7.504 -11.644 -22.819  0.00  0.00    -0.372 N 
ATOM      3  N   UNL     1      -8.340 -13.581 -23.722  0.00  0.00    -0.372 N 
ATOM      4  C   UNL     1      -7.506 -12.540 -23.814  0.00  0.00    +0.166 C 
ATOM      5  H   UNL     1      -6.097 -11.548 -24.883  0.00  0.00    +0.163 HD
ATOM      6  H   UNL     1      -8.111 -11.744 -22.016  0.00  0.00    +0.159 HD
ATOM      7  H   UNL     1      -6.884 -10.843 -22.824  0.00  0.00    +0.159 HD
ATOM      8  H   UNL     1      -8.394 -14.289 -24.441  0.00  0.00    +0.159 HD
ATOM      9  H   UNL     1      -8.963 -13.693 -22.932  0.00  0.00    +0.159 HD
ENDROOT
BRANCH   1  10
ATOM     10  C   UNL     1      -6.569 -13.320 -25.967  0.00  0.00    +0.151 C 
BRANCH  10  11
ATOM     11  C   UNL     1      -6.194 -12.570 -27.216  0.00  0.00    -0.028 A 
ATOM     12  C   UNL     1      -5.599 -11.303 -27.133  0.00  0.00    +0.005 A 
ATOM     13  C   UNL     1      -6.426 -13.124 -28.484  0.00  0.00    +0.005 A 
ATOM     14  C   UNL     1      -5.223 -10.619 -28.292  0.00  0.00    +0.000 A 
ATOM     15  C   UNL     1      -6.049 -12.438 -29.638  0.00  0.00    +0.000 A 
ATOM     16  C   UNL     1      -5.446 -11.187 -29.542  0.00  0.00    +0.000 A 
ENDBRANCH  10  11
ENDBRANCH   1  10
TORSDOF 2
ENDMDL
MODEL 2
REMARK VINA RESULT:    -5.258      9.027      9.834
REMARK INTER + INTRA:          -5.999
REMARK INTER:                  -5.819
REMARK INTRA:                  -0.180
REMARK UNBOUND:                -0.126
REMARK  Name = 1550473
REMARK  2 active torsions:
REMARK  status: ('A' for Active; 'I' for Inactive)
REMARK    1  A    between atoms: N_1  and  C_4
REMARK    2  A    between atoms: C_4  and  C_5
REMARK                            x       y       z     vdW  Elec       q    Type
REMARK                         _______ _______ _______ _____ _____    ______ ____
ROOT
ATOM      1  N   UNL     1     -14.378 -11.268 -32.038  0.00  0.00    -0.354 N 
ATOM      2  N   UNL     1     -14.945 -10.126 -33.972  0.00  0.00    -0.372 N 
ATOM      3  N   UNL     1     -12.789  -9.994 -33.197  0.00  0.00    -0.372 N 
ATOM      4  C   UNL     1     -14.031 -10.469 -33.056  0.00  0.00    +0.166 C 
ATOM      5  H   UNL     1     -15.343 -11.570 -31.971  0.00  0.00    +0.163 HD
ATOM      6  H   UNL     1     -14.711  -9.528 -34.753  0.00  0.00    +0.159 HD
ATOM      7  H   UNL     1     -15.897 -10.467 -33.928  0.00  0.00    +0.159 HD
ATOM      8  H   UNL     1     -12.055 -10.210 -32.536  0.00  0.00    +0.159 HD
ATOM      9  H   UNL     1     -12.539  -9.384 -33.965  0.00  0.00    +0.159 HD
ENDROOT
BRANCH   1  10
ATOM     10  C   UNL     1     -13.446 -11.744 -31.017  0.00  0.00    +0.151 C 
BRANCH  10  11
ATOM     11  C   UNL     1     -13.664 -10.963 -29.750  0.00  0.00    -0.028 A 
ATOM     12  C   UNL     1     -14.800 -11.191 -28.960  0.00  0.00    +0.005 A 
ATOM     13  C   UNL     1     -12.735  -9.997 -29.333  0.00  0.00    +0.005 A 
ATOM     14  C   UNL     1     -14.987 -10.487 -27.768  0.00  0.00    +0.000 A 
ATOM     15  C   UNL     1     -12.927  -9.296 -28.142  0.00  0.00    +0.000 A 
ATOM     16  C   UNL     1     -14.052  -9.543 -27.359  0.00  0.00    +0.000 A 
ENDBRANCH  10  11
ENDBRANCH   1  10
TORSDOF 2
ENDMDL
MODEL 3
REMARK VINA RESULT:    -5.104     25.118     26.589
REMARK INTER + INTRA:          -5.827
REMARK INTER:                  -5.686
REMARK INTRA:                  -0.141
REMARK UNBOUND:                -0.126
REMARK  Name = 1550473
REMARK  2 active torsions:
REMARK  status: ('A' for Active; 'I' for Inactive)
REMARK    1  A    between atoms: N_1  and  C_4
REMARK    2  A    between atoms: C_4  and  C_5
REMARK                            x       y       z     vdW  Elec       q    Type
REMARK                         _______ _______ _______ _____ _____    ______ ____
ROOT
ATOM      1  N   UNL     1     -11.300  -5.368  -2.735  0.00  0.00    -0.354 N 
ATOM      2  N   UNL     1     -12.633  -4.555  -4.445  0.00  0.00    -0.372 N 
ATOM      3  N   UNL     1     -12.797  -3.603  -2.364  0.00  0.00    -0.372 N 
ATOM      4  C   UNL     1     -12.236  -4.512  -3.168  0.00  0.00    +0.166 C 
ATOM      5  H   UNL     1     -10.936  -6.053  -3.387  0.00  0.00    +0.163 HD
ATOM      6  H   UNL     1     -13.335  -3.920  -4.802  0.00  0.00    +0.159 HD
ATOM      7  H   UNL     1     -12.234  -5.210  -5.106  0.00  0.00    +0.159 HD
ATOM      8  H   UNL     1     -12.545  -3.524  -1.388  0.00  0.00    +0.159 HD
ATOM      9  H   UNL     1     -13.510  -2.967  -2.699  0.00  0.00    +0.159 HD
ENDROOT
BRANCH   1  10
ATOM     10  C   UNL     1     -10.760  -5.369  -1.377  0.00  0.00    +0.151 C 
BRANCH  10  11
ATOM     11  C   UNL     1     -10.875  -6.754  -0.803  0.00  0.00    -0.028 A 
ATOM     12  C   UNL     1      -9.749  -7.586  -0.717  0.00  0.00    +0.005 A 
ATOM     13  C   UNL     1     -12.108  -7.239  -0.338  0.00  0.00    +0.005 A 
ATOM     14  C   UNL     1      -9.850  -8.862  -0.157  0.00  0.00    +0.000 A 
ATOM     15  C   UNL     1     -12.205  -8.514   0.220  0.00  0.00    +0.000 A 
ATOM     16  C   UNL     1     -11.075  -9.324   0.313  0.00  0.00    +0.000 A 
ENDBRANCH  10  11
ENDBRANCH   1  10
TORSDOF 2
ENDMDL
MODEL 4
REMARK VINA RESULT:    -4.987     32.245     33.455
REMARK INTER + INTRA:          -5.696
REMARK INTER:                  -5.523
REMARK INTRA:                  -0.173
REMARK UNBOUND:                -0.126
REMARK  Name = 1550473
REMARK  2 active torsions:
REMARK  status: ('A' for Active; 'I' for Inactive)
REMARK    1  A    between atoms: N_1  and  C_4
REMARK    2  A    between atoms: C_4  and  C_5
REMARK                            x       y       z     vdW  Elec       q    Type
REMARK                         _______ _______ _______ _____ _____    ______ ____
ROOT
ATOM      1  N   UNL     1      12.206   2.384  -5.857  0.00  0.00    -0.354 N 
ATOM      2  N   UNL     1       9.891   2.382  -5.793  0.00  0.00    -0.372 N 
ATOM      3  N   UNL     1      11.053   1.788  -3.906  0.00  0.00    -0.372 N 
ATOM      4  C   UNL     1      11.066   2.184  -5.183  0.00  0.00    +0.166 C 
ATOM      5  H   UNL     1      12.147   2.655  -6.833  0.00  0.00    +0.163 HD
ATOM      6  H   UNL     1       9.014   2.242  -5.309  0.00  0.00    +0.159 HD
ATOM      7  H   UNL     1       9.836   2.697  -6.754  0.00  0.00    +0.159 HD
ATOM      8  H   UNL     1      11.906   1.616  -3.391  0.00  0.00    +0.159 HD
ATOM      9  H   UNL     1      10.186   1.632  -3.408  0.00  0.00    +0.159 HD
ENDROOT
BRANCH   1  10
ATOM     10  C   UNL     1      13.538   2.249  -5.270  0.00  0.00    +0.151 C 
BRANCH  10  11
ATOM     11  C   UNL     1      14.053   3.612  -4.900  0.00  0.00    -0.028 A 
ATOM     12  C   UNL     1      14.635   3.836  -3.644  0.00  0.00    +0.005 A 
ATOM     13  C   UNL     1      13.967   4.683  -5.803  0.00  0.00    +0.005 A 
ATOM     14  C   UNL     1      15.141   5.095  -3.311  0.00  0.00    +0.000 A 
ATOM     15  C   UNL     1      14.472   5.938  -5.466  0.00  0.00    +0.000 A 
ATOM     16  C   UNL     1      15.061   6.143  -4.221  0.00  0.00    +0.000 A 
ENDBRANCH  10  11
ENDBRANCH   1  10
TORSDOF 2
ENDMDL
MODEL 5
REMARK VINA RESULT:    -4.676     49.325     50.588
REMARK INTER + INTRA:          -5.348
REMARK INTER:                  -5.337
REMARK INTRA:                  -0.011
REMARK UNBOUND:                -0.126
REMARK  Name = 1550473
REMARK  2 active torsions:
REMARK  status: ('A' for Active; 'I' for Inactive)
REMARK    1  A    between atoms: N_1  and  C_4
REMARK    2  A    between atoms: C_4  and  C_5
REMARK                            x       y       z     vdW  Elec       q    Type
REMARK                         _______ _______ _______ _____ _____    ______ ____
ROOT
ATOM      1  N   UNL     1       9.864   4.095  17.670  0.00  0.00    -0.354 N 
ATOM      2  N   UNL     1      10.889   4.130  15.594  0.00  0.00    -0.372 N 
ATOM      3  N   UNL     1      11.230   5.888  17.029  0.00  0.00    -0.372 N 
ATOM      4  C   UNL     1      10.655   4.706  16.779  0.00  0.00    +0.166 C 
ATOM      5  H   UNL     1       9.434   3.215  17.408  0.00  0.00    +0.163 HD
ATOM      6  H   UNL     1      11.485   4.566  14.903  0.00  0.00    +0.159 HD
ATOM      7  H   UNL     1      10.495   3.229  15.352  0.00  0.00    +0.159 HD
ATOM      8  H   UNL     1      11.089   6.378  17.902  0.00  0.00    +0.159 HD
ATOM      9  H   UNL     1      11.820   6.346  16.345  0.00  0.00    +0.159 HD
ENDROOT
BRANCH   1  10
ATOM     10  C   UNL     1       9.589   4.612  19.010  0.00  0.00    +0.151 C 
BRANCH  10  11
ATOM     11  C   UNL     1       8.355   5.470  18.961  0.00  0.00    -0.028 A 
ATOM     12  C   UNL     1       8.043   6.329  20.025  0.00  0.00    +0.005 A 
ATOM     13  C   UNL     1       7.497   5.432  17.851  0.00  0.00    +0.005 A 
ATOM     14  C   UNL     1       6.913   7.148  19.967  0.00  0.00    +0.000 A 
ATOM     15  C   UNL     1       6.369   6.251  17.798  0.00  0.00    +0.000 A 
ATOM     16  C   UNL     1       6.079   7.111  18.854  0.00  0.00    +0.000 A 
ENDBRANCH  10  11
ENDBRANCH   1  10
TORSDOF 2
ENDMDL
MODEL 6
REMARK VINA RESULT:    -4.673     49.596     50.198
REMARK INTER + INTRA:          -5.345
REMARK INTER:                  -5.226
REMARK INTRA:                  -0.120
REMARK UNBOUND:                -0.126
REMARK  Name = 1550473
REMARK  2 active torsions:
REMARK  status: ('A' for Active; 'I' for Inactive)
REMARK    1  A    between atoms: N_1  and  C_4
REMARK    2  A    between atoms: C_4  and  C_5
REMARK                            x       y       z     vdW  Elec       q    Type
REMARK                         _______ _______ _______ _____ _____    ______ ____
ROOT
ATOM      1  N   UNL     1       5.773   7.193  17.569  0.00  0.00    -0.354 N 
ATOM      2  N   UNL     1       4.664   9.169  17.091  0.00  0.00    -0.372 N 
ATOM      3  N   UNL     1       6.835   8.919  16.393  0.00  0.00    -0.372 N 
ATOM      4  C   UNL     1       5.767   8.415  17.020  0.00  0.00    +0.166 C 
ATOM      5  H   UNL     1       4.941   6.880  18.056  0.00  0.00    +0.163 HD
ATOM      6  H   UNL     1       4.629  10.094  16.684  0.00  0.00    +0.159 HD
ATOM      7  H   UNL     1       3.819   8.836  17.539  0.00  0.00    +0.159 HD
ATOM      8  H   UNL     1       7.701   8.403  16.310  0.00  0.00    +0.159 HD
ATOM      9  H   UNL     1       6.823   9.847  15.989  0.00  0.00    +0.159 HD
ENDROOT
BRANCH   1  10
ATOM     10  C   UNL     1       6.905   6.270  17.499  0.00  0.00    +0.151 C 
BRANCH  10  11
ATOM     11  C   UNL     1       6.661   5.121  18.437  0.00  0.00    -0.028 A 
ATOM     12  C   UNL     1       7.234   3.865  18.190  0.00  0.00    +0.005 A 
ATOM     13  C   UNL     1       5.861   5.283  19.580  0.00  0.00    +0.005 A 
ATOM     14  C   UNL     1       7.032   2.805  19.077  0.00  0.00    +0.000 A 
ATOM     15  C   UNL     1       5.661   4.222  20.463  0.00  0.00    +0.000 A 
ATOM     16  C   UNL     1       6.248   2.984  20.212  0.00  0.00    +0.000 A 
ENDBRANCH  10  11
ENDBRANCH   1  10
TORSDOF 2
ENDMDL
MODEL 7
REMARK VINA RESULT:    -4.620     33.160     34.363
REMARK INTER + INTRA:          -5.285
REMARK INTER:                  -5.130
REMARK INTRA:                  -0.155
REMARK UNBOUND:                -0.126
REMARK  Name = 1550473
REMARK  2 active torsions:
REMARK  status: ('A' for Active; 'I' for Inactive)
REMARK    1  A    between atoms: N_1  and  C_4
REMARK    2  A    between atoms: C_4  and  C_5
REMARK                            x       y       z     vdW  Elec       q    Type
REMARK                         _______ _______ _______ _____ _____    ______ ____
ROOT
ATOM      1  N   UNL     1      14.744   4.783  -7.009  0.00  0.00    -0.354 N 
ATOM      2  N   UNL     1      16.225   4.337  -8.732  0.00  0.00    -0.372 N 
ATOM      3  N   UNL     1      16.970   5.507  -6.904  0.00  0.00    -0.372 N 
ATOM      4  C   UNL     1      15.972   4.880  -7.535  0.00  0.00    +0.166 C 
ATOM      5  H   UNL     1      14.023   4.321  -7.551  0.00  0.00    +0.163 HD
ATOM      6  H   UNL     1      17.143   4.392  -9.154  0.00  0.00    +0.159 HD
ATOM      7  H   UNL     1      15.515   3.837  -9.252  0.00  0.00    +0.159 HD
ATOM      8  H   UNL     1      16.843   5.943  -6.001  0.00  0.00    +0.159 HD
ATOM      9  H   UNL     1      17.893   5.582  -7.315  0.00  0.00    +0.159 HD
ENDROOT
BRANCH   1  10
ATOM     10  C   UNL     1      14.378   5.293  -5.688  0.00  0.00    +0.151 C 
BRANCH  10  11
ATOM     11  C   UNL     1      14.110   4.132  -4.771  0.00  0.00    -0.028 A 
ATOM     12  C   UNL     1      13.204   3.127  -5.139  0.00  0.00    +0.005 A 
ATOM     13  C   UNL     1      14.764   4.028  -3.533  0.00  0.00    +0.005 A 
ATOM     14  C   UNL     1      12.978   2.033  -4.300  0.00  0.00    +0.000 A 
ATOM     15  C   UNL     1      14.535   2.935  -2.698  0.00  0.00    +0.000 A 
ATOM     16  C   UNL     1      13.644   1.936  -3.083  0.00  0.00    +0.000 A 
ENDBRANCH  10  11
ENDBRANCH   1  10
TORSDOF 2
ENDMDL
MODEL 8
REMARK VINA RESULT:    -4.608     20.312     22.394
REMARK INTER + INTRA:          -5.272
REMARK INTER:                  -5.151
REMARK INTRA:                  -0.121
REMARK UNBOUND:                -0.126
REMARK  Name = 1550473
REMARK  2 active torsions:
REMARK  status: ('A' for Active; 'I' for Inactive)
REMARK    1  A    between atoms: N_1  and  C_4
REMARK    2  A    between atoms: C_4  and  C_5
REMARK                            x       y       z     vdW  Elec       q    Type
REMARK                         _______ _______ _______ _____ _____    ______ ____
ROOT
ATOM      1  N   UNL     1      -2.894  -6.015  -6.400  0.00  0.00    -0.354 N 
ATOM      2  N   UNL     1      -1.550  -4.670  -7.723  0.00  0.00    -0.372 N 
ATOM      3  N   UNL     1      -3.285  -5.809  -8.702  0.00  0.00    -0.372 N 
ATOM      4  C   UNL     1      -2.587  -5.508  -7.602  0.00  0.00    +0.166 C 
ATOM      5  H   UNL     1      -2.307  -5.772  -5.611  0.00  0.00    +0.163 HD
ATOM      6  H   UNL     1      -1.296  -4.269  -8.616  0.00  0.00    +0.159 HD
ATOM      7  H   UNL     1      -0.993  -4.393  -6.924  0.00  0.00    +0.159 HD
ATOM      8  H   UNL     1      -4.075  -6.440  -8.679  0.00  0.00    +0.159 HD
ATOM      9  H   UNL     1      -3.039  -5.427  -9.606  0.00  0.00    +0.159 HD
ENDROOT
BRANCH   1  10
ATOM     10  C   UNL     1      -4.036  -6.894  -6.151  0.00  0.00    +0.151 C 
BRANCH  10  11
ATOM     11  C   UNL     1      -3.718  -7.794  -4.989  0.00  0.00    -0.028 A 
ATOM     12  C   UNL     1      -2.836  -7.374  -3.983  0.00  0.00    +0.005 A 
ATOM     13  C   UNL     1      -4.301  -9.067  -4.886  0.00  0.00    +0.005 A 
ATOM     14  C   UNL     1      -2.565  -8.198  -2.888  0.00  0.00    +0.000 A 
ATOM     15  C   UNL     1      -4.026  -9.887  -3.792  0.00  0.00    +0.000 A 
ATOM     16  C   UNL     1      -3.160  -9.451  -2.792  0.00  0.00    +0.000 A 
ENDBRANCH  10  11
ENDBRANCH   1  10
TORSDOF 2
ENDMDL
MODEL 9
REMARK VINA RESULT:    -4.538     22.215     23.393
REMARK INTER + INTRA:          -5.194
REMARK INTER:                  -5.076
REMARK INTRA:                  -0.118
REMARK UNBOUND:                -0.126
REMARK  Name = 1550473
REMARK  2 active torsions:
REMARK  status: ('A' for Active; 'I' for Inactive)
REMARK    1  A    between atoms: N_1  and  C_4
REMARK    2  A    between atoms: C_4  and  C_5
REMARK                            x       y       z     vdW  Elec       q    Type
REMARK                         _______ _______ _______ _____ _____    ______ ____
ROOT
ATOM      1  N   UNL     1      -3.182 -17.778  -4.097  0.00  0.00    -0.354 N 
ATOM      2  N   UNL     1      -5.255 -18.300  -3.205  0.00  0.00    -0.372 N 
ATOM      3  N   UNL     1      -5.056 -18.050  -5.477  0.00  0.00    -0.372 N 
ATOM      4  C   UNL     1      -4.485 -18.039  -4.268  0.00  0.00    +0.166 C 
ATOM      5  H   UNL     1      -2.816 -17.755  -3.152  0.00  0.00    +0.163 HD
ATOM      6  H   UNL     1      -6.240 -18.504  -3.303  0.00  0.00    +0.159 HD
ATOM      7  H   UNL     1      -4.877 -18.321  -2.266  0.00  0.00    +0.159 HD
ATOM      8  H   UNL     1      -4.531 -17.855  -6.319  0.00  0.00    +0.159 HD
ATOM      9  H   UNL     1      -6.043 -18.240  -5.595  0.00  0.00    +0.159 HD
ENDROOT
BRANCH   1  10
ATOM     10  C   UNL     1      -2.246 -17.534  -5.192  0.00  0.00    +0.151 C 
BRANCH  10  11
ATOM     11  C   UNL     1      -1.044 -16.805  -4.658  0.00  0.00    -0.028 A 
ATOM     12  C   UNL     1      -0.655 -16.957  -3.319  0.00  0.00    +0.005 A 
ATOM     13  C   UNL     1      -0.286 -15.964  -5.488  0.00  0.00    +0.005 A 
ATOM     14  C   UNL     1       0.479 -16.304  -2.831  0.00  0.00    +0.000 A 
ATOM     15  C   UNL     1       0.845 -15.312  -4.996  0.00  0.00    +0.000 A 
ATOM     16  C   UNL     1       1.229 -15.485  -3.668  0.00  0.00    +0.000 A 
ENDBRANCH  10  11
ENDBRANCH   1  10
TORSDOF 2
ENDMDL
