MODEL 1
REMARK VINA RESULT:    -5.925      0.000      0.000
REMARK INTER + INTRA:          -6.730
REMARK INTER:                  -6.618
REMARK INTRA:                  -0.112
REMARK UNBOUND:                -0.112
REMARK  Name = 1550473
REMARK  2 active torsions:
REMARK  status: ('A' for Active; 'I' for Inactive)
REMARK    1  A    between atoms: N_1  and  C_4
REMARK    2  A    between atoms: C_4  and  C_5
REMARK                            x       y       z     vdW  Elec       q    Type
REMARK                         _______ _______ _______ _____ _____    ______ ____
ROOT
ATOM      1  N   UNL     1      21.281  14.834   1.632  0.00  0.00    -0.354 N 
ATOM      2  N   UNL     1      21.667  16.603   0.188  0.00  0.00    -0.372 N 
ATOM      3  N   UNL     1      21.593  14.473  -0.662  0.00  0.00    -0.372 N 
ATOM      4  C   UNL     1      21.512  15.289   0.394  0.00  0.00    +0.166 C 
ATOM      5  H   UNL     1      21.260  15.501   2.395  0.00  0.00    +0.163 HD
ATOM      6  H   UNL     1      21.839  16.976  -0.735  0.00  0.00    +0.159 HD
ATOM      7  H   UNL     1      21.601  17.272   0.946  0.00  0.00    +0.159 HD
ATOM      8  H   UNL     1      21.491  13.471  -0.573  0.00  0.00    +0.159 HD
ATOM      9  H   UNL     1      21.776  14.826  -1.593  0.00  0.00    +0.159 HD
ENDROOT
BRANCH   1  10
ATOM     10  C   UNL     1      21.043  13.428   1.955  0.00  0.00    +0.151 C 
BRANCH  10  11
ATOM     11  C   UNL     1      20.108  13.345   3.130  0.00  0.00    -0.028 A 
ATOM     12  C   UNL     1      18.762  13.717   2.996  0.00  0.00    +0.005 A 
ATOM     13  C   UNL     1      20.560  12.889   4.378  0.00  0.00    +0.005 A 
ATOM     14  C   UNL     1      17.886  13.612   4.079  0.00  0.00    +0.000 A 
ATOM     15  C   UNL     1      19.682  12.786   5.457  0.00  0.00    +0.000 A 
ATOM     16  C   UNL     1      18.344  13.145   5.306  0.00  0.00    +0.000 A 
ENDBRANCH  10  11
ENDBRANCH   1  10
TORSDOF 2
ENDMDL
MODEL 2
REMARK VINA RESULT:    -4.941      4.092      5.987
REMARK INTER + INTRA:          -5.631
REMARK INTER:                  -5.514
REMARK INTRA:                  -0.117
REMARK UNBOUND:                -0.112
REMARK  Name = 1550473
REMARK  2 active torsions:
REMARK  status: ('A' for Active; 'I' for Inactive)
REMARK    1  A    between atoms: N_1  and  C_4
REMARK    2  A    between atoms: C_4  and  C_5
REMARK                            x       y       z     vdW  Elec       q    Type
REMARK                         _______ _______ _______ _____ _____    ______ ____
ROOT
ATOM      1  N   UNL     1      19.288  11.847   6.537  0.00  0.00    -0.354 N 
ATOM      2  N   UNL     1      17.865  10.656   7.923  0.00  0.00    -0.372 N 
ATOM      3  N   UNL     1      20.096  10.762   8.451  0.00  0.00    -0.372 N 
ATOM      4  C   UNL     1      19.095  11.096   7.630  0.00  0.00    +0.166 C 
ATOM      5  H   UNL     1      18.494  12.040   5.939  0.00  0.00    +0.163 HD
ATOM      6  H   UNL     1      17.688  10.090   8.742  0.00  0.00    +0.159 HD
ATOM      7  H   UNL     1      17.065  10.889   7.348  0.00  0.00    +0.159 HD
ATOM      8  H   UNL     1      21.048  11.057   8.282  0.00  0.00    +0.159 HD
ATOM      9  H   UNL     1      19.940  10.187   9.270  0.00  0.00    +0.159 HD
ENDROOT
BRANCH   1  10
ATOM     10  C   UNL     1      20.578  12.420   6.157  0.00  0.00    +0.151 C 
BRANCH  10  11
ATOM     11  C   UNL     1      20.513  12.870   4.724  0.00  0.00    -0.028 A 
ATOM     12  C   UNL     1      21.667  12.880   3.927  0.00  0.00    +0.005 A 
ATOM     13  C   UNL     1      19.298  13.282   4.155  0.00  0.00    +0.005 A 
ATOM     14  C   UNL     1      21.601  13.270   2.587  0.00  0.00    +0.000 A 
ATOM     15  C   UNL     1      19.236  13.671   2.816  0.00  0.00    +0.000 A 
ATOM     16  C   UNL     1      20.387  13.662   2.033  0.00  0.00    +0.000 A 
ENDBRANCH  10  11
ENDBRANCH   1  10
TORSDOF 2
ENDMDL
MODEL 3
REMARK VINA RESULT:    -4.890     19.017     19.820
REMARK INTER + INTRA:          -5.574
REMARK INTER:                  -5.447
REMARK INTRA:                  -0.126
REMARK UNBOUND:                -0.112
REMARK  Name = 1550473
REMARK  2 active torsions:
REMARK  status: ('A' for Active; 'I' for Inactive)
REMARK    1  A    between atoms: N_1  and  C_4
REMARK    2  A    between atoms: C_4  and  C_5
REMARK                            x       y       z     vdW  Elec       q    Type
REMARK                         _______ _______ _______ _____ _____    ______ ____
ROOT
ATOM      1  N   UNL     1       9.461   0.467  -2.760  0.00  0.00    -0.354 N 
ATOM      2  N   UNL     1      11.025   1.745  -3.893  0.00  0.00    -0.372 N 
ATOM      3  N   UNL     1      11.473   1.098  -1.737  0.00  0.00    -0.372 N 
ATOM      4  C   UNL     1      10.644   1.095  -2.787  0.00  0.00    +0.166 C 
ATOM      5  H   UNL     1       8.865   0.527  -3.577  0.00  0.00    +0.163 HD
ATOM      6  H   UNL     1      11.914   2.225  -3.944  0.00  0.00    +0.159 HD
ATOM      7  H   UNL     1      10.448   1.765  -4.725  0.00  0.00    +0.159 HD
ATOM      8  H   UNL     1      11.242   0.631  -0.871  0.00  0.00    +0.159 HD
ATOM      9  H   UNL     1      12.362   1.583  -1.765  0.00  0.00    +0.159 HD
ENDROOT
BRANCH   1  10
ATOM     10  C   UNL     1       8.976  -0.315  -1.624  0.00  0.00    +0.151 C 
BRANCH  10  11
ATOM     11  C   UNL     1       8.031  -1.372  -2.123  0.00  0.00    -0.028 A 
ATOM     12  C   UNL     1       7.631  -2.423  -1.284  0.00  0.00    +0.005 A 
ATOM     13  C   UNL     1       7.528  -1.327  -3.432  0.00  0.00    +0.005 A 
ATOM     14  C   UNL     1       6.730  -3.389  -1.737  0.00  0.00    +0.000 A 
ATOM     15  C   UNL     1       6.629  -2.294  -3.881  0.00  0.00    +0.000 A 
ATOM     16  C   UNL     1       6.228  -3.324  -3.033  0.00  0.00    +0.000 A 
ENDBRANCH  10  11
ENDBRANCH   1  10
TORSDOF 2
ENDMDL
MODEL 4
REMARK VINA RESULT:    -4.725     35.518     36.247
REMARK INTER + INTRA:          -5.389
REMARK INTER:                  -5.283
REMARK INTRA:                  -0.106
REMARK UNBOUND:                -0.112
REMARK  Name = 1550473
REMARK  2 active torsions:
REMARK  status: ('A' for Active; 'I' for Inactive)
REMARK    1  A    between atoms: N_1  and  C_4
REMARK    2  A    between atoms: C_4  and  C_5
REMARK                            x       y       z     vdW  Elec       q    Type
REMARK                         _______ _______ _______ _____ _____    ______ ____
ROOT
ATOM      1  N   UNL     1       4.659 -14.248 -15.285  0.00  0.00    -0.354 N 
ATOM      2  N   UNL     1       2.949 -14.402 -13.731  0.00  0.00    -0.372 N 
ATOM      3  N   UNL     1       4.836 -15.672 -13.432  0.00  0.00    -0.372 N 
ATOM      4  C   UNL     1       4.161 -14.775 -14.159  0.00  0.00    +0.166 C 
ATOM      5  H   UNL     1       4.085 -13.596 -15.807  0.00  0.00    +0.163 HD
ATOM      6  H   UNL     1       2.548 -14.779 -12.883  0.00  0.00    +0.159 HD
ATOM      7  H   UNL     1       2.396 -13.715 -14.230  0.00  0.00    +0.159 HD
ATOM      8  H   UNL     1       5.754 -15.999 -13.703  0.00  0.00    +0.159 HD
ATOM      9  H   UNL     1       4.447 -16.070 -12.586  0.00  0.00    +0.159 HD
ENDROOT
BRANCH   1  10
ATOM     10  C   UNL     1       5.991 -14.547 -15.808  0.00  0.00    +0.151 C 
BRANCH  10  11
ATOM     11  C   UNL     1       6.580 -13.295 -16.398  0.00  0.00    -0.028 A 
ATOM     12  C   UNL     1       5.983 -12.683 -17.510  0.00  0.00    +0.005 A 
ATOM     13  C   UNL     1       7.731 -12.712 -15.846  0.00  0.00    +0.005 A 
ATOM     14  C   UNL     1       6.512 -11.504 -18.040  0.00  0.00    +0.000 A 
ATOM     15  C   UNL     1       8.256 -11.535 -16.378  0.00  0.00    +0.000 A 
ATOM     16  C   UNL     1       7.645 -10.930 -17.474  0.00  0.00    +0.000 A 
ENDBRANCH  10  11
ENDBRANCH   1  10
TORSDOF 2
ENDMDL
MODEL 5
REMARK VINA RESULT:    -4.642     23.426     24.335
REMARK INTER + INTRA:          -5.297
REMARK INTER:                  -5.135
REMARK INTRA:                  -0.161
REMARK UNBOUND:                -0.112
REMARK  Name = 1550473
REMARK  2 active torsions:
REMARK  status: ('A' for Active; 'I' for Inactive)
REMARK    1  A    between atoms: N_1  and  C_4
REMARK    2  A    between atoms: C_4  and  C_5
REMARK                            x       y       z     vdW  Elec       q    Type
REMARK                         _______ _______ _______ _____ _____    ______ ____
ROOT
ATOM      1  N   UNL     1       4.648   0.562 -12.609  0.00  0.00    -0.354 N 
ATOM      2  N   UNL     1       2.475  -0.170 -12.934  0.00  0.00    -0.372 N 
ATOM      3  N   UNL     1       3.397   1.277 -14.457  0.00  0.00    -0.372 N 
ATOM      4  C   UNL     1       3.521   0.563 -13.333  0.00  0.00    +0.166 C 
ATOM      5  H   UNL     1       4.668   0.023 -11.751  0.00  0.00    +0.163 HD
ATOM      6  H   UNL     1       1.613  -0.192 -13.462  0.00  0.00    +0.159 HD
ATOM      7  H   UNL     1       2.514  -0.744 -12.100  0.00  0.00    +0.159 HD
ATOM      8  H   UNL     1       4.147   1.856 -14.809  0.00  0.00    +0.159 HD
ATOM      9  H   UNL     1       2.538   1.277 -14.993  0.00  0.00    +0.159 HD
ENDROOT
BRANCH   1  10
ATOM     10  C   UNL     1       5.862   1.284 -12.985  0.00  0.00    +0.151 C 
BRANCH  10  11
ATOM     11  C   UNL     1       6.172   2.309 -11.930  0.00  0.00    -0.028 A 
ATOM     12  C   UNL     1       7.283   2.151 -11.088  0.00  0.00    +0.005 A 
ATOM     13  C   UNL     1       5.361   3.443 -11.769  0.00  0.00    +0.005 A 
ATOM     14  C   UNL     1       7.587   3.118 -10.127  0.00  0.00    +0.000 A 
ATOM     15  C   UNL     1       5.668   4.406 -10.808  0.00  0.00    +0.000 A 
ATOM     16  C   UNL     1       6.783   4.244  -9.989  0.00  0.00    +0.000 A 
ENDBRANCH  10  11
ENDBRANCH   1  10
TORSDOF 2
ENDMDL
MODEL 6
REMARK VINA RESULT:    -4.618      4.035      5.935
REMARK INTER + INTRA:          -5.270
REMARK INTER:                  -5.136
REMARK INTRA:                  -0.134
REMARK UNBOUND:                -0.112
REMARK  Name = 1550473
REMARK  2 active torsions:
REMARK  status: ('A' for Active; 'I' for Inactive)
REMARK    1  A    between atoms: N_1  and  C_4
REMARK    2  A    between atoms: C_4  and  C_5
REMARK                            x       y       z     vdW  Elec       q    Type
REMARK                         _______ _______ _______ _____ _____    ______ ____
ROOT
ATOM      1  N   UNL     1      18.216  13.149   6.578  0.00  0.00    -0.354 N 
ATOM      2  N   UNL     1      17.974  12.372   8.746  0.00  0.00    -0.372 N 
ATOM      3  N   UNL     1      16.349  11.877   7.203  0.00  0.00    -0.372 N 
ATOM      4  C   UNL     1      17.512  12.470   7.494  0.00  0.00    +0.166 C 
ATOM      5  H   UNL     1      19.075  13.601   6.869  0.00  0.00    +0.163 HD
ATOM      6  H   UNL     1      17.467  11.864   9.458  0.00  0.00    +0.159 HD
ATOM      7  H   UNL     1      18.856  12.786   9.023  0.00  0.00    +0.159 HD
ATOM      8  H   UNL     1      15.943  11.919   6.278  0.00  0.00    +0.159 HD
ATOM      9  H   UNL     1      15.821  11.374   7.905  0.00  0.00    +0.159 HD
ENDROOT
BRANCH   1  10
ATOM     10  C   UNL     1      17.828  13.270   5.174  0.00  0.00    +0.151 C 
BRANCH  10  11
ATOM     11  C   UNL     1      19.066  13.288   4.321  0.00  0.00    -0.028 A 
ATOM     12  C   UNL     1      20.308  12.924   4.862  0.00  0.00    +0.005 A 
ATOM     13  C   UNL     1      19.004  13.662   2.970  0.00  0.00    +0.005 A 
ATOM     14  C   UNL     1      21.454  12.911   4.063  0.00  0.00    +0.000 A 
ATOM     15  C   UNL     1      20.151  13.649   2.176  0.00  0.00    +0.000 A 
ATOM     16  C   UNL     1      21.375  13.271   2.722  0.00  0.00    +0.000 A 
ENDBRANCH  10  11
ENDBRANCH   1  10
TORSDOF 2
ENDMDL
MODEL 7
REMARK VINA RESULT:    -4.534     22.695     23.598
REMARK INTER + INTRA:          -5.176
REMARK INTER:                  -5.096
REMARK INTRA:                  -0.079
REMARK UNBOUND:                -0.112
REMARK  Name = 1550473
REMARK  2 active torsions:
REMARK  status: ('A' for Active; 'I' for Inactive)
REMARK    1  A    between atoms: N_1  and  C_4
REMARK    2  A    between atoms: C_4  and  C_5
REMARK                            x       y       z     vdW  Elec       q    Type
REMARK                         _______ _______ _______ _____ _____    ______ ____
ROOT
ATOM      1  N   UNL     1       4.211   2.026 -12.601  0.00  0.00    -0.354 N 
ATOM      2  N   UNL     1       4.350   0.570 -14.397  0.00  0.00    -0.372 N 
ATOM      3  N   UNL     1       4.549   2.823 -14.779  0.00  0.00    -0.372 N 
ATOM      4  C   UNL     1       4.369   1.818 -13.915  0.00  0.00    +0.166 C 
ATOM      5  H   UNL     1       4.049   1.224 -12.003  0.00  0.00    +0.163 HD
ATOM      6  H   UNL     1       4.470   0.382 -15.383  0.00  0.00    +0.159 HD
ATOM      7  H   UNL     1       4.234  -0.233 -13.791  0.00  0.00    +0.159 HD
ATOM      8  H   UNL     1       4.568   3.789 -14.480  0.00  0.00    +0.159 HD
ATOM      9  H   UNL     1       4.659   2.656 -15.771  0.00  0.00    +0.159 HD
ENDROOT
BRANCH   1  10
ATOM     10  C   UNL     1       4.270   3.342 -11.968  0.00  0.00    +0.151 C 
BRANCH  10  11
ATOM     11  C   UNL     1       5.586   3.486 -11.255  0.00  0.00    -0.028 A 
ATOM     12  C   UNL     1       5.893   4.664 -10.557  0.00  0.00    +0.005 A 
ATOM     13  C   UNL     1       6.529   2.447 -11.268  0.00  0.00    +0.005 A 
ATOM     14  C   UNL     1       7.102   4.786  -9.869  0.00  0.00    +0.000 A 
ATOM     15  C   UNL     1       7.736   2.573 -10.581  0.00  0.00    +0.000 A 
ATOM     16  C   UNL     1       8.021   3.742  -9.879  0.00  0.00    +0.000 A 
ENDBRANCH  10  11
ENDBRANCH   1  10
TORSDOF 2
ENDMDL
MODEL 8
REMARK VINA RESULT:    -4.461     22.377     23.318
REMARK INTER + INTRA:          -5.095
REMARK INTER:                  -4.990
REMARK INTRA:                  -0.104
REMARK UNBOUND:                -0.112
REMARK  Name = 1550473
REMARK  2 active torsions:
REMARK  status: ('A' for Active; 'I' for Inactive)
REMARK    1  A    between atoms: N_1  and  C_4
REMARK    2  A    between atoms: C_4  and  C_5
REMARK                            x       y       z     vdW  Elec       q    Type
REMARK                         _______ _______ _______ _____ _____    ______ ____
ROOT
ATOM      1  N   UNL     1       5.534   2.607 -13.484  0.00  0.00    -0.354 N 
ATOM      2  N   UNL     1       6.280   0.681 -14.531  0.00  0.00    -0.372 N 
ATOM      3  N   UNL     1       4.635   0.512 -12.941  0.00  0.00    -0.372 N 
ATOM      4  C   UNL     1       5.476   1.278 -13.643  0.00  0.00    +0.166 C 
ATOM      5  H   UNL     1       6.215   3.127 -14.025  0.00  0.00    +0.163 HD
ATOM      6  H   UNL     1       6.257  -0.320 -14.676  0.00  0.00    +0.159 HD
ATOM      7  H   UNL     1       6.928   1.209 -15.103  0.00  0.00    +0.159 HD
ATOM      8  H   UNL     1       4.006   0.901 -12.251  0.00  0.00    +0.159 HD
ATOM      9  H   UNL     1       4.605  -0.493 -13.063  0.00  0.00    +0.159 HD
ENDROOT
BRANCH   1  10
ATOM     10  C   UNL     1       4.664   3.361 -12.582  0.00  0.00    +0.151 C 
BRANCH  10  11
ATOM     11  C   UNL     1       5.500   3.978 -11.496  0.00  0.00    -0.028 A 
ATOM     12  C   UNL     1       6.797   3.508 -11.241  0.00  0.00    +0.005 A 
ATOM     13  C   UNL     1       5.004   5.037 -10.720  0.00  0.00    +0.005 A 
ATOM     14  C   UNL     1       7.585   4.101 -10.251  0.00  0.00    +0.000 A 
ATOM     15  C   UNL     1       5.793   5.626  -9.733  0.00  0.00    +0.000 A 
ATOM     16  C   UNL     1       7.085   5.159  -9.500  0.00  0.00    +0.000 A 
ENDBRANCH  10  11
ENDBRANCH   1  10
TORSDOF 2
ENDMDL
MODEL 9
REMARK VINA RESULT:    -4.330      3.885      5.556
REMARK INTER + INTRA:          -4.948
REMARK INTER:                  -4.856
REMARK INTRA:                  -0.092
REMARK UNBOUND:                -0.112
REMARK  Name = 1550473
REMARK  2 active torsions:
REMARK  status: ('A' for Active; 'I' for Inactive)
REMARK    1  A    between atoms: N_1  and  C_4
REMARK    2  A    between atoms: C_4  and  C_5
REMARK                            x       y       z     vdW  Elec       q    Type
REMARK                         _______ _______ _______ _____ _____    ______ ____
ROOT
ATOM      1  N   UNL     1      20.409  13.674   7.071  0.00  0.00    -0.354 N 
ATOM      2  N   UNL     1      20.475  14.827   9.079  0.00  0.00    -0.372 N 
ATOM      3  N   UNL     1      20.461  12.532   9.117  0.00  0.00    -0.372 N 
ATOM      4  C   UNL     1      20.448  13.668   8.411  0.00  0.00    +0.166 C 
ATOM      5  H   UNL     1      20.370  14.568   6.595  0.00  0.00    +0.163 HD
ATOM      6  H   UNL     1      20.508  14.853  10.090  0.00  0.00    +0.159 HD
ATOM      7  H   UNL     1      20.483  15.719   8.600  0.00  0.00    +0.159 HD
ATOM      8  H   UNL     1      20.435  11.624   8.673  0.00  0.00    +0.159 HD
ATOM      9  H   UNL     1      20.482  12.538  10.129  0.00  0.00    +0.159 HD
ENDROOT
BRANCH   1  10
ATOM     10  C   UNL     1      20.431  12.467   6.247  0.00  0.00    +0.151 C 
BRANCH  10  11
ATOM     11  C   UNL     1      20.425  12.864   4.796  0.00  0.00    -0.028 A 
ATOM     12  C   UNL     1      19.236  13.272   4.174  0.00  0.00    +0.005 A 
ATOM     13  C   UNL     1      21.607  12.838   4.039  0.00  0.00    +0.005 A 
ATOM     14  C   UNL     1      19.236  13.669   2.835  0.00  0.00    +0.000 A 
ATOM     15  C   UNL     1      21.602  13.234   2.702  0.00  0.00    +0.000 A 
ATOM     16  C   UNL     1      20.417  13.652   2.101  0.00  0.00    +0.000 A 
ENDBRANCH  10  11
ENDBRANCH   1  10
TORSDOF 2
ENDMDL
