MODEL 1
REMARK VINA RESULT:    -5.880      0.000      0.000
REMARK INTER + INTRA:          -6.662
REMARK INTER:                  -6.568
REMARK INTRA:                  -0.094
REMARK UNBOUND:                -0.094
REMARK  Name = 1550473
REMARK  2 active torsions:
REMARK  status: ('A' for Active; 'I' for Inactive)
REMARK    1  A    between atoms: N_1  and  C_4
REMARK    2  A    between atoms: C_4  and  C_5
REMARK                            x       y       z     vdW  Elec       q    Type
REMARK                         _______ _______ _______ _____ _____    ______ ____
ROOT
ATOM      1  N   UNL     1      -2.018 -20.952 -37.457  0.00  0.00    -0.354 N 
ATOM      2  N   UNL     1      -0.717 -22.636 -36.544  0.00  0.00    -0.372 N 
ATOM      3  N   UNL     1      -2.624 -21.989 -35.445  0.00  0.00    -0.372 N 
ATOM      4  C   UNL     1      -1.796 -21.847 -36.486  0.00  0.00    +0.166 C 
ATOM      5  H   UNL     1      -1.337 -20.873 -38.204  0.00  0.00    +0.163 HD
ATOM      6  H   UNL     1      -0.525 -23.324 -35.828  0.00  0.00    +0.159 HD
ATOM      7  H   UNL     1      -0.062 -22.587 -37.315  0.00  0.00    +0.159 HD
ATOM      8  H   UNL     1      -3.453 -21.420 -35.339  0.00  0.00    +0.159 HD
ATOM      9  H   UNL     1      -2.443 -22.663 -34.712  0.00  0.00    +0.159 HD
ENDROOT
BRANCH   1  10
ATOM     10  C   UNL     1      -3.192 -20.082 -37.516  0.00  0.00    +0.151 C 
BRANCH  10  11
ATOM     11  C   UNL     1      -3.214 -19.377 -38.844  0.00  0.00    -0.028 A 
ATOM     12  C   UNL     1      -2.782 -18.047 -38.951  0.00  0.00    +0.005 A 
ATOM     13  C   UNL     1      -3.661 -20.035 -40.000  0.00  0.00    +0.005 A 
ATOM     14  C   UNL     1      -2.775 -17.400 -40.189  0.00  0.00    +0.000 A 
ATOM     15  C   UNL     1      -3.653 -19.386 -41.235  0.00  0.00    +0.000 A 
ATOM     16  C   UNL     1      -3.208 -18.070 -41.329  0.00  0.00    +0.000 A 
ENDBRANCH  10  11
ENDBRANCH   1  10
TORSDOF 2
ENDMDL
MODEL 2
REMARK VINA RESULT:    -4.691     13.094     13.799
REMARK INTER + INTRA:          -5.334
REMARK INTER:                  -5.183
REMARK INTRA:                  -0.151
REMARK UNBOUND:                -0.094
REMARK  Name = 1550473
REMARK  2 active torsions:
REMARK  status: ('A' for Active; 'I' for Inactive)
REMARK    1  A    between atoms: N_1  and  C_4
REMARK    2  A    between atoms: C_4  and  C_5
REMARK                            x       y       z     vdW  Elec       q    Type
REMARK                         _______ _______ _______ _____ _____    ______ ____
ROOT
ATOM      1  N   UNL     1      -5.455 -17.948 -25.041  0.00  0.00    -0.354 N 
ATOM      2  N   UNL     1      -5.901 -19.225 -23.161  0.00  0.00    -0.372 N 
ATOM      3  N   UNL     1      -6.356 -16.977 -23.108  0.00  0.00    -0.372 N 
ATOM      4  C   UNL     1      -5.902 -18.039 -23.781  0.00  0.00    +0.166 C 
ATOM      5  H   UNL     1      -5.096 -18.785 -25.486  0.00  0.00    +0.163 HD
ATOM      6  H   UNL     1      -6.235 -19.325 -22.212  0.00  0.00    +0.159 HD
ATOM      7  H   UNL     1      -5.584 -20.068 -23.624  0.00  0.00    +0.159 HD
ATOM      8  H   UNL     1      -6.377 -16.052 -23.517  0.00  0.00    +0.159 HD
ATOM      9  H   UNL     1      -6.683 -17.055 -22.153  0.00  0.00    +0.159 HD
ENDROOT
BRANCH   1  10
ATOM     10  C   UNL     1      -5.464 -16.714 -25.824  0.00  0.00    +0.151 C 
BRANCH  10  11
ATOM     11  C   UNL     1      -4.050 -16.354 -26.189  0.00  0.00    -0.028 A 
ATOM     12  C   UNL     1      -3.727 -15.047 -26.584  0.00  0.00    +0.005 A 
ATOM     13  C   UNL     1      -3.028 -17.314 -26.137  0.00  0.00    +0.005 A 
ATOM     14  C   UNL     1      -2.409 -14.705 -26.894  0.00  0.00    +0.000 A 
ATOM     15  C   UNL     1      -1.713 -16.968 -26.448  0.00  0.00    +0.000 A 
ATOM     16  C   UNL     1      -1.403 -15.663 -26.825  0.00  0.00    +0.000 A 
ENDBRANCH  10  11
ENDBRANCH   1  10
TORSDOF 2
ENDMDL
MODEL 3
REMARK VINA RESULT:    -4.644     31.696     32.841
REMARK INTER + INTRA:          -5.281
REMARK INTER:                  -5.154
REMARK INTRA:                  -0.127
REMARK UNBOUND:                -0.094
REMARK  Name = 1550473
REMARK  2 active torsions:
REMARK  status: ('A' for Active; 'I' for Inactive)
REMARK    1  A    between atoms: N_1  and  C_4
REMARK    2  A    between atoms: C_4  and  C_5
REMARK                            x       y       z     vdW  Elec       q    Type
REMARK                         _______ _______ _______ _____ _____    ______ ____
ROOT
ATOM      1  N   UNL     1     -11.951  -6.433  -9.001  0.00  0.00    -0.354 N 
ATOM      2  N   UNL     1     -12.106  -6.052  -6.722  0.00  0.00    -0.372 N 
ATOM      3  N   UNL     1     -13.251  -7.821  -7.631  0.00  0.00    -0.372 N 
ATOM      4  C   UNL     1     -12.437  -6.773  -7.800  0.00  0.00    +0.166 C 
ATOM      5  H   UNL     1     -11.363  -5.610  -9.067  0.00  0.00    +0.163 HD
ATOM      6  H   UNL     1     -12.454  -6.287  -5.802  0.00  0.00    +0.159 HD
ATOM      7  H   UNL     1     -11.481  -5.258  -6.784  0.00  0.00    +0.159 HD
ATOM      8  H   UNL     1     -13.543  -8.402  -8.406  0.00  0.00    +0.159 HD
ATOM      9  H   UNL     1     -13.619  -8.065  -6.720  0.00  0.00    +0.159 HD
ENDROOT
BRANCH   1  10
ATOM     10  C   UNL     1     -12.208  -7.183 -10.229  0.00  0.00    +0.151 C 
BRANCH  10  11
ATOM     11  C   UNL     1     -12.395  -6.216 -11.366  0.00  0.00    -0.028 A 
ATOM     12  C   UNL     1     -13.389  -5.228 -11.303  0.00  0.00    +0.005 A 
ATOM     13  C   UNL     1     -11.579  -6.279 -12.506  0.00  0.00    +0.005 A 
ATOM     14  C   UNL     1     -13.544  -4.311 -12.345  0.00  0.00    +0.000 A 
ATOM     15  C   UNL     1     -11.738  -5.362 -13.544  0.00  0.00    +0.000 A 
ATOM     16  C   UNL     1     -12.719  -4.376 -13.463  0.00  0.00    +0.000 A 
ENDBRANCH  10  11
ENDBRANCH   1  10
TORSDOF 2
ENDMDL
MODEL 4
REMARK VINA RESULT:    -4.595     21.730     22.768
REMARK INTER + INTRA:          -5.226
REMARK INTER:                  -5.103
REMARK INTRA:                  -0.123
REMARK UNBOUND:                -0.094
REMARK  Name = 1550473
REMARK  2 active torsions:
REMARK  status: ('A' for Active; 'I' for Inactive)
REMARK    1  A    between atoms: N_1  and  C_4
REMARK    2  A    between atoms: C_4  and  C_5
REMARK                            x       y       z     vdW  Elec       q    Type
REMARK                         _______ _______ _______ _____ _____    ______ ____
ROOT
ATOM      1  N   UNL     1       5.014  -7.786 -23.015  0.00  0.00    -0.354 N 
ATOM      2  N   UNL     1       3.233  -8.554 -24.281  0.00  0.00    -0.372 N 
ATOM      3  N   UNL     1       2.918  -6.742 -22.909  0.00  0.00    -0.372 N 
ATOM      4  C   UNL     1       3.732  -7.687 -23.392  0.00  0.00    +0.166 C 
ATOM      5  H   UNL     1       5.570  -8.543 -23.395  0.00  0.00    +0.163 HD
ATOM      6  H   UNL     1       2.271  -8.502 -24.587  0.00  0.00    +0.159 HD
ATOM      7  H   UNL     1       3.804  -9.282 -24.694  0.00  0.00    +0.159 HD
ATOM      8  H   UNL     1       3.232  -6.061 -22.230  0.00  0.00    +0.159 HD
ATOM      9  H   UNL     1       1.949  -6.681 -23.194  0.00  0.00    +0.159 HD
ENDROOT
BRANCH   1  10
ATOM     10  C   UNL     1       5.669  -6.859 -22.094  0.00  0.00    +0.151 C 
BRANCH  10  11
ATOM     11  C   UNL     1       7.125  -7.222 -21.985  0.00  0.00    -0.028 A 
ATOM     12  C   UNL     1       7.621  -8.371 -22.618  0.00  0.00    +0.005 A 
ATOM     13  C   UNL     1       8.013  -6.417 -21.255  0.00  0.00    +0.005 A 
ATOM     14  C   UNL     1       8.979  -8.692 -22.542  0.00  0.00    +0.000 A 
ATOM     15  C   UNL     1       9.368  -6.742 -21.181  0.00  0.00    +0.000 A 
ATOM     16  C   UNL     1       9.851  -7.877 -21.827  0.00  0.00    +0.000 A 
ENDBRANCH  10  11
ENDBRANCH   1  10
TORSDOF 2
ENDMDL
MODEL 5
REMARK VINA RESULT:    -4.569     13.564     14.495
REMARK INTER + INTRA:          -5.198
REMARK INTER:                  -5.058
REMARK INTRA:                  -0.140
REMARK UNBOUND:                -0.094
REMARK  Name = 1550473
REMARK  2 active torsions:
REMARK  status: ('A' for Active; 'I' for Inactive)
REMARK    1  A    between atoms: N_1  and  C_4
REMARK    2  A    between atoms: C_4  and  C_5
REMARK                            x       y       z     vdW  Elec       q    Type
REMARK                         _______ _______ _______ _____ _____    ______ ____
ROOT
ATOM      1  N   UNL     1      -8.443 -31.439 -40.891  0.00  0.00    -0.354 N 
ATOM      2  N   UNL     1      -6.937 -32.100 -42.523  0.00  0.00    -0.372 N 
ATOM      3  N   UNL     1      -6.795 -33.042 -40.435  0.00  0.00    -0.372 N 
ATOM      4  C   UNL     1      -7.401 -32.191 -41.270  0.00  0.00    +0.166 C 
ATOM      5  H   UNL     1      -8.839 -30.791 -41.563  0.00  0.00    +0.163 HD
ATOM      6  H   UNL     1      -6.154 -32.656 -42.838  0.00  0.00    +0.159 HD
ATOM      7  H   UNL     1      -7.364 -31.485 -43.205  0.00  0.00    +0.159 HD
ATOM      8  H   UNL     1      -7.093 -33.153 -39.475  0.00  0.00    +0.159 HD
ATOM      9  H   UNL     1      -6.003 -33.599 -40.729  0.00  0.00    +0.159 HD
ENDROOT
BRANCH   1  10
ATOM     10  C   UNL     1      -9.058 -31.502 -39.567  0.00  0.00    +0.151 C 
BRANCH  10  11
ATOM     11  C   UNL     1     -10.553 -31.563 -39.722  0.00  0.00    -0.028 A 
ATOM     12  C   UNL     1     -11.129 -31.827 -40.973  0.00  0.00    +0.005 A 
ATOM     13  C   UNL     1     -11.398 -31.363 -38.620  0.00  0.00    +0.005 A 
ATOM     14  C   UNL     1     -12.516 -31.914 -41.111  0.00  0.00    +0.000 A 
ATOM     15  C   UNL     1     -12.783 -31.449 -38.762  0.00  0.00    +0.000 A 
ATOM     16  C   UNL     1     -13.342 -31.727 -40.007  0.00  0.00    +0.000 A 
ENDBRANCH  10  11
ENDBRANCH   1  10
TORSDOF 2
ENDMDL
MODEL 6
REMARK VINA RESULT:    -4.542     73.147     74.567
REMARK INTER + INTRA:          -5.167
REMARK INTER:                  -5.044
REMARK INTRA:                  -0.123
REMARK UNBOUND:                -0.094
REMARK  Name = 1550473
REMARK  2 active torsions:
REMARK  status: ('A' for Active; 'I' for Inactive)
REMARK    1  A    between atoms: N_1  and  C_4
REMARK    2  A    between atoms: C_4  and  C_5
REMARK                            x       y       z     vdW  Elec       q    Type
REMARK                         _______ _______ _______ _____ _____    ______ ____
ROOT
ATOM      1  N   UNL     1     -11.047   7.076  31.605  0.00  0.00    -0.354 N 
ATOM      2  N   UNL     1     -10.400   9.220  32.195  0.00  0.00    -0.372 N 
ATOM      3  N   UNL     1     -10.027   7.503  33.671  0.00  0.00    -0.372 N 
ATOM      4  C   UNL     1     -10.495   7.917  32.489  0.00  0.00    +0.166 C 
ATOM      5  H   UNL     1     -11.410   7.457  30.739  0.00  0.00    +0.163 HD
ATOM      6  H   UNL     1      -9.985   9.878  32.841  0.00  0.00    +0.159 HD
ATOM      7  H   UNL     1     -10.722   9.591  31.310  0.00  0.00    +0.159 HD
ATOM      8  H   UNL     1     -10.074   6.533  33.956  0.00  0.00    +0.159 HD
ATOM      9  H   UNL     1      -9.619   8.148  34.336  0.00  0.00    +0.159 HD
ENDROOT
BRANCH   1  10
ATOM     10  C   UNL     1     -11.150   5.631  31.805  0.00  0.00    +0.151 C 
BRANCH  10  11
ATOM     11  C   UNL     1     -11.787   5.011  30.592  0.00  0.00    -0.028 A 
ATOM     12  C   UNL     1     -12.072   5.790  29.461  0.00  0.00    +0.005 A 
ATOM     13  C   UNL     1     -12.102   3.644  30.565  0.00  0.00    +0.005 A 
ATOM     14  C   UNL     1     -12.636   5.209  28.323  0.00  0.00    +0.000 A 
ATOM     15  C   UNL     1     -12.666   3.068  29.427  0.00  0.00    +0.000 A 
ATOM     16  C   UNL     1     -12.930   3.850  28.306  0.00  0.00    +0.000 A 
ENDBRANCH  10  11
ENDBRANCH   1  10
TORSDOF 2
ENDMDL
MODEL 7
REMARK VINA RESULT:    -4.480     66.892     68.560
REMARK INTER + INTRA:          -5.097
REMARK INTER:                  -4.933
REMARK INTRA:                  -0.164
REMARK UNBOUND:                -0.094
REMARK  Name = 1550473
REMARK  2 active torsions:
REMARK  status: ('A' for Active; 'I' for Inactive)
REMARK    1  A    between atoms: N_1  and  C_4
REMARK    2  A    between atoms: C_4  and  C_5
REMARK                            x       y       z     vdW  Elec       q    Type
REMARK                         _______ _______ _______ _____ _____    ______ ____
ROOT
ATOM      1  N   UNL     1       2.534   2.316  23.948  0.00  0.00    -0.354 N 
ATOM      2  N   UNL     1       2.643   3.878  22.242  0.00  0.00    -0.372 N 
ATOM      3  N   UNL     1       4.398   3.717  23.711  0.00  0.00    -0.372 N 
ATOM      4  C   UNL     1       3.193   3.294  23.313  0.00  0.00    +0.166 C 
ATOM      5  H   UNL     1       1.611   2.062  23.615  0.00  0.00    +0.163 HD
ATOM      6  H   UNL     1       3.118   4.617  21.740  0.00  0.00    +0.159 HD
ATOM      7  H   UNL     1       1.740   3.591  21.883  0.00  0.00    +0.159 HD
ATOM      8  H   UNL     1       4.865   3.321  24.515  0.00  0.00    +0.159 HD
ATOM      9  H   UNL     1       4.884   4.463  23.229  0.00  0.00    +0.159 HD
ENDROOT
BRANCH   1  10
ATOM     10  C   UNL     1       3.069   1.578  25.091  0.00  0.00    +0.151 C 
BRANCH  10  11
ATOM     11  C   UNL     1       2.413   2.078  26.349  0.00  0.00    -0.028 A 
ATOM     12  C   UNL     1       1.054   2.424  26.353  0.00  0.00    +0.005 A 
ATOM     13  C   UNL     1       3.143   2.202  27.540  0.00  0.00    +0.005 A 
ATOM     14  C   UNL     1       0.436   2.860  27.528  0.00  0.00    +0.000 A 
ATOM     15  C   UNL     1       2.523   2.638  28.711  0.00  0.00    +0.000 A 
ATOM     16  C   UNL     1       1.170   2.964  28.705  0.00  0.00    +0.000 A 
ENDBRANCH  10  11
ENDBRANCH   1  10
TORSDOF 2
ENDMDL
MODEL 8
REMARK VINA RESULT:    -4.478     31.155     32.395
REMARK INTER + INTRA:          -5.096
REMARK INTER:                  -4.953
REMARK INTRA:                  -0.143
REMARK UNBOUND:                -0.094
REMARK  Name = 1550473
REMARK  2 active torsions:
REMARK  status: ('A' for Active; 'I' for Inactive)
REMARK    1  A    between atoms: N_1  and  C_4
REMARK    2  A    between atoms: C_4  and  C_5
REMARK                            x       y       z     vdW  Elec       q    Type
REMARK                         _______ _______ _______ _____ _____    ______ ____
ROOT
ATOM      1  N   UNL     1     -12.813  -8.103  -8.682  0.00  0.00    -0.354 N 
ATOM      2  N   UNL     1     -11.683  -8.603  -6.724  0.00  0.00    -0.372 N 
ATOM      3  N   UNL     1     -12.012  -6.402  -7.283  0.00  0.00    -0.372 N 
ATOM      4  C   UNL     1     -12.176  -7.697  -7.576  0.00  0.00    +0.166 C 
ATOM      5  H   UNL     1     -12.879  -9.098  -8.862  0.00  0.00    +0.163 HD
ATOM      6  H   UNL     1     -11.200  -8.327  -5.879  0.00  0.00    +0.159 HD
ATOM      7  H   UNL     1     -11.790  -9.598  -6.883  0.00  0.00    +0.159 HD
ATOM      8  H   UNL     1     -12.355  -5.669  -7.888  0.00  0.00    +0.159 HD
ATOM      9  H   UNL     1     -11.521  -6.106  -6.449  0.00  0.00    +0.159 HD
ENDROOT
BRANCH   1  10
ATOM     10  C   UNL     1     -13.435  -7.198  -9.647  0.00  0.00    +0.151 C 
BRANCH  10  11
ATOM     11  C   UNL     1     -12.751  -7.354 -10.978  0.00  0.00    -0.028 A 
ATOM     12  C   UNL     1     -12.609  -8.621 -11.561  0.00  0.00    +0.005 A 
ATOM     13  C   UNL     1     -12.248  -6.237 -11.663  0.00  0.00    +0.005 A 
ATOM     14  C   UNL     1     -12.002  -8.763 -12.811  0.00  0.00    +0.000 A 
ATOM     15  C   UNL     1     -11.641  -6.383 -12.910  0.00  0.00    +0.000 A 
ATOM     16  C   UNL     1     -11.520  -7.646 -13.485  0.00  0.00    +0.000 A 
ENDBRANCH  10  11
ENDBRANCH   1  10
TORSDOF 2
ENDMDL
MODEL 9
REMARK VINA RESULT:    -4.395     34.745     36.541
REMARK INTER + INTRA:          -5.003
REMARK INTER:                  -4.893
REMARK INTRA:                  -0.110
REMARK UNBOUND:                -0.094
REMARK  Name = 1550473
REMARK  2 active torsions:
REMARK  status: ('A' for Active; 'I' for Inactive)
REMARK    1  A    between atoms: N_1  and  C_4
REMARK    2  A    between atoms: C_4  and  C_5
REMARK                            x       y       z     vdW  Elec       q    Type
REMARK                         _______ _______ _______ _____ _____    ______ ____
ROOT
ATOM      1  N   UNL     1      -2.604 -12.343  -4.158  0.00  0.00    -0.354 N 
ATOM      2  N   UNL     1      -3.419 -14.443  -4.696  0.00  0.00    -0.372 N 
ATOM      3  N   UNL     1      -3.256 -12.860  -6.349  0.00  0.00    -0.372 N 
ATOM      4  C   UNL     1      -3.088 -13.200  -5.066  0.00  0.00    +0.166 C 
ATOM      5  H   UNL     1      -2.528 -12.653  -3.196  0.00  0.00    +0.163 HD
ATOM      6  H   UNL     1      -3.783 -15.113  -5.360  0.00  0.00    +0.159 HD
ATOM      7  H   UNL     1      -3.299 -14.765  -3.743  0.00  0.00    +0.159 HD
ATOM      8  H   UNL     1      -3.031 -11.936  -6.691  0.00  0.00    +0.159 HD
ATOM      9  H   UNL     1      -3.631 -13.513  -7.026  0.00  0.00    +0.159 HD
ENDROOT
BRANCH   1  10
ATOM     10  C   UNL     1      -2.163 -10.984  -4.469  0.00  0.00    +0.151 C 
BRANCH  10  11
ATOM     11  C   UNL     1      -2.141 -10.173  -3.203  0.00  0.00    -0.028 A 
ATOM     12  C   UNL     1      -0.968  -9.521  -2.796  0.00  0.00    +0.005 A 
ATOM     13  C   UNL     1      -3.292 -10.048  -2.410  0.00  0.00    +0.005 A 
ATOM     14  C   UNL     1      -0.956  -8.743  -1.636  0.00  0.00    +0.000 A 
ATOM     15  C   UNL     1      -3.275  -9.270  -1.252  0.00  0.00    +0.000 A 
ATOM     16  C   UNL     1      -2.108  -8.616  -0.867  0.00  0.00    +0.000 A 
ENDBRANCH  10  11
ENDBRANCH   1  10
TORSDOF 2
ENDMDL
