MODEL 1
REMARK VINA RESULT:    -5.640      0.000      0.000
REMARK INTER + INTRA:          -6.480
REMARK INTER:                  -6.299
REMARK INTRA:                  -0.181
REMARK UNBOUND:                -0.181
REMARK  Name = 1550473
REMARK  2 active torsions:
REMARK  status: ('A' for Active; 'I' for Inactive)
REMARK    1  A    between atoms: N_1  and  C_4
REMARK    2  A    between atoms: C_4  and  C_5
REMARK                            x       y       z     vdW  Elec       q    Type
REMARK                         _______ _______ _______ _____ _____    ______ ____
ROOT
ATOM      1  N   UNL     1      -1.681  11.106   2.728  0.00  0.00    -0.354 N 
ATOM      2  N   UNL     1      -2.223  11.406   4.959  0.00  0.00    -0.372 N 
ATOM      3  N   UNL     1      -0.045  11.695   4.299  0.00  0.00    -0.372 N 
ATOM      4  C   UNL     1      -1.310  11.401   3.981  0.00  0.00    +0.166 C 
ATOM      5  H   UNL     1      -2.650  10.862   2.557  0.00  0.00    +0.163 HD
ATOM      6  H   UNL     1      -1.974  11.628   5.914  0.00  0.00    +0.159 HD
ATOM      7  H   UNL     1      -3.200  11.207   4.778  0.00  0.00    +0.159 HD
ATOM      8  H   UNL     1       0.693  11.702   3.607  0.00  0.00    +0.159 HD
ATOM      9  H   UNL     1       0.227  11.908   5.250  0.00  0.00    +0.159 HD
ENDROOT
BRANCH   1  10
ATOM     10  C   UNL     1      -0.775  11.125   1.581  0.00  0.00    +0.151 C 
BRANCH  10  11
ATOM     11  C   UNL     1      -0.417   9.711   1.214  0.00  0.00    -0.028 A 
ATOM     12  C   UNL     1       0.813   9.164   1.604  0.00  0.00    +0.005 A 
ATOM     13  C   UNL     1      -1.308   8.912   0.481  0.00  0.00    +0.005 A 
ATOM     14  C   UNL     1       1.133   7.841   1.290  0.00  0.00    +0.000 A 
ATOM     15  C   UNL     1      -0.984   7.592   0.168  0.00  0.00    +0.000 A 
ATOM     16  C   UNL     1       0.235   7.056   0.575  0.00  0.00    +0.000 A 
ENDBRANCH  10  11
ENDBRANCH   1  10
TORSDOF 2
ENDMDL
MODEL 2
REMARK VINA RESULT:    -5.301     23.749     24.840
REMARK INTER + INTRA:          -6.101
REMARK INTER:                  -5.961
REMARK INTRA:                  -0.140
REMARK UNBOUND:                -0.181
REMARK  Name = 1550473
REMARK  2 active torsions:
REMARK  status: ('A' for Active; 'I' for Inactive)
REMARK    1  A    between atoms: N_1  and  C_4
REMARK    2  A    between atoms: C_4  and  C_5
REMARK                            x       y       z     vdW  Elec       q    Type
REMARK                         _______ _______ _______ _____ _____    ______ ____
ROOT
ATOM      1  N   UNL     1       3.436  -4.469 -18.313  0.00  0.00    -0.354 N 
ATOM      2  N   UNL     1       1.458  -5.056 -17.259  0.00  0.00    -0.372 N 
ATOM      3  N   UNL     1       1.571  -3.052 -18.372  0.00  0.00    -0.372 N 
ATOM      4  C   UNL     1       2.167  -4.186 -17.989  0.00  0.00    +0.166 C 
ATOM      5  H   UNL     1       3.840  -5.332 -17.967  0.00  0.00    +0.163 HD
ATOM      6  H   UNL     1       0.498  -4.870 -17.002  0.00  0.00    +0.159 HD
ATOM      7  H   UNL     1       1.850  -5.938 -16.953  0.00  0.00    +0.159 HD
ATOM      8  H   UNL     1       2.053  -2.351 -18.919  0.00  0.00    +0.159 HD
ATOM      9  H   UNL     1       0.614  -2.843 -18.114  0.00  0.00    +0.159 HD
ENDROOT
BRANCH   1  10
ATOM     10  C   UNL     1       4.277  -3.615 -19.149  0.00  0.00    +0.151 C 
BRANCH  10  11
ATOM     11  C   UNL     1       5.544  -3.294 -18.406  0.00  0.00    -0.028 A 
ATOM     12  C   UNL     1       6.779  -3.296 -19.070  0.00  0.00    +0.005 A 
ATOM     13  C   UNL     1       5.516  -2.983 -17.038  0.00  0.00    +0.005 A 
ATOM     14  C   UNL     1       7.953  -2.969 -18.387  0.00  0.00    +0.000 A 
ATOM     15  C   UNL     1       6.690  -2.658 -16.359  0.00  0.00    +0.000 A 
ATOM     16  C   UNL     1       7.908  -2.649 -17.034  0.00  0.00    +0.000 A 
ENDBRANCH  10  11
ENDBRANCH   1  10
TORSDOF 2
ENDMDL
MODEL 3
REMARK VINA RESULT:    -5.235     24.651     25.555
REMARK INTER + INTRA:          -6.028
REMARK INTER:                  -5.876
REMARK INTRA:                  -0.151
REMARK UNBOUND:                -0.181
REMARK  Name = 1550473
REMARK  2 active torsions:
REMARK  status: ('A' for Active; 'I' for Inactive)
REMARK    1  A    between atoms: N_1  and  C_4
REMARK    2  A    between atoms: C_4  and  C_5
REMARK                            x       y       z     vdW  Elec       q    Type
REMARK                         _______ _______ _______ _____ _____    ______ ____
ROOT
ATOM      1  N   UNL     1       5.647  -4.782 -16.918  0.00  0.00    -0.354 N 
ATOM      2  N   UNL     1       5.852  -6.673 -15.597  0.00  0.00    -0.372 N 
ATOM      3  N   UNL     1       6.593  -6.751 -17.767  0.00  0.00    -0.372 N 
ATOM      4  C   UNL     1       6.030  -6.057 -16.772  0.00  0.00    +0.166 C 
ATOM      5  H   UNL     1       5.199  -4.321 -16.134  0.00  0.00    +0.163 HD
ATOM      6  H   UNL     1       6.134  -7.634 -15.456  0.00  0.00    +0.159 HD
ATOM      7  H   UNL     1       5.446  -6.196 -14.801  0.00  0.00    +0.159 HD
ATOM      8  H   UNL     1       6.750  -6.345 -18.680  0.00  0.00    +0.159 HD
ATOM      9  H   UNL     1       6.871  -7.717 -17.649  0.00  0.00    +0.159 HD
ENDROOT
BRANCH   1  10
ATOM     10  C   UNL     1       5.845  -4.003 -18.139  0.00  0.00    +0.151 C 
BRANCH  10  11
ATOM     11  C   UNL     1       4.504  -3.647 -18.718  0.00  0.00    -0.028 A 
ATOM     12  C   UNL     1       4.391  -3.239 -20.055  0.00  0.00    +0.005 A 
ATOM     13  C   UNL     1       3.341  -3.721 -17.936  0.00  0.00    +0.005 A 
ATOM     14  C   UNL     1       3.141  -2.937 -20.602  0.00  0.00    +0.000 A 
ATOM     15  C   UNL     1       2.095  -3.418 -18.485  0.00  0.00    +0.000 A 
ATOM     16  C   UNL     1       1.996  -3.028 -19.819  0.00  0.00    +0.000 A 
ENDBRANCH  10  11
ENDBRANCH   1  10
TORSDOF 2
ENDMDL
MODEL 4
REMARK VINA RESULT:    -5.196     12.075     13.377
REMARK INTER + INTRA:          -5.985
REMARK INTER:                  -5.821
REMARK INTRA:                  -0.164
REMARK UNBOUND:                -0.181
REMARK  Name = 1550473
REMARK  2 active torsions:
REMARK  status: ('A' for Active; 'I' for Inactive)
REMARK    1  A    between atoms: N_1  and  C_4
REMARK    2  A    between atoms: C_4  and  C_5
REMARK                            x       y       z     vdW  Elec       q    Type
REMARK                         _______ _______ _______ _____ _____    ______ ____
ROOT
ATOM      1  N   UNL     1       8.828  -0.383   1.106  0.00  0.00    -0.354 N 
ATOM      2  N   UNL     1       8.129  -0.941   3.243  0.00  0.00    -0.372 N 
ATOM      3  N   UNL     1       6.572  -0.220   1.719  0.00  0.00    -0.372 N 
ATOM      4  C   UNL     1       7.845  -0.510   2.008  0.00  0.00    +0.166 C 
ATOM      5  H   UNL     1       9.777  -0.590   1.396  0.00  0.00    +0.163 HD
ATOM      6  H   UNL     1       7.408  -1.050   3.943  0.00  0.00    +0.159 HD
ATOM      7  H   UNL     1       9.072  -1.191   3.516  0.00  0.00    +0.159 HD
ATOM      8  H   UNL     1       6.293   0.116   0.807  0.00  0.00    +0.159 HD
ATOM      9  H   UNL     1       5.838  -0.311   2.410  0.00  0.00    +0.159 HD
ENDROOT
BRANCH   1  10
ATOM     10  C   UNL     1       8.617   0.027  -0.281  0.00  0.00    +0.151 C 
BRANCH  10  11
ATOM     11  C   UNL     1       9.234   1.383  -0.492  0.00  0.00    -0.028 A 
ATOM     12  C   UNL     1      10.616   1.513  -0.687  0.00  0.00    +0.005 A 
ATOM     13  C   UNL     1       8.439   2.540  -0.504  0.00  0.00    +0.005 A 
ATOM     14  C   UNL     1      11.185   2.769  -0.913  0.00  0.00    +0.000 A 
ATOM     15  C   UNL     1       9.012   3.791  -0.729  0.00  0.00    +0.000 A 
ATOM     16  C   UNL     1      10.384   3.905  -0.936  0.00  0.00    +0.000 A 
ENDBRANCH  10  11
ENDBRANCH   1  10
TORSDOF 2
ENDMDL
MODEL 5
REMARK VINA RESULT:    -5.126     24.921     26.506
REMARK INTER + INTRA:          -5.906
REMARK INTER:                  -5.761
REMARK INTRA:                  -0.145
REMARK UNBOUND:                -0.181
REMARK  Name = 1550473
REMARK  2 active torsions:
REMARK  status: ('A' for Active; 'I' for Inactive)
REMARK    1  A    between atoms: N_1  and  C_4
REMARK    2  A    between atoms: C_4  and  C_5
REMARK                            x       y       z     vdW  Elec       q    Type
REMARK                         _______ _______ _______ _____ _____    ______ ____
ROOT
ATOM      1  N   UNL     1       3.467  -4.442 -18.072  0.00  0.00    -0.354 N 
ATOM      2  N   UNL     1       1.404  -5.120 -17.266  0.00  0.00    -0.372 N 
ATOM      3  N   UNL     1       1.576  -3.075 -18.293  0.00  0.00    -0.372 N 
ATOM      4  C   UNL     1       2.162  -4.205 -17.883  0.00  0.00    +0.166 C 
ATOM      5  H   UNL     1       3.857  -5.305 -17.710  0.00  0.00    +0.163 HD
ATOM      6  H   UNL     1       0.416  -4.970 -17.112  0.00  0.00    +0.159 HD
ATOM      7  H   UNL     1       1.787  -6.001 -16.947  0.00  0.00    +0.159 HD
ATOM      8  H   UNL     1       2.094  -2.342 -18.760  0.00  0.00    +0.159 HD
ATOM      9  H   UNL     1       0.591  -2.902 -18.138  0.00  0.00    +0.159 HD
ENDROOT
BRANCH   1  10
ATOM     10  C   UNL     1       4.368  -3.535 -18.780  0.00  0.00    +0.151 C 
BRANCH  10  11
ATOM     11  C   UNL     1       4.371  -3.887 -20.242  0.00  0.00    -0.028 A 
ATOM     12  C   UNL     1       4.394  -5.228 -20.651  0.00  0.00    +0.005 A 
ATOM     13  C   UNL     1       4.344  -2.884 -21.223  0.00  0.00    +0.005 A 
ATOM     14  C   UNL     1       4.366  -5.556 -22.009  0.00  0.00    +0.000 A 
ATOM     15  C   UNL     1       4.317  -3.216 -22.577  0.00  0.00    +0.000 A 
ATOM     16  C   UNL     1       4.325  -4.552 -22.970  0.00  0.00    +0.000 A 
ENDBRANCH  10  11
ENDBRANCH   1  10
TORSDOF 2
ENDMDL
MODEL 6
REMARK VINA RESULT:    -5.095      9.725     11.174
REMARK INTER + INTRA:          -5.871
REMARK INTER:                  -5.738
REMARK INTRA:                  -0.133
REMARK UNBOUND:                -0.181
REMARK  Name = 1550473
REMARK  2 active torsions:
REMARK  status: ('A' for Active; 'I' for Inactive)
REMARK    1  A    between atoms: N_1  and  C_4
REMARK    2  A    between atoms: C_4  and  C_5
REMARK                            x       y       z     vdW  Elec       q    Type
REMARK                         _______ _______ _______ _____ _____    ______ ____
ROOT
ATOM      1  N   UNL     1       4.462   1.672   1.068  0.00  0.00    -0.354 N 
ATOM      2  N   UNL     1       2.995   2.978  -0.159  0.00  0.00    -0.372 N 
ATOM      3  N   UNL     1       4.313   3.983   1.428  0.00  0.00    -0.372 N 
ATOM      4  C   UNL     1       3.934   2.871   0.789  0.00  0.00    +0.166 C 
ATOM      5  H   UNL     1       4.110   0.863   0.570  0.00  0.00    +0.163 HD
ATOM      6  H   UNL     1       2.580   3.870  -0.394  0.00  0.00    +0.159 HD
ATOM      7  H   UNL     1       2.678   2.175  -0.688  0.00  0.00    +0.159 HD
ATOM      8  H   UNL     1       5.013   3.969   2.157  0.00  0.00    +0.159 HD
ATOM      9  H   UNL     1       3.902   4.883   1.215  0.00  0.00    +0.159 HD
ENDROOT
BRANCH   1  10
ATOM     10  C   UNL     1       5.529   1.456   2.044  0.00  0.00    +0.151 C 
BRANCH  10  11
ATOM     11  C   UNL     1       6.672   0.746   1.374  0.00  0.00    -0.028 A 
ATOM     12  C   UNL     1       7.630   0.061   2.135  0.00  0.00    +0.005 A 
ATOM     13  C   UNL     1       6.800   0.750  -0.024  0.00  0.00    +0.005 A 
ATOM     14  C   UNL     1       8.675  -0.624   1.511  0.00  0.00    +0.000 A 
ATOM     15  C   UNL     1       7.846   0.066  -0.643  0.00  0.00    +0.000 A 
ATOM     16  C   UNL     1       8.782  -0.623   0.124  0.00  0.00    +0.000 A 
ENDBRANCH  10  11
ENDBRANCH   1  10
TORSDOF 2
ENDMDL
MODEL 7
REMARK VINA RESULT:    -5.091     25.040     26.027
REMARK INTER + INTRA:          -5.867
REMARK INTER:                  -5.737
REMARK INTRA:                  -0.131
REMARK UNBOUND:                -0.181
REMARK  Name = 1550473
REMARK  2 active torsions:
REMARK  status: ('A' for Active; 'I' for Inactive)
REMARK    1  A    between atoms: N_1  and  C_4
REMARK    2  A    between atoms: C_4  and  C_5
REMARK                            x       y       z     vdW  Elec       q    Type
REMARK                         _______ _______ _______ _____ _____    ______ ____
ROOT
ATOM      1  N   UNL     1       8.278  -7.064 -14.750  0.00  0.00    -0.354 N 
ATOM      2  N   UNL     1       6.184  -6.588 -15.619  0.00  0.00    -0.372 N 
ATOM      3  N   UNL     1       7.662  -7.801 -16.888  0.00  0.00    -0.372 N 
ATOM      4  C   UNL     1       7.390  -7.155 -15.749  0.00  0.00    +0.166 C 
ATOM      5  H   UNL     1       8.021  -6.535 -13.925  0.00  0.00    +0.163 HD
ATOM      6  H   UNL     1       5.492  -6.643 -16.354  0.00  0.00    +0.159 HD
ATOM      7  H   UNL     1       5.914  -6.099 -14.774  0.00  0.00    +0.159 HD
ATOM      8  H   UNL     1       8.555  -8.246 -17.050  0.00  0.00    +0.159 HD
ATOM      9  H   UNL     1       6.986  -7.857 -17.640  0.00  0.00    +0.159 HD
ENDROOT
BRANCH   1  10
ATOM     10  C   UNL     1       9.598  -7.692 -14.770  0.00  0.00    +0.151 C 
BRANCH  10  11
ATOM     11  C   UNL     1      10.652  -6.622 -14.693  0.00  0.00    -0.028 A 
ATOM     12  C   UNL     1      12.010  -6.965 -14.614  0.00  0.00    +0.005 A 
ATOM     13  C   UNL     1      10.300  -5.264 -14.705  0.00  0.00    +0.005 A 
ATOM     14  C   UNL     1      12.991  -5.972 -14.574  0.00  0.00    +0.000 A 
ATOM     15  C   UNL     1      11.283  -4.275 -14.664  0.00  0.00    +0.000 A 
ATOM     16  C   UNL     1      12.628  -4.629 -14.601  0.00  0.00    +0.000 A 
ENDBRANCH  10  11
ENDBRANCH   1  10
TORSDOF 2
ENDMDL
MODEL 8
REMARK VINA RESULT:    -5.052      6.637      8.184
REMARK INTER + INTRA:          -5.824
REMARK INTER:                  -5.692
REMARK INTRA:                  -0.131
REMARK UNBOUND:                -0.181
REMARK  Name = 1550473
REMARK  2 active torsions:
REMARK  status: ('A' for Active; 'I' for Inactive)
REMARK    1  A    between atoms: N_1  and  C_4
REMARK    2  A    between atoms: C_4  and  C_5
REMARK                            x       y       z     vdW  Elec       q    Type
REMARK                         _______ _______ _______ _____ _____    ______ ____
ROOT
ATOM      1  N   UNL     1       2.777   5.079   0.756  0.00  0.00    -0.354 N 
ATOM      2  N   UNL     1       0.930   5.288  -0.626  0.00  0.00    -0.372 N 
ATOM      3  N   UNL     1       1.330   3.272   0.394  0.00  0.00    -0.372 N 
ATOM      4  C   UNL     1       1.691   4.542   0.184  0.00  0.00    +0.166 C 
ATOM      5  H   UNL     1       3.014   6.039   0.532  0.00  0.00    +0.163 HD
ATOM      6  H   UNL     1       0.103   4.911  -1.069  0.00  0.00    +0.159 HD
ATOM      7  H   UNL     1       1.144   6.261  -0.811  0.00  0.00    +0.159 HD
ATOM      8  H   UNL     1       1.864   2.654   0.990  0.00  0.00    +0.159 HD
ATOM      9  H   UNL     1       0.511   2.873  -0.050  0.00  0.00    +0.159 HD
ENDROOT
BRANCH   1  10
ATOM     10  C   UNL     1       3.642   4.368   1.696  0.00  0.00    +0.151 C 
BRANCH  10  11
ATOM     11  C   UNL     1       4.946   4.049   1.019  0.00  0.00    -0.028 A 
ATOM     12  C   UNL     1       6.142   4.627   1.468  0.00  0.00    +0.005 A 
ATOM     13  C   UNL     1       4.993   3.164  -0.070  0.00  0.00    +0.005 A 
ATOM     14  C   UNL     1       7.358   4.308   0.858  0.00  0.00    +0.000 A 
ATOM     15  C   UNL     1       6.209   2.848  -0.676  0.00  0.00    +0.000 A 
ATOM     16  C   UNL     1       7.391   3.418  -0.210  0.00  0.00    +0.000 A 
ENDBRANCH  10  11
ENDBRANCH   1  10
TORSDOF 2
ENDMDL
MODEL 9
REMARK VINA RESULT:    -4.841     11.807     12.665
REMARK INTER + INTRA:          -5.588
REMARK INTER:                  -5.449
REMARK INTRA:                  -0.139
REMARK UNBOUND:                -0.181
REMARK  Name = 1550473
REMARK  2 active torsions:
REMARK  status: ('A' for Active; 'I' for Inactive)
REMARK    1  A    between atoms: N_1  and  C_4
REMARK    2  A    between atoms: C_4  and  C_5
REMARK                            x       y       z     vdW  Elec       q    Type
REMARK                         _______ _______ _______ _____ _____    ______ ____
ROOT
ATOM      1  N   UNL     1       9.782   3.767  -0.577  0.00  0.00    -0.354 N 
ATOM      2  N   UNL     1      11.851   3.816  -1.616  0.00  0.00    -0.372 N 
ATOM      3  N   UNL     1      11.761   3.802   0.677  0.00  0.00    -0.372 N 
ATOM      4  C   UNL     1      11.119   3.795  -0.495  0.00  0.00    +0.166 C 
ATOM      5  H   UNL     1       9.355   3.794  -1.496  0.00  0.00    +0.163 HD
ATOM      6  H   UNL     1      12.862   3.833  -1.586  0.00  0.00    +0.159 HD
ATOM      7  H   UNL     1      11.423   3.795  -2.533  0.00  0.00    +0.159 HD
ATOM      8  H   UNL     1      11.266   3.794   1.559  0.00  0.00    +0.159 HD
ATOM      9  H   UNL     1      12.772   3.832   0.728  0.00  0.00    +0.159 HD
ENDROOT
BRANCH   1  10
ATOM     10  C   UNL     1       8.894   3.689   0.582  0.00  0.00    +0.151 C 
BRANCH  10  11
ATOM     11  C   UNL     1       8.174   2.369   0.561  0.00  0.00    -0.028 A 
ATOM     12  C   UNL     1       7.413   1.955   1.664  0.00  0.00    +0.005 A 
ATOM     13  C   UNL     1       8.245   1.529  -0.561  0.00  0.00    +0.005 A 
ATOM     14  C   UNL     1       6.721   0.742   1.634  0.00  0.00    +0.000 A 
ATOM     15  C   UNL     1       7.552   0.319  -0.588  0.00  0.00    +0.000 A 
ATOM     16  C   UNL     1       6.788  -0.073   0.509  0.00  0.00    +0.000 A 
ENDBRANCH  10  11
ENDBRANCH   1  10
TORSDOF 2
ENDMDL
