MODEL 1
REMARK VINA RESULT:    -6.158      0.000      0.000
REMARK INTER + INTRA:          -6.985
REMARK INTER:                  -6.878
REMARK INTRA:                  -0.108
REMARK UNBOUND:                -0.108
REMARK  Name = 1550473
REMARK  2 active torsions:
REMARK  status: ('A' for Active; 'I' for Inactive)
REMARK    1  A    between atoms: N_1  and  C_4
REMARK    2  A    between atoms: C_4  and  C_5
REMARK                            x       y       z     vdW  Elec       q    Type
REMARK                         _______ _______ _______ _____ _____    ______ ____
ROOT
ATOM      1  N   UNL     1      -4.363  -4.555 -11.139  0.00  0.00    -0.354 N 
ATOM      2  N   UNL     1      -3.382  -2.513 -11.620  0.00  0.00    -0.372 N 
ATOM      3  N   UNL     1      -2.604  -3.723  -9.833  0.00  0.00    -0.372 N 
ATOM      4  C   UNL     1      -3.455  -3.611 -10.858  0.00  0.00    +0.166 C 
ATOM      5  H   UNL     1      -4.999  -4.396 -11.912  0.00  0.00    +0.163 HD
ATOM      6  H   UNL     1      -2.705  -1.785 -11.435  0.00  0.00    +0.159 HD
ATOM      7  H   UNL     1      -3.989  -2.378 -12.420  0.00  0.00    +0.159 HD
ATOM      8  H   UNL     1      -2.611  -4.524  -9.216  0.00  0.00    +0.159 HD
ATOM      9  H   UNL     1      -1.927  -3.000  -9.624  0.00  0.00    +0.159 HD
ENDROOT
BRANCH   1  10
ATOM     10  C   UNL     1      -4.489  -5.812 -10.404  0.00  0.00    +0.151 C 
BRANCH  10  11
ATOM     11  C   UNL     1      -5.061  -6.860 -11.318  0.00  0.00    -0.028 A 
ATOM     12  C   UNL     1      -4.482  -8.135 -11.390  0.00  0.00    +0.005 A 
ATOM     13  C   UNL     1      -6.186  -6.586 -12.112  0.00  0.00    +0.005 A 
ATOM     14  C   UNL     1      -5.031  -9.119 -12.217  0.00  0.00    +0.000 A 
ATOM     15  C   UNL     1      -6.730  -7.570 -12.937  0.00  0.00    +0.000 A 
ATOM     16  C   UNL     1      -6.154  -8.837 -12.987  0.00  0.00    +0.000 A 
ENDBRANCH  10  11
ENDBRANCH   1  10
TORSDOF 2
ENDMDL
MODEL 2
REMARK VINA RESULT:    -5.779      6.068      7.693
REMARK INTER + INTRA:          -6.563
REMARK INTER:                  -6.467
REMARK INTRA:                  -0.096
REMARK UNBOUND:                -0.108
REMARK  Name = 1550473
REMARK  2 active torsions:
REMARK  status: ('A' for Active; 'I' for Inactive)
REMARK    1  A    between atoms: N_1  and  C_4
REMARK    2  A    between atoms: C_4  and  C_5
REMARK                            x       y       z     vdW  Elec       q    Type
REMARK                         _______ _______ _______ _____ _____    ______ ____
ROOT
ATOM      1  N   UNL     1      -5.596 -12.187 -14.256  0.00  0.00    -0.354 N 
ATOM      2  N   UNL     1      -3.805 -11.054 -15.189  0.00  0.00    -0.372 N 
ATOM      3  N   UNL     1      -4.589 -10.392 -13.137  0.00  0.00    -0.372 N 
ATOM      4  C   UNL     1      -4.676 -11.217 -14.186  0.00  0.00    +0.166 C 
ATOM      5  H   UNL     1      -5.629 -12.760 -15.092  0.00  0.00    +0.163 HD
ATOM      6  H   UNL     1      -3.097 -10.332 -15.163  0.00  0.00    +0.159 HD
ATOM      7  H   UNL     1      -3.811 -11.657 -16.003  0.00  0.00    +0.159 HD
ATOM      8  H   UNL     1      -5.220 -10.459 -12.349  0.00  0.00    +0.159 HD
ATOM      9  H   UNL     1      -3.894  -9.656 -13.097  0.00  0.00    +0.159 HD
ENDROOT
BRANCH   1  10
ATOM     10  C   UNL     1      -6.556 -12.483 -13.193  0.00  0.00    +0.151 C 
BRANCH  10  11
ATOM     11  C   UNL     1      -7.750 -13.175 -13.789  0.00  0.00    -0.028 A 
ATOM     12  C   UNL     1      -7.755 -14.568 -13.958  0.00  0.00    +0.005 A 
ATOM     13  C   UNL     1      -8.883 -12.445 -14.180  0.00  0.00    +0.005 A 
ATOM     14  C   UNL     1      -8.877 -15.215 -14.483  0.00  0.00    +0.000 A 
ATOM     15  C   UNL     1     -10.000 -13.095 -14.705  0.00  0.00    +0.000 A 
ATOM     16  C   UNL     1      -9.998 -14.480 -14.854  0.00  0.00    +0.000 A 
ENDBRANCH  10  11
ENDBRANCH   1  10
TORSDOF 2
ENDMDL
MODEL 3
REMARK VINA RESULT:    -5.602      3.643      5.323
REMARK INTER + INTRA:          -6.364
REMARK INTER:                  -6.249
REMARK INTRA:                  -0.116
REMARK UNBOUND:                -0.108
REMARK  Name = 1550473
REMARK  2 active torsions:
REMARK  status: ('A' for Active; 'I' for Inactive)
REMARK    1  A    between atoms: N_1  and  C_4
REMARK    2  A    between atoms: C_4  and  C_5
REMARK                            x       y       z     vdW  Elec       q    Type
REMARK                         _______ _______ _______ _____ _____    ______ ____
ROOT
ATOM      1  N   UNL     1      -5.490  -9.474 -12.512  0.00  0.00    -0.354 N 
ATOM      2  N   UNL     1      -6.815 -10.791 -13.881  0.00  0.00    -0.372 N 
ATOM      3  N   UNL     1      -4.539 -10.828 -14.172  0.00  0.00    -0.372 N 
ATOM      4  C   UNL     1      -5.603 -10.356 -13.514  0.00  0.00    +0.166 C 
ATOM      5  H   UNL     1      -6.337  -9.132 -12.073  0.00  0.00    +0.163 HD
ATOM      6  H   UNL     1      -6.932 -11.459 -14.631  0.00  0.00    +0.159 HD
ATOM      7  H   UNL     1      -7.657 -10.482 -13.410  0.00  0.00    +0.159 HD
ATOM      8  H   UNL     1      -3.598 -10.534 -13.948  0.00  0.00    +0.159 HD
ATOM      9  H   UNL     1      -4.636 -11.488 -14.933  0.00  0.00    +0.159 HD
ENDROOT
BRANCH   1  10
ATOM     10  C   UNL     1      -4.214  -8.978 -12.000  0.00  0.00    +0.151 C 
BRANCH  10  11
ATOM     11  C   UNL     1      -4.456  -7.724 -11.207  0.00  0.00    -0.028 A 
ATOM     12  C   UNL     1      -3.811  -7.522  -9.978  0.00  0.00    +0.005 A 
ATOM     13  C   UNL     1      -5.327  -6.730 -11.681  0.00  0.00    +0.005 A 
ATOM     14  C   UNL     1      -4.013  -6.343  -9.255  0.00  0.00    +0.000 A 
ATOM     15  C   UNL     1      -5.527  -5.556 -10.956  0.00  0.00    +0.000 A 
ATOM     16  C   UNL     1      -4.868  -5.362  -9.745  0.00  0.00    +0.000 A 
ENDBRANCH  10  11
ENDBRANCH   1  10
TORSDOF 2
ENDMDL
MODEL 4
REMARK VINA RESULT:    -5.240     12.578     13.689
REMARK INTER + INTRA:          -5.960
REMARK INTER:                  -5.823
REMARK INTRA:                  -0.137
REMARK UNBOUND:                -0.108
REMARK  Name = 1550473
REMARK  2 active torsions:
REMARK  status: ('A' for Active; 'I' for Inactive)
REMARK    1  A    between atoms: N_1  and  C_4
REMARK    2  A    between atoms: C_4  and  C_5
REMARK                            x       y       z     vdW  Elec       q    Type
REMARK                         _______ _______ _______ _____ _____    ______ ____
ROOT
ATOM      1  N   UNL     1       6.771   1.506 -13.895  0.00  0.00    -0.354 N 
ATOM      2  N   UNL     1       5.901   3.108 -12.467  0.00  0.00    -0.372 N 
ATOM      3  N   UNL     1       7.477   3.738 -14.011  0.00  0.00    -0.372 N 
ATOM      4  C   UNL     1       6.724   2.775 -13.469  0.00  0.00    +0.166 C 
ATOM      5  H   UNL     1       6.197   0.817 -13.422  0.00  0.00    +0.163 HD
ATOM      6  H   UNL     1       5.841   4.058 -12.126  0.00  0.00    +0.159 HD
ATOM      7  H   UNL     1       5.295   2.427 -12.026  0.00  0.00    +0.159 HD
ATOM      8  H   UNL     1       8.123   3.550 -14.767  0.00  0.00    +0.159 HD
ATOM      9  H   UNL     1       7.440   4.692 -13.676  0.00  0.00    +0.159 HD
ENDROOT
BRANCH   1  10
ATOM     10  C   UNL     1       7.593   1.050 -15.015  0.00  0.00    +0.151 C 
BRANCH  10  11
ATOM     11  C   UNL     1       6.788   0.102 -15.861  0.00  0.00    -0.028 A 
ATOM     12  C   UNL     1       7.423  -0.907 -16.599  0.00  0.00    +0.005 A 
ATOM     13  C   UNL     1       5.390   0.206 -15.925  0.00  0.00    +0.005 A 
ATOM     14  C   UNL     1       6.674  -1.806 -17.362  0.00  0.00    +0.000 A 
ATOM     15  C   UNL     1       4.646  -0.693 -16.688  0.00  0.00    +0.000 A 
ATOM     16  C   UNL     1       5.288  -1.701 -17.405  0.00  0.00    +0.000 A 
ENDBRANCH  10  11
ENDBRANCH   1  10
TORSDOF 2
ENDMDL
MODEL 5
REMARK VINA RESULT:    -5.109      3.699      5.256
REMARK INTER + INTRA:          -5.814
REMARK INTER:                  -5.709
REMARK INTRA:                  -0.105
REMARK UNBOUND:                -0.108
REMARK  Name = 1550473
REMARK  2 active torsions:
REMARK  status: ('A' for Active; 'I' for Inactive)
REMARK    1  A    between atoms: N_1  and  C_4
REMARK    2  A    between atoms: C_4  and  C_5
REMARK                            x       y       z     vdW  Elec       q    Type
REMARK                         _______ _______ _______ _____ _____    ______ ____
ROOT
ATOM      1  N   UNL     1      -6.073  -9.060 -12.876  0.00  0.00    -0.354 N 
ATOM      2  N   UNL     1      -6.710  -6.869 -12.481  0.00  0.00    -0.372 N 
ATOM      3  N   UNL     1      -4.515  -7.460 -12.169  0.00  0.00    -0.372 N 
ATOM      4  C   UNL     1      -5.759  -7.810 -12.510  0.00  0.00    +0.166 C 
ATOM      5  H   UNL     1      -7.041  -9.269 -13.094  0.00  0.00    +0.163 HD
ATOM      6  H   UNL     1      -6.502  -5.916 -12.213  0.00  0.00    +0.159 HD
ATOM      7  H   UNL     1      -7.667  -7.069 -12.744  0.00  0.00    +0.159 HD
ATOM      8  H   UNL     1      -3.753  -8.125 -12.164  0.00  0.00    +0.159 HD
ATOM      9  H   UNL     1      -4.289  -6.514 -11.886  0.00  0.00    +0.159 HD
ENDROOT
BRANCH   1  10
ATOM     10  C   UNL     1      -5.103 -10.147 -12.992  0.00  0.00    +0.151 C 
BRANCH  10  11
ATOM     11  C   UNL     1      -5.770 -11.336 -13.627  0.00  0.00    -0.028 A 
ATOM     12  C   UNL     1      -7.000 -11.804 -13.143  0.00  0.00    +0.005 A 
ATOM     13  C   UNL     1      -5.180 -11.996 -14.716  0.00  0.00    +0.005 A 
ATOM     14  C   UNL     1      -7.635 -12.890 -13.751  0.00  0.00    +0.000 A 
ATOM     15  C   UNL     1      -5.816 -13.080 -15.319  0.00  0.00    +0.000 A 
ATOM     16  C   UNL     1      -7.045 -13.525 -14.838  0.00  0.00    +0.000 A 
ENDBRANCH  10  11
ENDBRANCH   1  10
TORSDOF 2
ENDMDL
MODEL 6
REMARK VINA RESULT:    -5.070      4.928      6.613
REMARK INTER + INTRA:          -5.770
REMARK INTER:                  -5.633
REMARK INTRA:                  -0.137
REMARK UNBOUND:                -0.108
REMARK  Name = 1550473
REMARK  2 active torsions:
REMARK  status: ('A' for Active; 'I' for Inactive)
REMARK    1  A    between atoms: N_1  and  C_4
REMARK    2  A    between atoms: C_4  and  C_5
REMARK                            x       y       z     vdW  Elec       q    Type
REMARK                         _______ _______ _______ _____ _____    ______ ____
ROOT
ATOM      1  N   UNL     1      -6.093 -11.725 -13.372  0.00  0.00    -0.354 N 
ATOM      2  N   UNL     1      -7.446 -13.270 -14.443  0.00  0.00    -0.372 N 
ATOM      3  N   UNL     1      -5.363 -12.837 -15.302  0.00  0.00    -0.372 N 
ATOM      4  C   UNL     1      -6.290 -12.601 -14.367  0.00  0.00    +0.166 C 
ATOM      5  H   UNL     1      -6.846 -11.569 -12.712  0.00  0.00    +0.163 HD
ATOM      6  H   UNL     1      -7.622 -13.939 -15.180  0.00  0.00    +0.159 HD
ATOM      7  H   UNL     1      -8.180 -13.146 -13.756  0.00  0.00    +0.159 HD
ATOM      8  H   UNL     1      -4.472 -12.360 -15.305  0.00  0.00    +0.159 HD
ATOM      9  H   UNL     1      -5.525 -13.494 -16.055  0.00  0.00    +0.159 HD
ENDROOT
BRANCH   1  10
ATOM     10  C   UNL     1      -4.849 -10.985 -13.169  0.00  0.00    +0.151 C 
BRANCH  10  11
ATOM     11  C   UNL     1      -5.177  -9.567 -12.791  0.00  0.00    -0.028 A 
ATOM     12  C   UNL     1      -4.287  -8.813 -12.013  0.00  0.00    +0.005 A 
ATOM     13  C   UNL     1      -6.375  -8.969 -13.214  0.00  0.00    +0.005 A 
ATOM     14  C   UNL     1      -4.578  -7.486 -11.687  0.00  0.00    +0.000 A 
ATOM     15  C   UNL     1      -6.662  -7.645 -12.886  0.00  0.00    +0.000 A 
ATOM     16  C   UNL     1      -5.762  -6.902 -12.125  0.00  0.00    +0.000 A 
ENDBRANCH  10  11
ENDBRANCH   1  10
TORSDOF 2
ENDMDL
MODEL 7
REMARK VINA RESULT:    -5.056     12.766     14.120
REMARK INTER + INTRA:          -5.755
REMARK INTER:                  -5.625
REMARK INTRA:                  -0.130
REMARK UNBOUND:                -0.108
REMARK  Name = 1550473
REMARK  2 active torsions:
REMARK  status: ('A' for Active; 'I' for Inactive)
REMARK    1  A    between atoms: N_1  and  C_4
REMARK    2  A    between atoms: C_4  and  C_5
REMARK                            x       y       z     vdW  Elec       q    Type
REMARK                         _______ _______ _______ _____ _____    ______ ____
ROOT
ATOM      1  N   UNL     1       3.828 -12.132  -4.430  0.00  0.00    -0.354 N 
ATOM      2  N   UNL     1       1.676 -12.891  -4.827  0.00  0.00    -0.372 N 
ATOM      3  N   UNL     1       2.513 -11.197  -6.130  0.00  0.00    -0.372 N 
ATOM      4  C   UNL     1       2.687 -12.066  -5.128  0.00  0.00    +0.166 C 
ATOM      5  H   UNL     1       3.886 -12.792  -3.663  0.00  0.00    +0.163 HD
ATOM      6  H   UNL     1       0.804 -12.866  -5.339  0.00  0.00    +0.159 HD
ATOM      7  H   UNL     1       1.753 -13.581  -4.090  0.00  0.00    +0.159 HD
ATOM      8  H   UNL     1       3.235 -10.543  -6.403  0.00  0.00    +0.159 HD
ATOM      9  H   UNL     1       1.643 -11.150  -6.646  0.00  0.00    +0.159 HD
ENDROOT
BRANCH   1  10
ATOM     10  C   UNL     1       5.008 -11.316  -4.713  0.00  0.00    +0.151 C 
BRANCH  10  11
ATOM     11  C   UNL     1       5.510 -10.717  -3.428  0.00  0.00    -0.028 A 
ATOM     12  C   UNL     1       6.633 -11.254  -2.782  0.00  0.00    +0.005 A 
ATOM     13  C   UNL     1       4.870  -9.607  -2.854  0.00  0.00    +0.005 A 
ATOM     14  C   UNL     1       7.117 -10.680  -1.605  0.00  0.00    +0.000 A 
ATOM     15  C   UNL     1       5.356  -9.037  -1.678  0.00  0.00    +0.000 A 
ATOM     16  C   UNL     1       6.481  -9.572  -1.055  0.00  0.00    +0.000 A 
ENDBRANCH  10  11
ENDBRANCH   1  10
TORSDOF 2
ENDMDL
MODEL 8
REMARK VINA RESULT:    -4.955      7.897      9.349
REMARK INTER + INTRA:          -5.642
REMARK INTER:                  -5.463
REMARK INTRA:                  -0.179
REMARK UNBOUND:                -0.108
REMARK  Name = 1550473
REMARK  2 active torsions:
REMARK  status: ('A' for Active; 'I' for Inactive)
REMARK    1  A    between atoms: N_1  and  C_4
REMARK    2  A    between atoms: C_4  and  C_5
REMARK                            x       y       z     vdW  Elec       q    Type
REMARK                         _______ _______ _______ _____ _____    ______ ____
ROOT
ATOM      1  N   UNL     1      -1.846  -2.749 -20.077  0.00  0.00    -0.354 N 
ATOM      2  N   UNL     1      -0.346  -4.498 -20.314  0.00  0.00    -0.372 N 
ATOM      3  N   UNL     1      -2.429  -4.933 -19.456  0.00  0.00    -0.372 N 
ATOM      4  C   UNL     1      -1.552  -4.050 -19.946  0.00  0.00    +0.166 C 
ATOM      5  H   UNL     1      -1.127  -2.126 -20.427  0.00  0.00    +0.163 HD
ATOM      6  H   UNL     1      -0.097  -5.474 -20.230  0.00  0.00    +0.159 HD
ATOM      7  H   UNL     1       0.355  -3.881 -20.706  0.00  0.00    +0.159 HD
ATOM      8  H   UNL     1      -3.354  -4.657 -19.155  0.00  0.00    +0.159 HD
ATOM      9  H   UNL     1      -2.194  -5.912 -19.354  0.00  0.00    +0.159 HD
ENDROOT
BRANCH   1  10
ATOM     10  C   UNL     1      -3.149  -2.169 -19.756  0.00  0.00    +0.151 C 
BRANCH  10  11
ATOM     11  C   UNL     1      -3.088  -1.554 -18.385  0.00  0.00    -0.028 A 
ATOM     12  C   UNL     1      -3.754  -2.153 -17.306  0.00  0.00    +0.005 A 
ATOM     13  C   UNL     1      -2.362  -0.375 -18.158  0.00  0.00    +0.005 A 
ATOM     14  C   UNL     1      -3.674  -1.598 -16.027  0.00  0.00    +0.000 A 
ATOM     15  C   UNL     1      -2.285   0.177 -16.879  0.00  0.00    +0.000 A 
ATOM     16  C   UNL     1      -2.939  -0.437 -15.813  0.00  0.00    +0.000 A 
ENDBRANCH  10  11
ENDBRANCH   1  10
TORSDOF 2
ENDMDL
MODEL 9
REMARK VINA RESULT:    -4.930     10.507     11.972
REMARK INTER + INTRA:          -5.615
REMARK INTER:                  -5.521
REMARK INTRA:                  -0.094
REMARK UNBOUND:                -0.108
REMARK  Name = 1550473
REMARK  2 active torsions:
REMARK  status: ('A' for Active; 'I' for Inactive)
REMARK    1  A    between atoms: N_1  and  C_4
REMARK    2  A    between atoms: C_4  and  C_5
REMARK                            x       y       z     vdW  Elec       q    Type
REMARK                         _______ _______ _______ _____ _____    ______ ____
ROOT
ATOM      1  N   UNL     1      -2.193   6.959 -13.356  0.00  0.00    -0.354 N 
ATOM      2  N   UNL     1      -1.898   9.232 -13.691  0.00  0.00    -0.372 N 
ATOM      3  N   UNL     1      -0.056   7.919 -13.308  0.00  0.00    -0.372 N 
ATOM      4  C   UNL     1      -1.382   8.021 -13.449  0.00  0.00    +0.166 C 
ATOM      5  H   UNL     1      -3.192   7.108 -13.443  0.00  0.00    +0.163 HD
ATOM      6  H   UNL     1      -1.310  10.051 -13.770  0.00  0.00    +0.159 HD
ATOM      7  H   UNL     1      -2.893   9.370 -13.823  0.00  0.00    +0.159 HD
ATOM      8  H   UNL     1       0.396   7.034 -13.118  0.00  0.00    +0.159 HD
ATOM      9  H   UNL     1       0.548   8.729 -13.372  0.00  0.00    +0.159 HD
ENDROOT
BRANCH   1  10
ATOM     10  C   UNL     1      -1.727   5.589 -13.148  0.00  0.00    +0.151 C 
BRANCH  10  11
ATOM     11  C   UNL     1      -2.880   4.644 -13.340  0.00  0.00    -0.028 A 
ATOM     12  C   UNL     1      -2.916   3.779 -14.444  0.00  0.00    +0.005 A 
ATOM     13  C   UNL     1      -3.937   4.603 -12.418  0.00  0.00    +0.005 A 
ATOM     14  C   UNL     1      -3.973   2.879 -14.606  0.00  0.00    +0.000 A 
ATOM     15  C   UNL     1      -4.991   3.704 -12.584  0.00  0.00    +0.000 A 
ATOM     16  C   UNL     1      -5.007   2.840 -13.677  0.00  0.00    +0.000 A 
ENDBRANCH  10  11
ENDBRANCH   1  10
TORSDOF 2
ENDMDL
