MODEL 1
REMARK VINA RESULT:    -6.552      0.000      0.000
REMARK INTER + INTRA:          -7.472
REMARK INTER:                  -7.318
REMARK INTRA:                  -0.153
REMARK UNBOUND:                -0.153
REMARK  Name = 1550473
REMARK  2 active torsions:
REMARK  status: ('A' for Active; 'I' for Inactive)
REMARK    1  A    between atoms: N_1  and  C_4
REMARK    2  A    between atoms: C_4  and  C_5
REMARK                            x       y       z     vdW  Elec       q    Type
REMARK                         _______ _______ _______ _____ _____    ______ ____
ROOT
ATOM      1  N   UNL     1      -1.175  -3.228  -8.987  0.00  0.00    -0.354 N 
ATOM      2  N   UNL     1       0.417  -1.739  -8.205  0.00  0.00    -0.372 N 
ATOM      3  N   UNL     1      -0.198  -1.646 -10.414  0.00  0.00    -0.372 N 
ATOM      4  C   UNL     1      -0.329  -2.213  -9.210  0.00  0.00    +0.166 C 
ATOM      5  H   UNL     1      -1.206  -3.634  -8.059  0.00  0.00    +0.163 HD
ATOM      6  H   UNL     1       1.062  -0.972  -8.342  0.00  0.00    +0.159 HD
ATOM      7  H   UNL     1       0.351  -2.116  -7.268  0.00  0.00    +0.159 HD
ATOM      8  H   UNL     1      -0.728  -1.962 -11.215  0.00  0.00    +0.159 HD
ATOM      9  H   UNL     1       0.450  -0.885 -10.574  0.00  0.00    +0.159 HD
ENDROOT
BRANCH   1  10
ATOM     10  C   UNL     1      -2.071  -3.783 -10.000  0.00  0.00    +0.151 C 
BRANCH  10  11
ATOM     11  C   UNL     1      -1.805  -5.256 -10.137  0.00  0.00    -0.028 A 
ATOM     12  C   UNL     1      -0.589  -5.714 -10.665  0.00  0.00    +0.005 A 
ATOM     13  C   UNL     1      -2.763  -6.200  -9.735  0.00  0.00    +0.005 A 
ATOM     14  C   UNL     1      -0.330  -7.083 -10.765  0.00  0.00    +0.000 A 
ATOM     15  C   UNL     1      -2.500  -7.566  -9.837  0.00  0.00    +0.000 A 
ATOM     16  C   UNL     1      -1.282  -8.007 -10.349  0.00  0.00    +0.000 A 
ENDBRANCH  10  11
ENDBRANCH   1  10
TORSDOF 2
ENDMDL
MODEL 2
REMARK VINA RESULT:    -6.403      0.787      1.738
REMARK INTER + INTRA:          -7.305
REMARK INTER:                  -7.156
REMARK INTRA:                  -0.150
REMARK UNBOUND:                -0.153
REMARK  Name = 1550473
REMARK  2 active torsions:
REMARK  status: ('A' for Active; 'I' for Inactive)
REMARK    1  A    between atoms: N_1  and  C_4
REMARK    2  A    between atoms: C_4  and  C_5
REMARK                            x       y       z     vdW  Elec       q    Type
REMARK                         _______ _______ _______ _____ _____    ______ ____
ROOT
ATOM      1  N   UNL     1       0.426  -3.595  -9.731  0.00  0.00    -0.354 N 
ATOM      2  N   UNL     1       0.348  -1.691  -8.415  0.00  0.00    -0.372 N 
ATOM      3  N   UNL     1      -0.487  -1.599 -10.550  0.00  0.00    -0.372 N 
ATOM      4  C   UNL     1       0.095  -2.307  -9.576  0.00  0.00    +0.166 C 
ATOM      5  H   UNL     1       0.893  -4.068  -8.965  0.00  0.00    +0.163 HD
ATOM      6  H   UNL     1       0.106  -0.720  -8.268  0.00  0.00    +0.159 HD
ATOM      7  H   UNL     1       0.772  -2.178  -7.635  0.00  0.00    +0.159 HD
ATOM      8  H   UNL     1      -0.699  -2.003 -11.453  0.00  0.00    +0.159 HD
ATOM      9  H   UNL     1      -0.726  -0.623 -10.426  0.00  0.00    +0.159 HD
ENDROOT
BRANCH   1  10
ATOM     10  C   UNL     1       0.146  -4.373 -10.937  0.00  0.00    +0.151 C 
BRANCH  10  11
ATOM     11  C   UNL     1      -0.690  -5.567 -10.568  0.00  0.00    -0.028 A 
ATOM     12  C   UNL     1      -1.986  -5.399 -10.059  0.00  0.00    +0.005 A 
ATOM     13  C   UNL     1      -0.195  -6.870 -10.730  0.00  0.00    +0.005 A 
ATOM     14  C   UNL     1      -2.775  -6.508  -9.744  0.00  0.00    +0.000 A 
ATOM     15  C   UNL     1      -0.985  -7.975 -10.414  0.00  0.00    +0.000 A 
ATOM     16  C   UNL     1      -2.276  -7.794  -9.923  0.00  0.00    +0.000 A 
ENDBRANCH  10  11
ENDBRANCH   1  10
TORSDOF 2
ENDMDL
MODEL 3
REMARK VINA RESULT:    -6.355      1.371      2.063
REMARK INTER + INTRA:          -7.252
REMARK INTER:                  -7.126
REMARK INTRA:                  -0.126
REMARK UNBOUND:                -0.153
REMARK  Name = 1550473
REMARK  2 active torsions:
REMARK  status: ('A' for Active; 'I' for Inactive)
REMARK    1  A    between atoms: N_1  and  C_4
REMARK    2  A    between atoms: C_4  and  C_5
REMARK                            x       y       z     vdW  Elec       q    Type
REMARK                         _______ _______ _______ _____ _____    ______ ____
ROOT
ATOM      1  N   UNL     1       0.087  -3.412 -10.727  0.00  0.00    -0.354 N 
ATOM      2  N   UNL     1       1.581  -1.876 -11.605  0.00  0.00    -0.372 N 
ATOM      3  N   UNL     1      -0.547  -1.186 -11.095  0.00  0.00    -0.372 N 
ATOM      4  C   UNL     1       0.362  -2.167 -11.137  0.00  0.00    +0.166 C 
ATOM      5  H   UNL     1       0.809  -4.118 -10.813  0.00  0.00    +0.163 HD
ATOM      6  H   UNL     1       1.819  -0.945 -11.918  0.00  0.00    +0.159 HD
ATOM      7  H   UNL     1       2.316  -2.572 -11.647  0.00  0.00    +0.159 HD
ATOM      8  H   UNL     1      -1.487  -1.341 -10.758  0.00  0.00    +0.159 HD
ATOM      9  H   UNL     1      -0.331  -0.250 -11.415  0.00  0.00    +0.159 HD
ENDROOT
BRANCH   1  10
ATOM     10  C   UNL     1      -1.193  -3.819 -10.150  0.00  0.00    +0.151 C 
BRANCH  10  11
ATOM     11  C   UNL     1      -1.302  -5.318 -10.204  0.00  0.00    -0.028 A 
ATOM     12  C   UNL     1      -2.456  -5.966  -9.739  0.00  0.00    +0.005 A 
ATOM     13  C   UNL     1      -0.257  -6.096 -10.726  0.00  0.00    +0.005 A 
ATOM     14  C   UNL     1      -2.569  -7.356  -9.816  0.00  0.00    +0.000 A 
ATOM     15  C   UNL     1      -0.374  -7.484 -10.801  0.00  0.00    +0.000 A 
ATOM     16  C   UNL     1      -1.531  -8.113 -10.348  0.00  0.00    +0.000 A 
ENDBRANCH  10  11
ENDBRANCH   1  10
TORSDOF 2
ENDMDL
MODEL 4
REMARK VINA RESULT:    -6.073      2.741      3.713
REMARK INTER + INTRA:          -6.936
REMARK INTER:                  -6.768
REMARK INTRA:                  -0.168
REMARK UNBOUND:                -0.153
REMARK  Name = 1550473
REMARK  2 active torsions:
REMARK  status: ('A' for Active; 'I' for Inactive)
REMARK    1  A    between atoms: N_1  and  C_4
REMARK    2  A    between atoms: C_4  and  C_5
REMARK                            x       y       z     vdW  Elec       q    Type
REMARK                         _______ _______ _______ _____ _____    ______ ____
ROOT
ATOM      1  N   UNL     1      -3.898  -4.126 -11.209  0.00  0.00    -0.354 N 
ATOM      2  N   UNL     1      -5.436  -4.135 -12.941  0.00  0.00    -0.372 N 
ATOM      3  N   UNL     1      -3.227  -3.744 -13.422  0.00  0.00    -0.372 N 
ATOM      4  C   UNL     1      -4.175  -4.001 -12.514  0.00  0.00    +0.166 C 
ATOM      5  H   UNL     1      -4.666  -4.291 -10.569  0.00  0.00    +0.163 HD
ATOM      6  H   UNL     1      -5.674  -4.050 -13.920  0.00  0.00    +0.159 HD
ATOM      7  H   UNL     1      -6.195  -4.345 -12.304  0.00  0.00    +0.159 HD
ATOM      8  H   UNL     1      -2.256  -3.626 -13.163  0.00  0.00    +0.159 HD
ATOM      9  H   UNL     1      -3.447  -3.643 -14.405  0.00  0.00    +0.159 HD
ENDROOT
BRANCH   1  10
ATOM     10  C   UNL     1      -2.551  -4.051 -10.648  0.00  0.00    +0.151 C 
BRANCH  10  11
ATOM     11  C   UNL     1      -1.990  -5.441 -10.529  0.00  0.00    -0.028 A 
ATOM     12  C   UNL     1      -2.774  -6.483 -10.011  0.00  0.00    +0.005 A 
ATOM     13  C   UNL     1      -0.678  -5.725 -10.937  0.00  0.00    +0.005 A 
ATOM     14  C   UNL     1      -2.264  -7.781  -9.928  0.00  0.00    +0.000 A 
ATOM     15  C   UNL     1      -0.172  -7.022 -10.851  0.00  0.00    +0.000 A 
ATOM     16  C   UNL     1      -0.966  -8.050 -10.349  0.00  0.00    +0.000 A 
ENDBRANCH  10  11
ENDBRANCH   1  10
TORSDOF 2
ENDMDL
MODEL 5
REMARK VINA RESULT:    -5.788      2.223      2.976
REMARK INTER + INTRA:          -6.618
REMARK INTER:                  -6.487
REMARK INTRA:                  -0.131
REMARK UNBOUND:                -0.153
REMARK  Name = 1550473
REMARK  2 active torsions:
REMARK  status: ('A' for Active; 'I' for Inactive)
REMARK    1  A    between atoms: N_1  and  C_4
REMARK    2  A    between atoms: C_4  and  C_5
REMARK                            x       y       z     vdW  Elec       q    Type
REMARK                         _______ _______ _______ _____ _____    ______ ____
ROOT
ATOM      1  N   UNL     1       1.496  -3.634 -11.079  0.00  0.00    -0.354 N 
ATOM      2  N   UNL     1       1.969  -1.487 -11.809  0.00  0.00    -0.372 N 
ATOM      3  N   UNL     1       2.923  -3.266 -12.901  0.00  0.00    -0.372 N 
ATOM      4  C   UNL     1       2.128  -2.811 -11.927  0.00  0.00    +0.166 C 
ATOM      5  H   UNL     1       0.932  -3.225 -10.343  0.00  0.00    +0.163 HD
ATOM      6  H   UNL     1       2.430  -0.842 -12.437  0.00  0.00    +0.159 HD
ATOM      7  H   UNL     1       1.367  -1.084 -11.101  0.00  0.00    +0.159 HD
ATOM      8  H   UNL     1       3.089  -4.253 -13.040  0.00  0.00    +0.159 HD
ATOM      9  H   UNL     1       3.402  -2.635 -13.532  0.00  0.00    +0.159 HD
ENDROOT
BRANCH   1  10
ATOM     10  C   UNL     1       1.560  -5.092 -11.155  0.00  0.00    +0.151 C 
BRANCH  10  11
ATOM     11  C   UNL     1       0.235  -5.664 -10.731  0.00  0.00    -0.028 A 
ATOM     12  C   UNL     1      -0.032  -7.032 -10.887  0.00  0.00    +0.005 A 
ATOM     13  C   UNL     1      -0.755  -4.845 -10.168  0.00  0.00    +0.005 A 
ATOM     14  C   UNL     1      -1.251  -7.570 -10.467  0.00  0.00    +0.000 A 
ATOM     15  C   UNL     1      -1.971  -5.385  -9.750  0.00  0.00    +0.000 A 
ATOM     16  C   UNL     1      -2.218  -6.748  -9.897  0.00  0.00    +0.000 A 
ENDBRANCH  10  11
ENDBRANCH   1  10
TORSDOF 2
ENDMDL
MODEL 6
REMARK VINA RESULT:    -5.616      3.108      4.551
REMARK INTER + INTRA:          -6.426
REMARK INTER:                  -6.261
REMARK INTRA:                  -0.165
REMARK UNBOUND:                -0.153
REMARK  Name = 1550473
REMARK  2 active torsions:
REMARK  status: ('A' for Active; 'I' for Inactive)
REMARK    1  A    between atoms: N_1  and  C_4
REMARK    2  A    between atoms: C_4  and  C_5
REMARK                            x       y       z     vdW  Elec       q    Type
REMARK                         _______ _______ _______ _____ _____    ______ ____
ROOT
ATOM      1  N   UNL     1       2.993  -0.604 -10.454  0.00  0.00    -0.354 N 
ATOM      2  N   UNL     1       4.895  -0.088  -9.239  0.00  0.00    -0.372 N 
ATOM      3  N   UNL     1       2.872   0.732  -8.533  0.00  0.00    -0.372 N 
ATOM      4  C   UNL     1       3.572   0.012  -9.415  0.00  0.00    +0.166 C 
ATOM      5  H   UNL     1       3.583  -1.110 -11.104  0.00  0.00    +0.163 HD
ATOM      6  H   UNL     1       5.360   0.363  -8.462  0.00  0.00    +0.159 HD
ATOM      7  H   UNL     1       5.477  -0.632  -9.864  0.00  0.00    +0.159 HD
ATOM      8  H   UNL     1       1.871   0.851  -8.614  0.00  0.00    +0.159 HD
ATOM      9  H   UNL     1       3.320   1.201  -7.756  0.00  0.00    +0.159 HD
ENDROOT
BRANCH   1  10
ATOM     10  C   UNL     1       1.553  -0.603 -10.706  0.00  0.00    +0.151 C 
BRANCH  10  11
ATOM     11  C   UNL     1       1.003  -1.974 -10.422  0.00  0.00    -0.028 A 
ATOM     12  C   UNL     1       0.127  -2.181  -9.346  0.00  0.00    +0.005 A 
ATOM     13  C   UNL     1       1.350  -3.069 -11.228  0.00  0.00    +0.005 A 
ATOM     14  C   UNL     1      -0.407  -3.448  -9.100  0.00  0.00    +0.000 A 
ATOM     15  C   UNL     1       0.815  -4.333 -10.978  0.00  0.00    +0.000 A 
ATOM     16  C   UNL     1      -0.065  -4.521  -9.915  0.00  0.00    +0.000 A 
ENDBRANCH  10  11
ENDBRANCH   1  10
TORSDOF 2
ENDMDL
MODEL 7
REMARK VINA RESULT:    -5.539      2.294      3.393
REMARK INTER + INTRA:          -6.340
REMARK INTER:                  -6.235
REMARK INTRA:                  -0.105
REMARK UNBOUND:                -0.153
REMARK  Name = 1550473
REMARK  2 active torsions:
REMARK  status: ('A' for Active; 'I' for Inactive)
REMARK    1  A    between atoms: N_1  and  C_4
REMARK    2  A    between atoms: C_4  and  C_5
REMARK                            x       y       z     vdW  Elec       q    Type
REMARK                         _______ _______ _______ _____ _____    ______ ____
ROOT
ATOM      1  N   UNL     1       1.629  -1.062  -9.689  0.00  0.00    -0.354 N 
ATOM      2  N   UNL     1       2.744   0.620  -8.552  0.00  0.00    -0.372 N 
ATOM      3  N   UNL     1       3.298   0.204 -10.740  0.00  0.00    -0.372 N 
ATOM      4  C   UNL     1       2.551  -0.090  -9.670  0.00  0.00    +0.166 C 
ATOM      5  H   UNL     1       1.117  -1.256  -8.836  0.00  0.00    +0.163 HD
ATOM      6  H   UNL     1       3.430   1.361  -8.509  0.00  0.00    +0.159 HD
ATOM      7  H   UNL     1       2.199   0.455  -7.715  0.00  0.00    +0.159 HD
ATOM      8  H   UNL     1       3.205  -0.299 -11.612  0.00  0.00    +0.159 HD
ATOM      9  H   UNL     1       3.998   0.935 -10.712  0.00  0.00    +0.159 HD
ENDROOT
BRANCH   1  10
ATOM     10  C   UNL     1       1.303  -1.857 -10.871  0.00  0.00    +0.151 C 
BRANCH  10  11
ATOM     11  C   UNL     1       0.369  -2.967 -10.475  0.00  0.00    -0.028 A 
ATOM     12  C   UNL     1       0.623  -4.288 -10.873  0.00  0.00    +0.005 A 
ATOM     13  C   UNL     1      -0.768  -2.705  -9.696  0.00  0.00    +0.005 A 
ATOM     14  C   UNL     1      -0.228  -5.323 -10.480  0.00  0.00    +0.000 A 
ATOM     15  C   UNL     1      -1.616  -3.742  -9.306  0.00  0.00    +0.000 A 
ATOM     16  C   UNL     1      -1.344  -5.051  -9.696  0.00  0.00    +0.000 A 
ENDBRANCH  10  11
ENDBRANCH   1  10
TORSDOF 2
ENDMDL
MODEL 8
REMARK VINA RESULT:    -5.410      3.268      4.447
REMARK INTER + INTRA:          -6.196
REMARK INTER:                  -6.066
REMARK INTRA:                  -0.130
REMARK UNBOUND:                -0.153
REMARK  Name = 1550473
REMARK  2 active torsions:
REMARK  status: ('A' for Active; 'I' for Inactive)
REMARK    1  A    between atoms: N_1  and  C_4
REMARK    2  A    between atoms: C_4  and  C_5
REMARK                            x       y       z     vdW  Elec       q    Type
REMARK                         _______ _______ _______ _____ _____    ______ ____
ROOT
ATOM      1  N   UNL     1      -3.003  -3.808 -13.030  0.00  0.00    -0.354 N 
ATOM      2  N   UNL     1      -5.173  -4.568 -13.314  0.00  0.00    -0.372 N 
ATOM      3  N   UNL     1      -4.738  -3.050 -11.650  0.00  0.00    -0.372 N 
ATOM      4  C   UNL     1      -4.291  -3.802 -12.661  0.00  0.00    +0.166 C 
ATOM      5  H   UNL     1      -2.722  -4.423 -13.785  0.00  0.00    +0.163 HD
ATOM      6  H   UNL     1      -6.151  -4.581 -13.060  0.00  0.00    +0.159 HD
ATOM      7  H   UNL     1      -4.897  -5.147 -14.098  0.00  0.00    +0.159 HD
ATOM      8  H   UNL     1      -4.123  -2.454 -11.112  0.00  0.00    +0.159 HD
ATOM      9  H   UNL     1      -5.712  -3.059 -11.373  0.00  0.00    +0.159 HD
ENDROOT
BRANCH   1  10
ATOM     10  C   UNL     1      -1.973  -2.971 -12.419  0.00  0.00    +0.151 C 
BRANCH  10  11
ATOM     11  C   UNL     1      -0.901  -3.853 -11.842  0.00  0.00    -0.028 A 
ATOM     12  C   UNL     1      -1.238  -5.046 -11.186  0.00  0.00    +0.005 A 
ATOM     13  C   UNL     1       0.454  -3.505 -11.953  0.00  0.00    +0.005 A 
ATOM     14  C   UNL     1      -0.241  -5.882 -10.676  0.00  0.00    +0.000 A 
ATOM     15  C   UNL     1       1.446  -4.341 -11.442  0.00  0.00    +0.000 A 
ATOM     16  C   UNL     1       1.099  -5.530 -10.806  0.00  0.00    +0.000 A 
ENDBRANCH  10  11
ENDBRANCH   1  10
TORSDOF 2
ENDMDL
MODEL 9
REMARK VINA RESULT:    -5.106      6.633      7.709
REMARK INTER + INTRA:          -5.857
REMARK INTER:                  -5.685
REMARK INTRA:                  -0.171
REMARK UNBOUND:                -0.153
REMARK  Name = 1550473
REMARK  2 active torsions:
REMARK  status: ('A' for Active; 'I' for Inactive)
REMARK    1  A    between atoms: N_1  and  C_4
REMARK    2  A    between atoms: C_4  and  C_5
REMARK                            x       y       z     vdW  Elec       q    Type
REMARK                         _______ _______ _______ _____ _____    ______ ____
ROOT
ATOM      1  N   UNL     1       3.825  -0.483 -10.551  0.00  0.00    -0.354 N 
ATOM      2  N   UNL     1       5.340  -0.128  -8.836  0.00  0.00    -0.372 N 
ATOM      3  N   UNL     1       4.838   1.608 -10.250  0.00  0.00    -0.372 N 
ATOM      4  C   UNL     1       4.658   0.333  -9.891  0.00  0.00    +0.166 C 
ATOM      5  H   UNL     1       3.755  -1.448 -10.247  0.00  0.00    +0.163 HD
ATOM      6  H   UNL     1       5.974   0.465  -8.317  0.00  0.00    +0.159 HD
ATOM      7  H   UNL     1       5.234  -1.080  -8.507  0.00  0.00    +0.159 HD
ATOM      8  H   UNL     1       4.357   2.015 -11.041  0.00  0.00    +0.159 HD
ATOM      9  H   UNL     1       5.477   2.214  -9.750  0.00  0.00    +0.159 HD
ENDROOT
BRANCH   1  10
ATOM     10  C   UNL     1       2.995  -0.066 -11.679  0.00  0.00    +0.151 C 
BRANCH  10  11
ATOM     11  C   UNL     1       3.598  -0.590 -12.953  0.00  0.00    -0.028 A 
ATOM     12  C   UNL     1       4.608   0.127 -13.610  0.00  0.00    +0.005 A 
ATOM     13  C   UNL     1       3.167  -1.807 -13.505  0.00  0.00    +0.005 A 
ATOM     14  C   UNL     1       5.190  -0.375 -14.777  0.00  0.00    +0.000 A 
ATOM     15  C   UNL     1       3.750  -2.304 -14.670  0.00  0.00    +0.000 A 
ATOM     16  C   UNL     1       4.763  -1.589 -15.305  0.00  0.00    +0.000 A 
ENDBRANCH  10  11
ENDBRANCH   1  10
TORSDOF 2
ENDMDL
