MODEL 1
REMARK VINA RESULT:    -5.835      0.000      0.000
REMARK INTER + INTRA:          -6.658
REMARK INTER:                  -6.517
REMARK INTRA:                  -0.141
REMARK UNBOUND:                -0.141
REMARK  Name = 1550473
REMARK  2 active torsions:
REMARK  status: ('A' for Active; 'I' for Inactive)
REMARK    1  A    between atoms: N_1  and  C_4
REMARK    2  A    between atoms: C_4  and  C_5
REMARK                            x       y       z     vdW  Elec       q    Type
REMARK                         _______ _______ _______ _____ _____    ______ ____
ROOT
ATOM      1  N   UNL     1       4.140 -10.668 -13.851  0.00  0.00    -0.354 N 
ATOM      2  N   UNL     1       5.246 -11.421 -11.961  0.00  0.00    -0.372 N 
ATOM      3  N   UNL     1       3.557  -9.887 -11.720  0.00  0.00    -0.372 N 
ATOM      4  C   UNL     1       4.306 -10.652 -12.522  0.00  0.00    +0.166 C 
ATOM      5  H   UNL     1       4.760 -11.246 -14.406  0.00  0.00    +0.163 HD
ATOM      6  H   UNL     1       5.392 -11.433 -10.960  0.00  0.00    +0.159 HD
ATOM      7  H   UNL     1       5.833 -12.033 -12.514  0.00  0.00    +0.159 HD
ATOM      8  H   UNL     1       2.834  -9.279 -12.082  0.00  0.00    +0.159 HD
ATOM      9  H   UNL     1       3.696  -9.876 -10.717  0.00  0.00    +0.159 HD
ENDROOT
BRANCH   1  10
ATOM     10  C   UNL     1       3.110  -9.908 -14.556  0.00  0.00    +0.151 C 
BRANCH  10  11
ATOM     11  C   UNL     1       2.316 -10.845 -15.425  0.00  0.00    -0.028 A 
ATOM     12  C   UNL     1       2.882 -12.045 -15.879  0.00  0.00    +0.005 A 
ATOM     13  C   UNL     1       0.996 -10.541 -15.791  0.00  0.00    +0.005 A 
ATOM     14  C   UNL     1       2.135 -12.930 -16.661  0.00  0.00    +0.000 A 
ATOM     15  C   UNL     1       0.254 -11.427 -16.573  0.00  0.00    +0.000 A 
ATOM     16  C   UNL     1       0.823 -12.622 -17.005  0.00  0.00    +0.000 A 
ENDBRANCH  10  11
ENDBRANCH   1  10
TORSDOF 2
ENDMDL
MODEL 2
REMARK VINA RESULT:    -5.514      9.143      9.802
REMARK INTER + INTRA:          -6.300
REMARK INTER:                  -6.126
REMARK INTRA:                  -0.174
REMARK UNBOUND:                -0.141
REMARK  Name = 1550473
REMARK  2 active torsions:
REMARK  status: ('A' for Active; 'I' for Inactive)
REMARK    1  A    between atoms: N_1  and  C_4
REMARK    2  A    between atoms: C_4  and  C_5
REMARK                            x       y       z     vdW  Elec       q    Type
REMARK                         _______ _______ _______ _____ _____    ______ ____
ROOT
ATOM      1  N   UNL     1      -1.137  -3.456  -9.747  0.00  0.00    -0.354 N 
ATOM      2  N   UNL     1      -0.687  -1.726  -8.275  0.00  0.00    -0.372 N 
ATOM      3  N   UNL     1       0.179  -3.805  -7.840  0.00  0.00    -0.372 N 
ATOM      4  C   UNL     1      -0.550  -3.009  -8.629  0.00  0.00    +0.166 C 
ATOM      5  H   UNL     1      -1.701  -2.809 -10.286  0.00  0.00    +0.163 HD
ATOM      6  H   UNL     1      -0.253  -1.359  -7.439  0.00  0.00    +0.159 HD
ATOM      7  H   UNL     1      -1.214  -1.070  -8.840  0.00  0.00    +0.159 HD
ATOM      8  H   UNL     1       0.316  -4.785  -8.048  0.00  0.00    +0.159 HD
ATOM      9  H   UNL     1       0.612  -3.460  -6.992  0.00  0.00    +0.159 HD
ENDROOT
BRANCH   1  10
ATOM     10  C   UNL     1      -1.005  -4.822 -10.250  0.00  0.00    +0.151 C 
BRANCH  10  11
ATOM     11  C   UNL     1      -2.317  -5.537 -10.079  0.00  0.00    -0.028 A 
ATOM     12  C   UNL     1      -3.259  -5.554 -11.118  0.00  0.00    +0.005 A 
ATOM     13  C   UNL     1      -2.621  -6.205  -8.883  0.00  0.00    +0.005 A 
ATOM     14  C   UNL     1      -4.465  -6.243 -10.970  0.00  0.00    +0.000 A 
ATOM     15  C   UNL     1      -3.827  -6.891  -8.740  0.00  0.00    +0.000 A 
ATOM     16  C   UNL     1      -4.748  -6.912  -9.784  0.00  0.00    +0.000 A 
ENDBRANCH  10  11
ENDBRANCH   1  10
TORSDOF 2
ENDMDL
MODEL 3
REMARK VINA RESULT:    -5.456     12.806     14.101
REMARK INTER + INTRA:          -6.235
REMARK INTER:                  -6.118
REMARK INTRA:                  -0.117
REMARK UNBOUND:                -0.141
REMARK  Name = 1550473
REMARK  2 active torsions:
REMARK  status: ('A' for Active; 'I' for Inactive)
REMARK    1  A    between atoms: N_1  and  C_4
REMARK    2  A    between atoms: C_4  and  C_5
REMARK                            x       y       z     vdW  Elec       q    Type
REMARK                         _______ _______ _______ _____ _____    ______ ____
ROOT
ATOM      1  N   UNL     1      -3.883  -4.342  -6.233  0.00  0.00    -0.354 N 
ATOM      2  N   UNL     1      -3.641  -3.949  -8.503  0.00  0.00    -0.372 N 
ATOM      3  N   UNL     1      -1.762  -4.288  -7.229  0.00  0.00    -0.372 N 
ATOM      4  C   UNL     1      -3.094  -4.195  -7.306  0.00  0.00    +0.166 C 
ATOM      5  H   UNL     1      -4.883  -4.230  -6.352  0.00  0.00    +0.163 HD
ATOM      6  H   UNL     1      -3.071  -3.837  -9.331  0.00  0.00    +0.159 HD
ATOM      7  H   UNL     1      -4.644  -3.883  -8.627  0.00  0.00    +0.159 HD
ATOM      8  H   UNL     1      -1.287  -4.466  -6.354  0.00  0.00    +0.159 HD
ATOM      9  H   UNL     1      -1.175  -4.167  -8.045  0.00  0.00    +0.159 HD
ENDROOT
BRANCH   1  10
ATOM     10  C   UNL     1      -3.391  -4.666  -4.895  0.00  0.00    +0.151 C 
BRANCH  10  11
ATOM     11  C   UNL     1      -4.500  -5.306  -4.106  0.00  0.00    -0.028 A 
ATOM     12  C   UNL     1      -4.210  -6.229  -3.091  0.00  0.00    +0.005 A 
ATOM     13  C   UNL     1      -5.842  -4.988  -4.365  0.00  0.00    +0.005 A 
ATOM     14  C   UNL     1      -5.238  -6.801  -2.337  0.00  0.00    +0.000 A 
ATOM     15  C   UNL     1      -6.866  -5.562  -3.611  0.00  0.00    +0.000 A 
ATOM     16  C   UNL     1      -6.563  -6.467  -2.596  0.00  0.00    +0.000 A 
ENDBRANCH  10  11
ENDBRANCH   1  10
TORSDOF 2
ENDMDL
MODEL 4
REMARK VINA RESULT:    -5.430      1.471      2.785
REMARK INTER + INTRA:          -6.206
REMARK INTER:                  -6.063
REMARK INTRA:                  -0.143
REMARK UNBOUND:                -0.141
REMARK  Name = 1550473
REMARK  2 active torsions:
REMARK  status: ('A' for Active; 'I' for Inactive)
REMARK    1  A    between atoms: N_1  and  C_4
REMARK    2  A    between atoms: C_4  and  C_5
REMARK                            x       y       z     vdW  Elec       q    Type
REMARK                         _______ _______ _______ _____ _____    ______ ____
ROOT
ATOM      1  N   UNL     1       5.109 -11.521 -12.245  0.00  0.00    -0.354 N 
ATOM      2  N   UNL     1       5.907 -13.033 -10.683  0.00  0.00    -0.372 N 
ATOM      3  N   UNL     1       7.203 -12.539 -12.510  0.00  0.00    -0.372 N 
ATOM      4  C   UNL     1       6.070 -12.354 -11.825  0.00  0.00    +0.166 C 
ATOM      5  H   UNL     1       4.261 -11.448 -11.696  0.00  0.00    +0.163 HD
ATOM      6  H   UNL     1       6.616 -13.666 -10.338  0.00  0.00    +0.159 HD
ATOM      7  H   UNL     1       5.078 -12.923 -10.112  0.00  0.00    +0.159 HD
ATOM      8  H   UNL     1       7.385 -12.061 -13.383  0.00  0.00    +0.159 HD
ATOM      9  H   UNL     1       7.920 -13.177 -12.188  0.00  0.00    +0.159 HD
ENDROOT
BRANCH   1  10
ATOM     10  C   UNL     1       5.211 -10.695 -13.448  0.00  0.00    +0.151 C 
BRANCH  10  11
ATOM     11  C   UNL     1       4.026 -10.966 -14.332  0.00  0.00    -0.028 A 
ATOM     12  C   UNL     1       2.936 -10.083 -14.353  0.00  0.00    +0.005 A 
ATOM     13  C   UNL     1       3.988 -12.102 -15.155  0.00  0.00    +0.005 A 
ATOM     14  C   UNL     1       1.848 -10.319 -15.196  0.00  0.00    +0.000 A 
ATOM     15  C   UNL     1       2.899 -12.334 -15.995  0.00  0.00    +0.000 A 
ATOM     16  C   UNL     1       1.830 -11.441 -16.017  0.00  0.00    +0.000 A 
ENDBRANCH  10  11
ENDBRANCH   1  10
TORSDOF 2
ENDMDL
MODEL 5
REMARK VINA RESULT:    -5.325     35.362     37.093
REMARK INTER + INTRA:          -6.088
REMARK INTER:                  -5.941
REMARK INTRA:                  -0.147
REMARK UNBOUND:                -0.141
REMARK  Name = 1550473
REMARK  2 active torsions:
REMARK  status: ('A' for Active; 'I' for Inactive)
REMARK    1  A    between atoms: N_1  and  C_4
REMARK    2  A    between atoms: C_4  and  C_5
REMARK                            x       y       z     vdW  Elec       q    Type
REMARK                         _______ _______ _______ _____ _____    ______ ____
ROOT
ATOM      1  N   UNL     1       2.573   7.288  19.207  0.00  0.00    -0.354 N 
ATOM      2  N   UNL     1       3.210   8.861  20.783  0.00  0.00    -0.372 N 
ATOM      3  N   UNL     1       4.033   6.726  20.951  0.00  0.00    -0.372 N 
ATOM      4  C   UNL     1       3.269   7.612  20.305  0.00  0.00    +0.166 C 
ATOM      5  H   UNL     1       1.989   7.998  18.781  0.00  0.00    +0.163 HD
ATOM      6  H   UNL     1       3.727   9.135  21.608  0.00  0.00    +0.159 HD
ATOM      7  H   UNL     1       2.661   9.580  20.329  0.00  0.00    +0.159 HD
ATOM      8  H   UNL     1       4.116   5.765  20.645  0.00  0.00    +0.159 HD
ATOM      9  H   UNL     1       4.549   6.979  21.785  0.00  0.00    +0.159 HD
ENDROOT
BRANCH   1  10
ATOM     10  C   UNL     1       2.611   5.971  18.574  0.00  0.00    +0.151 C 
BRANCH  10  11
ATOM     11  C   UNL     1       3.009   6.130  17.132  0.00  0.00    -0.028 A 
ATOM     12  C   UNL     1       4.248   6.694  16.794  0.00  0.00    +0.005 A 
ATOM     13  C   UNL     1       2.154   5.714  16.100  0.00  0.00    +0.005 A 
ATOM     14  C   UNL     1       4.631   6.814  15.456  0.00  0.00    +0.000 A 
ATOM     15  C   UNL     1       2.539   5.837  14.766  0.00  0.00    +0.000 A 
ATOM     16  C   UNL     1       3.779   6.385  14.444  0.00  0.00    +0.000 A 
ENDBRANCH  10  11
ENDBRANCH   1  10
TORSDOF 2
ENDMDL
MODEL 6
REMARK VINA RESULT:    -5.198      9.076     10.149
REMARK INTER + INTRA:          -5.947
REMARK INTER:                  -5.767
REMARK INTRA:                  -0.179
REMARK UNBOUND:                -0.141
REMARK  Name = 1550473
REMARK  2 active torsions:
REMARK  status: ('A' for Active; 'I' for Inactive)
REMARK    1  A    between atoms: N_1  and  C_4
REMARK    2  A    between atoms: C_4  and  C_5
REMARK                            x       y       z     vdW  Elec       q    Type
REMARK                         _______ _______ _______ _____ _____    ______ ____
ROOT
ATOM      1  N   UNL     1      -1.518  -3.982  -7.686  0.00  0.00    -0.354 N 
ATOM      2  N   UNL     1       0.693  -3.308  -7.823  0.00  0.00    -0.372 N 
ATOM      3  N   UNL     1      -0.422  -3.853  -9.753  0.00  0.00    -0.372 N 
ATOM      4  C   UNL     1      -0.431  -3.719  -8.423  0.00  0.00    +0.166 C 
ATOM      5  H   UNL     1      -1.451  -3.890  -6.679  0.00  0.00    +0.163 HD
ATOM      6  H   UNL     1       1.529  -3.098  -8.354  0.00  0.00    +0.159 HD
ATOM      7  H   UNL     1       0.744  -3.173  -6.821  0.00  0.00    +0.159 HD
ATOM      8  H   UNL     1      -1.236  -4.165 -10.265  0.00  0.00    +0.159 HD
ATOM      9  H   UNL     1       0.408  -3.660 -10.300  0.00  0.00    +0.159 HD
ENDROOT
BRANCH   1  10
ATOM     10  C   UNL     1      -2.807  -4.384  -8.246  0.00  0.00    +0.151 C 
BRANCH  10  11
ATOM     11  C   UNL     1      -2.939  -5.879  -8.150  0.00  0.00    -0.028 A 
ATOM     12  C   UNL     1      -3.050  -6.506  -6.900  0.00  0.00    +0.005 A 
ATOM     13  C   UNL     1      -2.959  -6.675  -9.306  0.00  0.00    +0.005 A 
ATOM     14  C   UNL     1      -3.203  -7.892  -6.812  0.00  0.00    +0.000 A 
ATOM     15  C   UNL     1      -3.111  -8.058  -9.214  0.00  0.00    +0.000 A 
ATOM     16  C   UNL     1      -3.236  -8.666  -7.967  0.00  0.00    +0.000 A 
ENDBRANCH  10  11
ENDBRANCH   1  10
TORSDOF 2
ENDMDL
MODEL 7
REMARK VINA RESULT:    -5.193     11.023     12.279
REMARK INTER + INTRA:          -5.941
REMARK INTER:                  -5.784
REMARK INTRA:                  -0.157
REMARK UNBOUND:                -0.141
REMARK  Name = 1550473
REMARK  2 active torsions:
REMARK  status: ('A' for Active; 'I' for Inactive)
REMARK    1  A    between atoms: N_1  and  C_4
REMARK    2  A    between atoms: C_4  and  C_5
REMARK                            x       y       z     vdW  Elec       q    Type
REMARK                         _______ _______ _______ _____ _____    ______ ____
ROOT
ATOM      1  N   UNL     1      -3.122  -6.144  -6.753  0.00  0.00    -0.354 N 
ATOM      2  N   UNL     1      -2.145  -4.053  -6.942  0.00  0.00    -0.372 N 
ATOM      3  N   UNL     1      -3.992  -4.296  -5.604  0.00  0.00    -0.372 N 
ATOM      4  C   UNL     1      -3.095  -4.844  -6.430  0.00  0.00    +0.166 C 
ATOM      5  H   UNL     1      -2.432  -6.491  -7.409  0.00  0.00    +0.163 HD
ATOM      6  H   UNL     1      -2.097  -3.069  -6.714  0.00  0.00    +0.159 HD
ATOM      7  H   UNL     1      -1.428  -4.413  -7.561  0.00  0.00    +0.159 HD
ATOM      8  H   UNL     1      -4.739  -4.838  -5.188  0.00  0.00    +0.159 HD
ATOM      9  H   UNL     1      -3.968  -3.311  -5.373  0.00  0.00    +0.159 HD
ENDROOT
BRANCH   1  10
ATOM     10  C   UNL     1      -4.083  -7.102  -6.208  0.00  0.00    +0.151 C 
BRANCH  10  11
ATOM     11  C   UNL     1      -3.361  -8.058  -5.299  0.00  0.00    -0.028 A 
ATOM     12  C   UNL     1      -3.656  -8.097  -3.928  0.00  0.00    +0.005 A 
ATOM     13  C   UNL     1      -2.385  -8.931  -5.803  0.00  0.00    +0.005 A 
ATOM     14  C   UNL     1      -3.007  -9.006  -3.089  0.00  0.00    +0.000 A 
ATOM     15  C   UNL     1      -1.739  -9.836  -4.962  0.00  0.00    +0.000 A 
ATOM     16  C   UNL     1      -2.052  -9.875  -3.605  0.00  0.00    +0.000 A 
ENDBRANCH  10  11
ENDBRANCH   1  10
TORSDOF 2
ENDMDL
MODEL 8
REMARK VINA RESULT:    -5.161      1.808      2.076
REMARK INTER + INTRA:          -5.905
REMARK INTER:                  -5.772
REMARK INTRA:                  -0.133
REMARK UNBOUND:                -0.141
REMARK  Name = 1550473
REMARK  2 active torsions:
REMARK  status: ('A' for Active; 'I' for Inactive)
REMARK    1  A    between atoms: N_1  and  C_4
REMARK    2  A    between atoms: C_4  and  C_5
REMARK                            x       y       z     vdW  Elec       q    Type
REMARK                         _______ _______ _______ _____ _____    ______ ____
ROOT
ATOM      1  N   UNL     1       4.847 -11.615 -15.003  0.00  0.00    -0.354 N 
ATOM      2  N   UNL     1       7.137 -11.870 -15.236  0.00  0.00    -0.372 N 
ATOM      3  N   UNL     1       6.283  -9.766 -14.904  0.00  0.00    -0.372 N 
ATOM      4  C   UNL     1       6.074 -11.079 -15.046  0.00  0.00    +0.166 C 
ATOM      5  H   UNL     1       4.752 -12.614 -15.147  0.00  0.00    +0.163 HD
ATOM      6  H   UNL     1       8.075 -11.494 -15.269  0.00  0.00    +0.159 HD
ATOM      7  H   UNL     1       7.044 -12.873 -15.334  0.00  0.00    +0.159 HD
ATOM      8  H   UNL     1       5.522  -9.114 -14.764  0.00  0.00    +0.159 HD
ATOM      9  H   UNL     1       7.214  -9.370 -14.947  0.00  0.00    +0.159 HD
ENDROOT
BRANCH   1  10
ATOM     10  C   UNL     1       3.628 -10.849 -14.748  0.00  0.00    +0.151 C 
BRANCH  10  11
ATOM     11  C   UNL     1       2.512 -11.407 -15.587  0.00  0.00    -0.028 A 
ATOM     12  C   UNL     1       2.676 -12.618 -16.275  0.00  0.00    +0.005 A 
ATOM     13  C   UNL     1       1.286 -10.733 -15.693  0.00  0.00    +0.005 A 
ATOM     14  C   UNL     1       1.629 -13.153 -17.030  0.00  0.00    +0.000 A 
ATOM     15  C   UNL     1       0.243 -11.270 -16.449  0.00  0.00    +0.000 A 
ATOM     16  C   UNL     1       0.415 -12.481 -17.115  0.00  0.00    +0.000 A 
ENDBRANCH  10  11
ENDBRANCH   1  10
TORSDOF 2
ENDMDL
MODEL 9
REMARK VINA RESULT:    -5.134     35.264     37.081
REMARK INTER + INTRA:          -5.875
REMARK INTER:                  -5.749
REMARK INTRA:                  -0.126
REMARK UNBOUND:                -0.141
REMARK  Name = 1550473
REMARK  2 active torsions:
REMARK  status: ('A' for Active; 'I' for Inactive)
REMARK    1  A    between atoms: N_1  and  C_4
REMARK    2  A    between atoms: C_4  and  C_5
REMARK                            x       y       z     vdW  Elec       q    Type
REMARK                         _______ _______ _______ _____ _____    ______ ____
ROOT
ATOM      1  N   UNL     1       2.080   6.878  19.607  0.00  0.00    -0.354 N 
ATOM      2  N   UNL     1       3.394   8.696  20.181  0.00  0.00    -0.372 N 
ATOM      3  N   UNL     1       4.122   6.588  20.719  0.00  0.00    -0.372 N 
ATOM      4  C   UNL     1       3.191   7.373  20.166  0.00  0.00    +0.166 C 
ATOM      5  H   UNL     1       1.399   7.529  19.232  0.00  0.00    +0.163 HD
ATOM      6  H   UNL     1       4.225   9.099  20.594  0.00  0.00    +0.159 HD
ATOM      7  H   UNL     1       2.734   9.341  19.765  0.00  0.00    +0.159 HD
ATOM      8  H   UNL     1       4.026   5.581  20.745  0.00  0.00    +0.159 HD
ATOM      9  H   UNL     1       4.955   6.972  21.147  0.00  0.00    +0.159 HD
ENDROOT
BRANCH   1  10
ATOM     10  C   UNL     1       1.789   5.450  19.490  0.00  0.00    +0.151 C 
BRANCH  10  11
ATOM     11  C   UNL     1       1.748   5.074  18.035  0.00  0.00    -0.028 A 
ATOM     12  C   UNL     1       1.971   6.041  17.043  0.00  0.00    +0.005 A 
ATOM     13  C   UNL     1       1.492   3.752  17.641  0.00  0.00    +0.005 A 
ATOM     14  C   UNL     1       1.962   5.686  15.692  0.00  0.00    +0.000 A 
ATOM     15  C   UNL     1       1.484   3.402  16.291  0.00  0.00    +0.000 A 
ATOM     16  C   UNL     1       1.721   4.368  15.317  0.00  0.00    +0.000 A 
ENDBRANCH  10  11
ENDBRANCH   1  10
TORSDOF 2
ENDMDL
