MODEL 1
REMARK VINA RESULT:    -5.201      0.000      0.000
REMARK INTER + INTRA:          -5.954
REMARK INTER:                  -5.809
REMARK INTRA:                  -0.145
REMARK UNBOUND:                -0.145
REMARK  Name = 1550473
REMARK  2 active torsions:
REMARK  status: ('A' for Active; 'I' for Inactive)
REMARK    1  A    between atoms: N_1  and  C_4
REMARK    2  A    between atoms: C_4  and  C_5
REMARK                            x       y       z     vdW  Elec       q    Type
REMARK                         _______ _______ _______ _____ _____    ______ ____
ROOT
ATOM      1  N   UNL     1      25.315   7.099   5.025  0.00  0.00    -0.354 N 
ATOM      2  N   UNL     1      26.228   8.788   6.321  0.00  0.00    -0.372 N 
ATOM      3  N   UNL     1      24.929   9.354   4.516  0.00  0.00    -0.372 N 
ATOM      4  C   UNL     1      25.483   8.404   5.277  0.00  0.00    +0.166 C 
ATOM      5  H   UNL     1      25.787   6.429   5.621  0.00  0.00    +0.163 HD
ATOM      6  H   UNL     1      26.370   9.765   6.538  0.00  0.00    +0.159 HD
ATOM      7  H   UNL     1      26.660   8.116   6.943  0.00  0.00    +0.159 HD
ATOM      8  H   UNL     1      24.361   9.131   3.710  0.00  0.00    +0.159 HD
ATOM      9  H   UNL     1      25.069  10.338   4.710  0.00  0.00    +0.159 HD
ENDROOT
BRANCH   1  10
ATOM     10  C   UNL     1      24.481   6.576   3.945  0.00  0.00    +0.151 C 
BRANCH  10  11
ATOM     11  C   UNL     1      23.247   5.951   4.536  0.00  0.00    -0.028 A 
ATOM     12  C   UNL     1      22.260   6.750   5.133  0.00  0.00    +0.005 A 
ATOM     13  C   UNL     1      23.056   4.561   4.498  0.00  0.00    +0.005 A 
ATOM     14  C   UNL     1      21.101   6.173   5.655  0.00  0.00    +0.000 A 
ATOM     15  C   UNL     1      21.897   3.989   5.022  0.00  0.00    +0.000 A 
ATOM     16  C   UNL     1      20.919   4.795   5.598  0.00  0.00    +0.000 A 
ENDBRANCH  10  11
ENDBRANCH   1  10
TORSDOF 2
ENDMDL
MODEL 2
REMARK VINA RESULT:    -5.199     48.957     49.987
REMARK INTER + INTRA:          -5.952
REMARK INTER:                  -5.828
REMARK INTRA:                  -0.124
REMARK UNBOUND:                -0.145
REMARK  Name = 1550473
REMARK  2 active torsions:
REMARK  status: ('A' for Active; 'I' for Inactive)
REMARK    1  A    between atoms: N_1  and  C_4
REMARK    2  A    between atoms: C_4  and  C_5
REMARK                            x       y       z     vdW  Elec       q    Type
REMARK                         _______ _______ _______ _____ _____    ______ ____
ROOT
ATOM      1  N   UNL     1     -14.370  -8.035 -24.087  0.00  0.00    -0.354 N 
ATOM      2  N   UNL     1     -14.266  -5.875 -24.917  0.00  0.00    -0.372 N 
ATOM      3  N   UNL     1     -14.896  -7.574 -26.324  0.00  0.00    -0.372 N 
ATOM      4  C   UNL     1     -14.512  -7.177 -25.106  0.00  0.00    +0.166 C 
ATOM      5  H   UNL     1     -14.047  -7.675 -23.196  0.00  0.00    +0.163 HD
ATOM      6  H   UNL     1     -14.368  -5.204 -25.666  0.00  0.00    +0.159 HD
ATOM      7  H   UNL     1     -13.988  -5.511 -24.013  0.00  0.00    +0.159 HD
ATOM      8  H   UNL     1     -15.091  -8.544 -26.534  0.00  0.00    +0.159 HD
ATOM      9  H   UNL     1     -14.992  -6.919 -27.090  0.00  0.00    +0.159 HD
ENDROOT
BRANCH   1  10
ATOM     10  C   UNL     1     -14.665  -9.464 -24.174  0.00  0.00    +0.151 C 
BRANCH  10  11
ATOM     11  C   UNL     1     -14.600 -10.064 -22.796  0.00  0.00    -0.028 A 
ATOM     12  C   UNL     1     -14.517  -9.240 -21.664  0.00  0.00    +0.005 A 
ATOM     13  C   UNL     1     -14.628 -11.455 -22.616  0.00  0.00    +0.005 A 
ATOM     14  C   UNL     1     -14.487  -9.795 -20.383  0.00  0.00    +0.000 A 
ATOM     15  C   UNL     1     -14.598 -12.006 -21.335  0.00  0.00    +0.000 A 
ATOM     16  C   UNL     1     -14.530 -11.176 -20.219  0.00  0.00    +0.000 A 
ENDBRANCH  10  11
ENDBRANCH   1  10
TORSDOF 2
ENDMDL
MODEL 3
REMARK VINA RESULT:    -5.046      2.484      3.419
REMARK INTER + INTRA:          -5.781
REMARK INTER:                  -5.668
REMARK INTRA:                  -0.113
REMARK UNBOUND:                -0.145
REMARK  Name = 1550473
REMARK  2 active torsions:
REMARK  status: ('A' for Active; 'I' for Inactive)
REMARK    1  A    between atoms: N_1  and  C_4
REMARK    2  A    between atoms: C_4  and  C_5
REMARK                            x       y       z     vdW  Elec       q    Type
REMARK                         _______ _______ _______ _____ _____    ______ ____
ROOT
ATOM      1  N   UNL     1      22.430   8.427   2.687  0.00  0.00    -0.354 N 
ATOM      2  N   UNL     1      21.548   9.891   1.124  0.00  0.00    -0.372 N 
ATOM      3  N   UNL     1      21.974  10.657   3.245  0.00  0.00    -0.372 N 
ATOM      4  C   UNL     1      21.990   9.650   2.364  0.00  0.00    +0.166 C 
ATOM      5  H   UNL     1      22.388   7.699   1.983  0.00  0.00    +0.163 HD
ATOM      6  H   UNL     1      21.214  10.805   0.850  0.00  0.00    +0.159 HD
ATOM      7  H   UNL     1      21.550   9.174   0.409  0.00  0.00    +0.159 HD
ATOM      8  H   UNL     1      22.288  10.539   4.199  0.00  0.00    +0.159 HD
ATOM      9  H   UNL     1      21.632  11.576   2.993  0.00  0.00    +0.159 HD
ENDROOT
BRANCH   1  10
ATOM     10  C   UNL     1      22.981   8.074   3.994  0.00  0.00    +0.151 C 
BRANCH  10  11
ATOM     11  C   UNL     1      22.440   6.734   4.410  0.00  0.00    -0.028 A 
ATOM     12  C   UNL     1      23.075   5.552   4.001  0.00  0.00    +0.005 A 
ATOM     13  C   UNL     1      21.297   6.640   5.219  0.00  0.00    +0.005 A 
ATOM     14  C   UNL     1      22.590   4.308   4.412  0.00  0.00    +0.000 A 
ATOM     15  C   UNL     1      20.816   5.396   5.626  0.00  0.00    +0.000 A 
ATOM     16  C   UNL     1      21.464   4.230   5.225  0.00  0.00    +0.000 A 
ENDBRANCH  10  11
ENDBRANCH   1  10
TORSDOF 2
ENDMDL
MODEL 4
REMARK VINA RESULT:    -4.853     21.760     22.864
REMARK INTER + INTRA:          -5.565
REMARK INTER:                  -5.462
REMARK INTRA:                  -0.103
REMARK UNBOUND:                -0.145
REMARK  Name = 1550473
REMARK  2 active torsions:
REMARK  status: ('A' for Active; 'I' for Inactive)
REMARK    1  A    between atoms: N_1  and  C_4
REMARK    2  A    between atoms: C_4  and  C_5
REMARK                            x       y       z     vdW  Elec       q    Type
REMARK                         _______ _______ _______ _____ _____    ______ ____
ROOT
ATOM      1  N   UNL     1       5.477   4.457  -6.325  0.00  0.00    -0.354 N 
ATOM      2  N   UNL     1       7.591   5.015  -5.561  0.00  0.00    -0.372 N 
ATOM      3  N   UNL     1       6.992   5.604  -7.697  0.00  0.00    -0.372 N 
ATOM      4  C   UNL     1       6.673   5.023  -6.536  0.00  0.00    +0.166 C 
ATOM      5  H   UNL     1       5.308   4.006  -5.433  0.00  0.00    +0.163 HD
ATOM      6  H   UNL     1       8.501   5.437  -5.690  0.00  0.00    +0.159 HD
ATOM      7  H   UNL     1       7.402   4.605  -4.655  0.00  0.00    +0.159 HD
ATOM      8  H   UNL     1       6.346   5.637  -8.474  0.00  0.00    +0.159 HD
ATOM      9  H   UNL     1       7.901   6.021  -7.849  0.00  0.00    +0.159 HD
ENDROOT
BRANCH   1  10
ATOM     10  C   UNL     1       4.389   4.458  -7.301  0.00  0.00    +0.151 C 
BRANCH  10  11
ATOM     11  C   UNL     1       3.077   4.340  -6.575  0.00  0.00    -0.028 A 
ATOM     12  C   UNL     1       2.057   5.278  -6.791  0.00  0.00    +0.005 A 
ATOM     13  C   UNL     1       2.846   3.288  -5.675  0.00  0.00    +0.005 A 
ATOM     14  C   UNL     1       0.828   5.152  -6.139  0.00  0.00    +0.000 A 
ATOM     15  C   UNL     1       1.618   3.166  -5.026  0.00  0.00    +0.000 A 
ATOM     16  C   UNL     1       0.608   4.097  -5.260  0.00  0.00    +0.000 A 
ENDBRANCH  10  11
ENDBRANCH   1  10
TORSDOF 2
ENDMDL
MODEL 5
REMARK VINA RESULT:    -4.813     12.924     14.317
REMARK INTER + INTRA:          -5.521
REMARK INTER:                  -5.370
REMARK INTRA:                  -0.151
REMARK UNBOUND:                -0.145
REMARK  Name = 1550473
REMARK  2 active torsions:
REMARK  status: ('A' for Active; 'I' for Inactive)
REMARK    1  A    between atoms: N_1  and  C_4
REMARK    2  A    between atoms: C_4  and  C_5
REMARK                            x       y       z     vdW  Elec       q    Type
REMARK                         _______ _______ _______ _____ _____    ______ ____
ROOT
ATOM      1  N   UNL     1      12.678  -2.369  -0.089  0.00  0.00    -0.354 N 
ATOM      2  N   UNL     1      11.375  -0.576  -0.759  0.00  0.00    -0.372 N 
ATOM      3  N   UNL     1      13.298  -1.044  -1.920  0.00  0.00    -0.372 N 
ATOM      4  C   UNL     1      12.461  -1.341  -0.920  0.00  0.00    +0.166 C 
ATOM      5  H   UNL     1      12.022  -2.523   0.668  0.00  0.00    +0.163 HD
ATOM      6  H   UNL     1      11.182   0.205  -1.372  0.00  0.00    +0.159 HD
ATOM      7  H   UNL     1      10.696  -0.760  -0.030  0.00  0.00    +0.159 HD
ATOM      8  H   UNL     1      14.139  -1.579  -2.091  0.00  0.00    +0.159 HD
ATOM      9  H   UNL     1      13.129  -0.259  -2.537  0.00  0.00    +0.159 HD
ENDROOT
BRANCH   1  10
ATOM     10  C   UNL     1      13.802  -3.296  -0.212  0.00  0.00    +0.151 C 
BRANCH  10  11
ATOM     11  C   UNL     1      14.582  -3.295   1.074  0.00  0.00    -0.028 A 
ATOM     12  C   UNL     1      14.505  -4.384   1.955  0.00  0.00    +0.005 A 
ATOM     13  C   UNL     1      15.405  -2.210   1.415  0.00  0.00    +0.005 A 
ATOM     14  C   UNL     1      15.252  -4.396   3.135  0.00  0.00    +0.000 A 
ATOM     15  C   UNL     1      16.149  -2.226   2.595  0.00  0.00    +0.000 A 
ATOM     16  C   UNL     1      16.074  -3.320   3.453  0.00  0.00    +0.000 A 
ENDBRANCH  10  11
ENDBRANCH   1  10
TORSDOF 2
ENDMDL
MODEL 6
REMARK VINA RESULT:    -4.801     47.357     48.588
REMARK INTER + INTRA:          -5.507
REMARK INTER:                  -5.368
REMARK INTRA:                  -0.138
REMARK UNBOUND:                -0.145
REMARK  Name = 1550473
REMARK  2 active torsions:
REMARK  status: ('A' for Active; 'I' for Inactive)
REMARK    1  A    between atoms: N_1  and  C_4
REMARK    2  A    between atoms: C_4  and  C_5
REMARK                            x       y       z     vdW  Elec       q    Type
REMARK                         _______ _______ _______ _____ _____    ______ ____
ROOT
ATOM      1  N   UNL     1     -15.569  -7.223 -19.888  0.00  0.00    -0.354 N 
ATOM      2  N   UNL     1     -15.940  -6.112 -17.890  0.00  0.00    -0.372 N 
ATOM      3  N   UNL     1     -13.952  -5.785 -18.989  0.00  0.00    -0.372 N 
ATOM      4  C   UNL     1     -15.148  -6.380 -18.936  0.00  0.00    +0.166 C 
ATOM      5  H   UNL     1     -16.474  -7.664 -19.775  0.00  0.00    +0.163 HD
ATOM      6  H   UNL     1     -15.651  -5.477 -17.158  0.00  0.00    +0.159 HD
ATOM      7  H   UNL     1     -16.863  -6.519 -17.802  0.00  0.00    +0.159 HD
ATOM      8  H   UNL     1     -13.305  -5.950 -19.748  0.00  0.00    +0.159 HD
ATOM      9  H   UNL     1     -13.640  -5.156 -18.259  0.00  0.00    +0.159 HD
ENDROOT
BRANCH   1  10
ATOM     10  C   UNL     1     -14.806  -7.540 -21.094  0.00  0.00    +0.151 C 
BRANCH  10  11
ATOM     11  C   UNL     1     -14.682  -9.033 -21.219  0.00  0.00    -0.028 A 
ATOM     12  C   UNL     1     -14.558  -9.835 -20.074  0.00  0.00    +0.005 A 
ATOM     13  C   UNL     1     -14.695  -9.654 -22.477  0.00  0.00    +0.005 A 
ATOM     14  C   UNL     1     -14.473 -11.225 -20.187  0.00  0.00    +0.000 A 
ATOM     15  C   UNL     1     -14.608 -11.042 -22.586  0.00  0.00    +0.000 A 
ATOM     16  C   UNL     1     -14.500 -11.827 -21.441  0.00  0.00    +0.000 A 
ENDBRANCH  10  11
ENDBRANCH   1  10
TORSDOF 2
ENDMDL
MODEL 7
REMARK VINA RESULT:    -4.799     26.782     28.278
REMARK INTER + INTRA:          -5.505
REMARK INTER:                  -5.402
REMARK INTRA:                  -0.104
REMARK UNBOUND:                -0.145
REMARK  Name = 1550473
REMARK  2 active torsions:
REMARK  status: ('A' for Active; 'I' for Inactive)
REMARK    1  A    between atoms: N_1  and  C_4
REMARK    2  A    between atoms: C_4  and  C_5
REMARK                            x       y       z     vdW  Elec       q    Type
REMARK                         _______ _______ _______ _____ _____    ______ ____
ROOT
ATOM      1  N   UNL     1       0.456  -4.680  -3.149  0.00  0.00    -0.354 N 
ATOM      2  N   UNL     1       1.850  -5.922  -1.779  0.00  0.00    -0.372 N 
ATOM      3  N   UNL     1       2.787  -4.492  -3.309  0.00  0.00    -0.372 N 
ATOM      4  C   UNL     1       1.690  -5.022  -2.756  0.00  0.00    +0.166 C 
ATOM      5  H   UNL     1      -0.333  -5.140  -2.711  0.00  0.00    +0.163 HD
ATOM      6  H   UNL     1       2.769  -6.197  -1.459  0.00  0.00    +0.159 HD
ATOM      7  H   UNL     1       1.058  -6.347  -1.311  0.00  0.00    +0.159 HD
ATOM      8  H   UNL     1       2.734  -3.811  -4.055  0.00  0.00    +0.159 HD
ATOM      9  H   UNL     1       3.715  -4.763  -3.011  0.00  0.00    +0.159 HD
ENDROOT
BRANCH   1  10
ATOM     10  C   UNL     1       0.173  -3.670  -4.167  0.00  0.00    +0.151 C 
BRANCH  10  11
ATOM     11  C   UNL     1      -1.273  -3.769  -4.569  0.00  0.00    -0.028 A 
ATOM     12  C   UNL     1      -2.137  -2.678  -4.396  0.00  0.00    +0.005 A 
ATOM     13  C   UNL     1      -1.784  -4.951  -5.128  0.00  0.00    +0.005 A 
ATOM     14  C   UNL     1      -3.473  -2.760  -4.796  0.00  0.00    +0.000 A 
ATOM     15  C   UNL     1      -3.119  -5.029  -5.526  0.00  0.00    +0.000 A 
ATOM     16  C   UNL     1      -3.962  -3.933  -5.362  0.00  0.00    +0.000 A 
ENDBRANCH  10  11
ENDBRANCH   1  10
TORSDOF 2
ENDMDL
MODEL 8
REMARK VINA RESULT:    -4.759     33.570     34.874
REMARK INTER + INTRA:          -5.460
REMARK INTER:                  -5.303
REMARK INTRA:                  -0.156
REMARK UNBOUND:                -0.145
REMARK  Name = 1550473
REMARK  2 active torsions:
REMARK  status: ('A' for Active; 'I' for Inactive)
REMARK    1  A    between atoms: N_1  and  C_4
REMARK    2  A    between atoms: C_4  and  C_5
REMARK                            x       y       z     vdW  Elec       q    Type
REMARK                         _______ _______ _______ _____ _____    ______ ____
ROOT
ATOM      1  N   UNL     1      -3.151  -6.555 -11.517  0.00  0.00    -0.354 N 
ATOM      2  N   UNL     1      -3.517  -5.822  -9.350  0.00  0.00    -0.372 N 
ATOM      3  N   UNL     1      -1.367  -6.256 -10.027  0.00  0.00    -0.372 N 
ATOM      4  C   UNL     1      -2.673  -6.216 -10.312  0.00  0.00    +0.166 C 
ATOM      5  H   UNL     1      -4.155  -6.533 -11.660  0.00  0.00    +0.163 HD
ATOM      6  H   UNL     1      -3.185  -5.557  -8.433  0.00  0.00    +0.159 HD
ATOM      7  H   UNL     1      -4.514  -5.756  -9.511  0.00  0.00    +0.159 HD
ATOM      8  H   UNL     1      -0.679  -6.550 -10.707  0.00  0.00    +0.159 HD
ATOM      9  H   UNL     1      -1.017  -6.005  -9.111  0.00  0.00    +0.159 HD
ENDROOT
BRANCH   1  10
ATOM     10  C   UNL     1      -2.313  -6.947 -12.649  0.00  0.00    +0.151 C 
BRANCH  10  11
ATOM     11  C   UNL     1      -2.655  -8.355 -13.049  0.00  0.00    -0.028 A 
ATOM     12  C   UNL     1      -3.204  -8.623 -14.312  0.00  0.00    +0.005 A 
ATOM     13  C   UNL     1      -2.428  -9.427 -12.172  0.00  0.00    +0.005 A 
ATOM     14  C   UNL     1      -3.494  -9.935 -14.696  0.00  0.00    +0.000 A 
ATOM     15  C   UNL     1      -2.720 -10.735 -12.559  0.00  0.00    +0.000 A 
ATOM     16  C   UNL     1      -3.250 -10.989 -13.822  0.00  0.00    +0.000 A 
ENDBRANCH  10  11
ENDBRANCH   1  10
TORSDOF 2
ENDMDL
MODEL 9
REMARK VINA RESULT:    -4.726     21.859     23.186
REMARK INTER + INTRA:          -5.423
REMARK INTER:                  -5.248
REMARK INTRA:                  -0.175
REMARK UNBOUND:                -0.145
REMARK  Name = 1550473
REMARK  2 active torsions:
REMARK  status: ('A' for Active; 'I' for Inactive)
REMARK    1  A    between atoms: N_1  and  C_4
REMARK    2  A    between atoms: C_4  and  C_5
REMARK                            x       y       z     vdW  Elec       q    Type
REMARK                         _______ _______ _______ _____ _____    ______ ____
ROOT
ATOM      1  N   UNL     1       0.987   2.330   6.447  0.00  0.00    -0.354 N 
ATOM      2  N   UNL     1       1.252   0.029   6.446  0.00  0.00    -0.372 N 
ATOM      3  N   UNL     1      -0.713   0.920   5.665  0.00  0.00    -0.372 N 
ATOM      4  C   UNL     1       0.504   1.108   6.185  0.00  0.00    +0.166 C 
ATOM      5  H   UNL     1       1.906   2.404   6.870  0.00  0.00    +0.163 HD
ATOM      6  H   UNL     1       0.916  -0.906   6.256  0.00  0.00    +0.159 HD
ATOM      7  H   UNL     1       2.188   0.108   6.826  0.00  0.00    +0.159 HD
ATOM      8  H   UNL     1      -1.329   1.692   5.450  0.00  0.00    +0.159 HD
ATOM      9  H   UNL     1      -1.072  -0.008   5.478  0.00  0.00    +0.159 HD
ENDROOT
BRANCH   1  10
ATOM     10  C   UNL     1       0.275   3.571   6.151  0.00  0.00    +0.151 C 
BRANCH  10  11
ATOM     11  C   UNL     1       0.918   4.235   4.964  0.00  0.00    -0.028 A 
ATOM     12  C   UNL     1       0.499   3.926   3.662  0.00  0.00    +0.005 A 
ATOM     13  C   UNL     1       1.944   5.177   5.135  0.00  0.00    +0.005 A 
ATOM     14  C   UNL     1       1.075   4.564   2.560  0.00  0.00    +0.000 A 
ATOM     15  C   UNL     1       2.517   5.811   4.033  0.00  0.00    +0.000 A 
ATOM     16  C   UNL     1       2.081   5.506   2.746  0.00  0.00    +0.000 A 
ENDBRANCH  10  11
ENDBRANCH   1  10
TORSDOF 2
ENDMDL
