MODEL 1
REMARK VINA RESULT:    -5.950      0.000      0.000
REMARK INTER + INTRA:          -6.786
REMARK INTER:                  -6.646
REMARK INTRA:                  -0.140
REMARK UNBOUND:                -0.140
REMARK  Name = 1550473
REMARK  2 active torsions:
REMARK  status: ('A' for Active; 'I' for Inactive)
REMARK    1  A    between atoms: N_1  and  C_4
REMARK    2  A    between atoms: C_4  and  C_5
REMARK                            x       y       z     vdW  Elec       q    Type
REMARK                         _______ _______ _______ _____ _____    ______ ____
ROOT
ATOM      1  N   UNL     1     -11.505   6.881  11.038  0.00  0.00    -0.354 N 
ATOM      2  N   UNL     1     -12.851   5.323  12.100  0.00  0.00    -0.372 N 
ATOM      3  N   UNL     1     -11.713   6.856  13.373  0.00  0.00    -0.372 N 
ATOM      4  C   UNL     1     -12.013   6.365  12.166  0.00  0.00    +0.166 C 
ATOM      5  H   UNL     1     -11.748   6.443  10.157  0.00  0.00    +0.163 HD
ATOM      6  H   UNL     1     -13.252   4.915  12.934  0.00  0.00    +0.159 HD
ATOM      7  H   UNL     1     -13.128   4.917  11.215  0.00  0.00    +0.159 HD
ATOM      8  H   UNL     1     -11.082   7.638  13.491  0.00  0.00    +0.159 HD
ATOM      9  H   UNL     1     -12.095   6.454  14.219  0.00  0.00    +0.159 HD
ENDROOT
BRANCH   1  10
ATOM     10  C   UNL     1     -10.626   8.048  10.997  0.00  0.00    +0.151 C 
BRANCH  10  11
ATOM     11  C   UNL     1      -9.416   7.723  10.165  0.00  0.00    -0.028 A 
ATOM     12  C   UNL     1      -8.574   8.745   9.703  0.00  0.00    +0.005 A 
ATOM     13  C   UNL     1      -9.103   6.394   9.841  0.00  0.00    +0.005 A 
ATOM     14  C   UNL     1      -7.433   8.441   8.956  0.00  0.00    +0.000 A 
ATOM     15  C   UNL     1      -7.964   6.094   9.094  0.00  0.00    +0.000 A 
ATOM     16  C   UNL     1      -7.128   7.118   8.654  0.00  0.00    +0.000 A 
ENDBRANCH  10  11
ENDBRANCH   1  10
TORSDOF 2
ENDMDL
MODEL 2
REMARK VINA RESULT:    -5.336      1.602      2.513
REMARK INTER + INTRA:          -6.100
REMARK INTER:                  -5.961
REMARK INTRA:                  -0.139
REMARK UNBOUND:                -0.140
REMARK  Name = 1550473
REMARK  2 active torsions:
REMARK  status: ('A' for Active; 'I' for Inactive)
REMARK    1  A    between atoms: N_1  and  C_4
REMARK    2  A    between atoms: C_4  and  C_5
REMARK                            x       y       z     vdW  Elec       q    Type
REMARK                         _______ _______ _______ _____ _____    ______ ____
ROOT
ATOM      1  N   UNL     1     -11.290   8.278  11.710  0.00  0.00    -0.354 N 
ATOM      2  N   UNL     1     -12.616  10.011  12.485  0.00  0.00    -0.372 N 
ATOM      3  N   UNL     1     -13.406   8.682  10.789  0.00  0.00    -0.372 N 
ATOM      4  C   UNL     1     -12.430   8.978  11.654  0.00  0.00    +0.166 C 
ATOM      5  H   UNL     1     -10.576   8.571  12.368  0.00  0.00    +0.163 HD
ATOM      6  H   UNL     1     -13.468  10.556  12.468  0.00  0.00    +0.159 HD
ATOM      7  H   UNL     1     -11.921  10.274  13.172  0.00  0.00    +0.159 HD
ATOM      8  H   UNL     1     -13.325   7.918  10.131  0.00  0.00    +0.159 HD
ATOM      9  H   UNL     1     -14.261   9.223  10.749  0.00  0.00    +0.159 HD
ENDROOT
BRANCH   1  10
ATOM     10  C   UNL     1     -11.010   7.103  10.887  0.00  0.00    +0.151 C 
BRANCH  10  11
ATOM     11  C   UNL     1      -9.671   7.274  10.225  0.00  0.00    -0.028 A 
ATOM     12  C   UNL     1      -8.958   6.158   9.761  0.00  0.00    +0.005 A 
ATOM     13  C   UNL     1      -9.112   8.549  10.053  0.00  0.00    +0.005 A 
ATOM     14  C   UNL     1      -7.728   6.319   9.119  0.00  0.00    +0.000 A 
ATOM     15  C   UNL     1      -7.883   8.706   9.412  0.00  0.00    +0.000 A 
ATOM     16  C   UNL     1      -7.192   7.591   8.944  0.00  0.00    +0.000 A 
ENDBRANCH  10  11
ENDBRANCH   1  10
TORSDOF 2
ENDMDL
MODEL 3
REMARK VINA RESULT:    -5.334      2.496      3.571
REMARK INTER + INTRA:          -6.098
REMARK INTER:                  -5.979
REMARK INTRA:                  -0.119
REMARK UNBOUND:                -0.140
REMARK  Name = 1550473
REMARK  2 active torsions:
REMARK  status: ('A' for Active; 'I' for Inactive)
REMARK    1  A    between atoms: N_1  and  C_4
REMARK    2  A    between atoms: C_4  and  C_5
REMARK                            x       y       z     vdW  Elec       q    Type
REMARK                         _______ _______ _______ _____ _____    ______ ____
ROOT
ATOM      1  N   UNL     1     -11.159   9.559   9.857  0.00  0.00    -0.354 N 
ATOM      2  N   UNL     1     -12.894   9.722   8.331  0.00  0.00    -0.372 N 
ATOM      3  N   UNL     1     -10.775  10.306   7.669  0.00  0.00    -0.372 N 
ATOM      4  C   UNL     1     -11.596   9.863   8.627  0.00  0.00    +0.166 C 
ATOM      5  H   UNL     1     -11.837   9.257  10.547  0.00  0.00    +0.163 HD
ATOM      6  H   UNL     1     -13.252   9.940   7.411  0.00  0.00    +0.159 HD
ATOM      7  H   UNL     1     -13.561   9.376   9.009  0.00  0.00    +0.159 HD
ATOM      8  H   UNL     1      -9.786  10.439   7.831  0.00  0.00    +0.159 HD
ATOM      9  H   UNL     1     -11.117  10.541   6.745  0.00  0.00    +0.159 HD
ENDROOT
BRANCH   1  10
ATOM     10  C   UNL     1      -9.757   9.625  10.266  0.00  0.00    +0.151 C 
BRANCH  10  11
ATOM     11  C   UNL     1      -9.069   8.348   9.870  0.00  0.00    -0.028 A 
ATOM     12  C   UNL     1      -9.639   7.106  10.182  0.00  0.00    +0.005 A 
ATOM     13  C   UNL     1      -7.849   8.375   9.177  0.00  0.00    +0.005 A 
ATOM     14  C   UNL     1      -9.015   5.920   9.787  0.00  0.00    +0.000 A 
ATOM     15  C   UNL     1      -7.228   7.188   8.786  0.00  0.00    +0.000 A 
ATOM     16  C   UNL     1      -7.813   5.961   9.089  0.00  0.00    +0.000 A 
ENDBRANCH  10  11
ENDBRANCH   1  10
TORSDOF 2
ENDMDL
MODEL 4
REMARK VINA RESULT:    -5.281     19.180     20.191
REMARK INTER + INTRA:          -6.038
REMARK INTER:                  -5.923
REMARK INTRA:                  -0.115
REMARK UNBOUND:                -0.140
REMARK  Name = 1550473
REMARK  2 active torsions:
REMARK  status: ('A' for Active; 'I' for Inactive)
REMARK    1  A    between atoms: N_1  and  C_4
REMARK    2  A    between atoms: C_4  and  C_5
REMARK                            x       y       z     vdW  Elec       q    Type
REMARK                         _______ _______ _______ _____ _____    ______ ____
ROOT
ATOM      1  N   UNL     1       5.443   0.199  -0.406  0.00  0.00    -0.354 N 
ATOM      2  N   UNL     1       4.956  -1.506  -1.896  0.00  0.00    -0.372 N 
ATOM      3  N   UNL     1       4.834  -1.932   0.356  0.00  0.00    -0.372 N 
ATOM      4  C   UNL     1       5.081  -1.070  -0.636  0.00  0.00    +0.166 C 
ATOM      5  H   UNL     1       5.645   0.794  -1.201  0.00  0.00    +0.163 HD
ATOM      6  H   UNL     1       4.681  -2.457  -2.101  0.00  0.00    +0.159 HD
ATOM      7  H   UNL     1       5.114  -0.896  -2.689  0.00  0.00    +0.159 HD
ATOM      8  H   UNL     1       4.916  -1.667   1.328  0.00  0.00    +0.159 HD
ATOM      9  H   UNL     1       4.569  -2.891   0.171  0.00  0.00    +0.159 HD
ENDROOT
BRANCH   1  10
ATOM     10  C   UNL     1       5.555   0.788   0.928  0.00  0.00    +0.151 C 
BRANCH  10  11
ATOM     11  C   UNL     1       6.426   2.012   0.853  0.00  0.00    -0.028 A 
ATOM     12  C   UNL     1       6.031   3.205   1.474  0.00  0.00    +0.005 A 
ATOM     13  C   UNL     1       7.650   1.982   0.166  0.00  0.00    +0.005 A 
ATOM     14  C   UNL     1       6.854   4.334   1.430  0.00  0.00    +0.000 A 
ATOM     15  C   UNL     1       8.468   3.111   0.124  0.00  0.00    +0.000 A 
ATOM     16  C   UNL     1       8.071   4.286   0.758  0.00  0.00    +0.000 A 
ENDBRANCH  10  11
ENDBRANCH   1  10
TORSDOF 2
ENDMDL
MODEL 5
REMARK VINA RESULT:    -5.255     16.320     18.041
REMARK INTER + INTRA:          -6.010
REMARK INTER:                  -5.884
REMARK INTRA:                  -0.126
REMARK UNBOUND:                -0.140
REMARK  Name = 1550473
REMARK  2 active torsions:
REMARK  status: ('A' for Active; 'I' for Inactive)
REMARK    1  A    between atoms: N_1  and  C_4
REMARK    2  A    between atoms: C_4  and  C_5
REMARK                            x       y       z     vdW  Elec       q    Type
REMARK                         _______ _______ _______ _____ _____    ______ ____
ROOT
ATOM      1  N   UNL     1       5.575  11.803   6.362  0.00  0.00    -0.354 N 
ATOM      2  N   UNL     1       3.501  12.505   5.607  0.00  0.00    -0.372 N 
ATOM      3  N   UNL     1       5.305  12.662   4.198  0.00  0.00    -0.372 N 
ATOM      4  C   UNL     1       4.809  12.320   5.392  0.00  0.00    +0.166 C 
ATOM      5  H   UNL     1       5.144  11.593   7.255  0.00  0.00    +0.163 HD
ATOM      6  H   UNL     1       2.897  12.889   4.893  0.00  0.00    +0.159 HD
ATOM      7  H   UNL     1       3.064  12.251   6.485  0.00  0.00    +0.159 HD
ATOM      8  H   UNL     1       6.285  12.552   3.974  0.00  0.00    +0.159 HD
ATOM      9  H   UNL     1       4.719  13.059   3.474  0.00  0.00    +0.159 HD
ENDROOT
BRANCH   1  10
ATOM     10  C   UNL     1       6.999  11.512   6.211  0.00  0.00    +0.151 C 
BRANCH  10  11
ATOM     11  C   UNL     1       7.645  11.500   7.569  0.00  0.00    -0.028 A 
ATOM     12  C   UNL     1       6.860  11.536   8.731  0.00  0.00    +0.005 A 
ATOM     13  C   UNL     1       9.041  11.447   7.701  0.00  0.00    +0.005 A 
ATOM     14  C   UNL     1       7.458  11.495   9.993  0.00  0.00    +0.000 A 
ATOM     15  C   UNL     1       9.634  11.406   8.962  0.00  0.00    +0.000 A 
ATOM     16  C   UNL     1       8.842  11.428  10.108  0.00  0.00    +0.000 A 
ENDBRANCH  10  11
ENDBRANCH   1  10
TORSDOF 2
ENDMDL
MODEL 6
REMARK VINA RESULT:    -5.159     20.438     22.179
REMARK INTER + INTRA:          -5.903
REMARK INTER:                  -5.801
REMARK INTRA:                  -0.102
REMARK UNBOUND:                -0.140
REMARK  Name = 1550473
REMARK  2 active torsions:
REMARK  status: ('A' for Active; 'I' for Inactive)
REMARK    1  A    between atoms: N_1  and  C_4
REMARK    2  A    between atoms: C_4  and  C_5
REMARK                            x       y       z     vdW  Elec       q    Type
REMARK                         _______ _______ _______ _____ _____    ______ ____
ROOT
ATOM      1  N   UNL     1       4.924  -1.869  -0.591  0.00  0.00    -0.354 N 
ATOM      2  N   UNL     1       3.687  -1.015   1.171  0.00  0.00    -0.372 N 
ATOM      3  N   UNL     1       5.964  -1.182   1.393  0.00  0.00    -0.372 N 
ATOM      4  C   UNL     1       4.869  -1.361   0.648  0.00  0.00    +0.166 C 
ATOM      5  H   UNL     1       4.054  -2.008  -1.093  0.00  0.00    +0.163 HD
ATOM      6  H   UNL     1       3.614  -0.626   2.102  0.00  0.00    +0.159 HD
ATOM      7  H   UNL     1       2.824  -1.112   0.650  0.00  0.00    +0.159 HD
ATOM      8  H   UNL     1       6.886  -1.428   1.059  0.00  0.00    +0.159 HD
ATOM      9  H   UNL     1       5.911  -0.804   2.331  0.00  0.00    +0.159 HD
ENDROOT
BRANCH   1  10
ATOM     10  C   UNL     1       6.166  -2.227  -1.273  0.00  0.00    +0.151 C 
BRANCH  10  11
ATOM     11  C   UNL     1       6.233  -3.722  -1.419  0.00  0.00    -0.028 A 
ATOM     12  C   UNL     1       5.259  -4.540  -0.826  0.00  0.00    +0.005 A 
ATOM     13  C   UNL     1       7.264  -4.328  -2.153  0.00  0.00    +0.005 A 
ATOM     14  C   UNL     1       5.304  -5.927  -0.986  0.00  0.00    +0.000 A 
ATOM     15  C   UNL     1       7.306  -5.713  -2.310  0.00  0.00    +0.000 A 
ATOM     16  C   UNL     1       6.324  -6.512  -1.728  0.00  0.00    +0.000 A 
ENDBRANCH  10  11
ENDBRANCH   1  10
TORSDOF 2
ENDMDL
MODEL 7
REMARK VINA RESULT:    -5.082     18.197     20.101
REMARK INTER + INTRA:          -5.816
REMARK INTER:                  -5.656
REMARK INTRA:                  -0.160
REMARK UNBOUND:                -0.140
REMARK  Name = 1550473
REMARK  2 active torsions:
REMARK  status: ('A' for Active; 'I' for Inactive)
REMARK    1  A    between atoms: N_1  and  C_4
REMARK    2  A    between atoms: C_4  and  C_5
REMARK                            x       y       z     vdW  Elec       q    Type
REMARK                         _______ _______ _______ _____ _____    ______ ____
ROOT
ATOM      1  N   UNL     1       6.648   4.291   3.023  0.00  0.00    -0.354 N 
ATOM      2  N   UNL     1       5.217   5.959   3.756  0.00  0.00    -0.372 N 
ATOM      3  N   UNL     1       4.803   4.949   1.737  0.00  0.00    -0.372 N 
ATOM      4  C   UNL     1       5.564   5.055   2.831  0.00  0.00    +0.166 C 
ATOM      5  H   UNL     1       7.200   4.441   3.860  0.00  0.00    +0.163 HD
ATOM      6  H   UNL     1       4.402   6.547   3.640  0.00  0.00    +0.159 HD
ATOM      7  H   UNL     1       5.745   6.074   4.612  0.00  0.00    +0.159 HD
ATOM      8  H   UNL     1       5.014   4.291   0.999  0.00  0.00    +0.159 HD
ATOM      9  H   UNL     1       3.990   5.537   1.598  0.00  0.00    +0.159 HD
ENDROOT
BRANCH   1  10
ATOM     10  C   UNL     1       7.081   3.241   2.104  0.00  0.00    +0.151 C 
BRANCH  10  11
ATOM     11  C   UNL     1       8.299   3.713   1.358  0.00  0.00    -0.028 A 
ATOM     12  C   UNL     1       8.535   3.291   0.041  0.00  0.00    +0.005 A 
ATOM     13  C   UNL     1       9.217   4.587   1.960  0.00  0.00    +0.005 A 
ATOM     14  C   UNL     1       9.650   3.753  -0.663  0.00  0.00    +0.000 A 
ATOM     15  C   UNL     1      10.329   5.045   1.254  0.00  0.00    +0.000 A 
ATOM     16  C   UNL     1      10.544   4.630  -0.058  0.00  0.00    +0.000 A 
ENDBRANCH  10  11
ENDBRANCH   1  10
TORSDOF 2
ENDMDL
MODEL 8
REMARK VINA RESULT:    -5.011     26.038     26.894
REMARK INTER + INTRA:          -5.737
REMARK INTER:                  -5.562
REMARK INTRA:                  -0.175
REMARK UNBOUND:                -0.140
REMARK  Name = 1550473
REMARK  2 active torsions:
REMARK  status: ('A' for Active; 'I' for Inactive)
REMARK    1  A    between atoms: N_1  and  C_4
REMARK    2  A    between atoms: C_4  and  C_5
REMARK                            x       y       z     vdW  Elec       q    Type
REMARK                         _______ _______ _______ _____ _____    ______ ____
ROOT
ATOM      1  N   UNL     1      16.265   0.201   6.632  0.00  0.00    -0.354 N 
ATOM      2  N   UNL     1      15.503   2.168   7.588  0.00  0.00    -0.372 N 
ATOM      3  N   UNL     1      14.444   1.360   5.719  0.00  0.00    -0.372 N 
ATOM      4  C   UNL     1      15.407   1.230   6.638  0.00  0.00    +0.166 C 
ATOM      5  H   UNL     1      16.991   0.176   7.338  0.00  0.00    +0.163 HD
ATOM      6  H   UNL     1      14.867   2.954   7.619  0.00  0.00    +0.159 HD
ATOM      7  H   UNL     1      16.201   2.116   8.319  0.00  0.00    +0.159 HD
ATOM      8  H   UNL     1      14.322   0.689   4.972  0.00  0.00    +0.159 HD
ATOM      9  H   UNL     1      13.806   2.146   5.727  0.00  0.00    +0.159 HD
ENDROOT
BRANCH   1  10
ATOM     10  C   UNL     1      16.212  -0.902   5.674  0.00  0.00    +0.151 C 
BRANCH  10  11
ATOM     11  C   UNL     1      15.404  -2.026   6.261  0.00  0.00    -0.028 A 
ATOM     12  C   UNL     1      15.755  -2.583   7.500  0.00  0.00    +0.005 A 
ATOM     13  C   UNL     1      14.283  -2.534   5.587  0.00  0.00    +0.005 A 
ATOM     14  C   UNL     1      14.988  -3.607   8.060  0.00  0.00    +0.000 A 
ATOM     15  C   UNL     1      13.520  -3.557   6.150  0.00  0.00    +0.000 A 
ATOM     16  C   UNL     1      13.871  -4.091   7.387  0.00  0.00    +0.000 A 
ENDBRANCH  10  11
ENDBRANCH   1  10
TORSDOF 2
ENDMDL
MODEL 9
REMARK VINA RESULT:    -4.821     14.927     16.077
REMARK INTER + INTRA:          -5.525
REMARK INTER:                  -5.351
REMARK INTRA:                  -0.174
REMARK UNBOUND:                -0.140
REMARK  Name = 1550473
REMARK  2 active torsions:
REMARK  status: ('A' for Active; 'I' for Inactive)
REMARK    1  A    between atoms: N_1  and  C_4
REMARK    2  A    between atoms: C_4  and  C_5
REMARK                            x       y       z     vdW  Elec       q    Type
REMARK                         _______ _______ _______ _____ _____    ______ ____
ROOT
ATOM      1  N   UNL     1       4.892  10.002   6.304  0.00  0.00    -0.354 N 
ATOM      2  N   UNL     1       3.560  11.835   5.823  0.00  0.00    -0.372 N 
ATOM      3  N   UNL     1       5.177  11.213   4.318  0.00  0.00    -0.372 N 
ATOM      4  C   UNL     1       4.553  11.005   5.483  0.00  0.00    +0.166 C 
ATOM      5  H   UNL     1       4.401   9.916   7.187  0.00  0.00    +0.163 HD
ATOM      6  H   UNL     1       3.280  12.598   5.222  0.00  0.00    +0.159 HD
ATOM      7  H   UNL     1       3.040  11.719   6.684  0.00  0.00    +0.159 HD
ATOM      8  H   UNL     1       5.938  10.626   4.006  0.00  0.00    +0.159 HD
ATOM      9  H   UNL     1       4.919  11.979   3.708  0.00  0.00    +0.159 HD
ENDROOT
BRANCH   1  10
ATOM     10  C   UNL     1       5.923   9.010   6.002  0.00  0.00    +0.151 C 
BRANCH  10  11
ATOM     11  C   UNL     1       5.281   7.820   5.345  0.00  0.00    -0.028 A 
ATOM     12  C   UNL     1       4.277   7.097   6.005  0.00  0.00    +0.005 A 
ATOM     13  C   UNL     1       5.670   7.413   4.059  0.00  0.00    +0.005 A 
ATOM     14  C   UNL     1       3.660   6.009   5.382  0.00  0.00    +0.000 A 
ATOM     15  C   UNL     1       5.052   6.325   3.441  0.00  0.00    +0.000 A 
ATOM     16  C   UNL     1       4.046   5.625   4.102  0.00  0.00    +0.000 A 
ENDBRANCH  10  11
ENDBRANCH   1  10
TORSDOF 2
ENDMDL
