MODEL 1
REMARK VINA RESULT:    -5.476      0.000      0.000
REMARK INTER + INTRA:          -6.293
REMARK INTER:                  -6.117
REMARK INTRA:                  -0.176
REMARK UNBOUND:                -0.176
REMARK  Name = 1550473
REMARK  2 active torsions:
REMARK  status: ('A' for Active; 'I' for Inactive)
REMARK    1  A    between atoms: N_1  and  C_4
REMARK    2  A    between atoms: C_4  and  C_5
REMARK                            x       y       z     vdW  Elec       q    Type
REMARK                         _______ _______ _______ _____ _____    ______ ____
ROOT
ATOM      1  N   UNL     1      -8.698  -6.864  -2.788  0.00  0.00    -0.354 N 
ATOM      2  N   UNL     1      -9.067  -4.602  -3.126  0.00  0.00    -0.372 N 
ATOM      3  N   UNL     1     -10.596  -5.806  -1.910  0.00  0.00    -0.372 N 
ATOM      4  C   UNL     1      -9.453  -5.773  -2.604  0.00  0.00    +0.166 C 
ATOM      5  H   UNL     1      -7.859  -6.779  -3.350  0.00  0.00    +0.163 HD
ATOM      6  H   UNL     1      -9.615  -3.762  -3.002  0.00  0.00    +0.159 HD
ATOM      7  H   UNL     1      -8.204  -4.511  -3.649  0.00  0.00    +0.159 HD
ATOM      8  H   UNL     1     -10.946  -6.659  -1.495  0.00  0.00    +0.159 HD
ATOM      9  H   UNL     1     -11.164  -4.977  -1.784  0.00  0.00    +0.159 HD
ENDROOT
BRANCH   1  10
ATOM     10  C   UNL     1      -9.002  -8.174  -2.216  0.00  0.00    +0.151 C 
BRANCH  10  11
ATOM     11  C   UNL     1      -9.696  -9.014  -3.254  0.00  0.00    -0.028 A 
ATOM     12  C   UNL     1     -11.078  -9.240  -3.178  0.00  0.00    +0.005 A 
ATOM     13  C   UNL     1      -8.977  -9.580  -4.318  0.00  0.00    +0.005 A 
ATOM     14  C   UNL     1     -11.727  -9.995  -4.158  0.00  0.00    +0.000 A 
ATOM     15  C   UNL     1      -9.629 -10.334  -5.293  0.00  0.00    +0.000 A 
ATOM     16  C   UNL     1     -11.005 -10.539  -5.215  0.00  0.00    +0.000 A 
ENDBRANCH  10  11
ENDBRANCH   1  10
TORSDOF 2
ENDMDL
MODEL 2
REMARK VINA RESULT:    -4.908     10.668     11.906
REMARK INTER + INTRA:          -5.658
REMARK INTER:                  -5.596
REMARK INTRA:                  -0.063
REMARK UNBOUND:                -0.176
REMARK  Name = 1550473
REMARK  2 active torsions:
REMARK  status: ('A' for Active; 'I' for Inactive)
REMARK    1  A    between atoms: N_1  and  C_4
REMARK    2  A    between atoms: C_4  and  C_5
REMARK                            x       y       z     vdW  Elec       q    Type
REMARK                         _______ _______ _______ _____ _____    ______ ____
ROOT
ATOM      1  N   UNL     1       0.760  -9.927  -4.620  0.00  0.00    -0.354 N 
ATOM      2  N   UNL     1       2.226 -11.318  -3.489  0.00  0.00    -0.372 N 
ATOM      3  N   UNL     1       1.871  -9.196  -2.691  0.00  0.00    -0.372 N 
ATOM      4  C   UNL     1       1.610 -10.135  -3.606  0.00  0.00    +0.166 C 
ATOM      5  H   UNL     1       0.628 -10.669  -5.298  0.00  0.00    +0.163 HD
ATOM      6  H   UNL     1       2.870 -11.505  -2.732  0.00  0.00    +0.159 HD
ATOM      7  H   UNL     1       2.057 -12.074  -4.141  0.00  0.00    +0.159 HD
ATOM      8  H   UNL     1       1.444  -8.280  -2.726  0.00  0.00    +0.159 HD
ATOM      9  H   UNL     1       2.522  -9.361  -1.933  0.00  0.00    +0.159 HD
ENDROOT
BRANCH   1  10
ATOM     10  C   UNL     1      -0.003  -8.694  -4.808  0.00  0.00    +0.151 C 
BRANCH  10  11
ATOM     11  C   UNL     1       0.558  -7.943  -5.984  0.00  0.00    -0.028 A 
ATOM     12  C   UNL     1      -0.245  -7.050  -6.707  0.00  0.00    +0.005 A 
ATOM     13  C   UNL     1       1.894  -8.117  -6.376  0.00  0.00    +0.005 A 
ATOM     14  C   UNL     1       0.284  -6.329  -7.781  0.00  0.00    +0.000 A 
ATOM     15  C   UNL     1       2.419  -7.397  -7.450  0.00  0.00    +0.000 A 
ATOM     16  C   UNL     1       1.614  -6.501  -8.150  0.00  0.00    +0.000 A 
ENDBRANCH  10  11
ENDBRANCH   1  10
TORSDOF 2
ENDMDL
MODEL 3
REMARK VINA RESULT:    -4.751     11.010     12.089
REMARK INTER + INTRA:          -5.482
REMARK INTER:                  -5.352
REMARK INTRA:                  -0.130
REMARK UNBOUND:                -0.176
REMARK  Name = 1550473
REMARK  2 active torsions:
REMARK  status: ('A' for Active; 'I' for Inactive)
REMARK    1  A    between atoms: N_1  and  C_4
REMARK    2  A    between atoms: C_4  and  C_5
REMARK                            x       y       z     vdW  Elec       q    Type
REMARK                         _______ _______ _______ _____ _____    ______ ____
ROOT
ATOM      1  N   UNL     1       1.008  -7.209  -7.953  0.00  0.00    -0.354 N 
ATOM      2  N   UNL     1       1.623  -6.021  -9.843  0.00  0.00    -0.372 N 
ATOM      3  N   UNL     1      -0.063  -5.204  -8.519  0.00  0.00    -0.372 N 
ATOM      4  C   UNL     1       0.849  -6.151  -8.759  0.00  0.00    +0.166 C 
ATOM      5  H   UNL     1       1.697  -7.908  -8.206  0.00  0.00    +0.163 HD
ATOM      6  H   UNL     1       1.529  -5.232 -10.468  0.00  0.00    +0.159 HD
ATOM      7  H   UNL     1       2.342  -6.698 -10.069  0.00  0.00    +0.159 HD
ATOM      8  H   UNL     1      -0.682  -5.246  -7.721  0.00  0.00    +0.159 HD
ATOM      9  H   UNL     1      -0.180  -4.412  -9.139  0.00  0.00    +0.159 HD
ENDROOT
BRANCH   1  10
ATOM     10  C   UNL     1       0.253  -7.417  -6.718  0.00  0.00    +0.151 C 
BRANCH  10  11
ATOM     11  C   UNL     1       1.091  -8.218  -5.760  0.00  0.00    -0.028 A 
ATOM     12  C   UNL     1       0.505  -8.829  -4.641  0.00  0.00    +0.005 A 
ATOM     13  C   UNL     1       2.470  -8.376  -5.968  0.00  0.00    +0.005 A 
ATOM     14  C   UNL     1       1.277  -9.598  -3.767  0.00  0.00    +0.000 A 
ATOM     15  C   UNL     1       3.237  -9.144  -5.092  0.00  0.00    +0.000 A 
ATOM     16  C   UNL     1       2.640  -9.757  -3.993  0.00  0.00    +0.000 A 
ENDBRANCH  10  11
ENDBRANCH   1  10
TORSDOF 2
ENDMDL
MODEL 4
REMARK VINA RESULT:    -4.678     11.001     12.286
REMARK INTER + INTRA:          -5.401
REMARK INTER:                  -5.265
REMARK INTRA:                  -0.136
REMARK UNBOUND:                -0.176
REMARK  Name = 1550473
REMARK  2 active torsions:
REMARK  status: ('A' for Active; 'I' for Inactive)
REMARK    1  A    between atoms: N_1  and  C_4
REMARK    2  A    between atoms: C_4  and  C_5
REMARK                            x       y       z     vdW  Elec       q    Type
REMARK                         _______ _______ _______ _____ _____    ______ ____
ROOT
ATOM      1  N   UNL     1       2.536 -10.758  -5.498  0.00  0.00    -0.354 N 
ATOM      2  N   UNL     1       2.329 -13.055  -5.282  0.00  0.00    -0.372 N 
ATOM      3  N   UNL     1       2.557 -11.779  -3.389  0.00  0.00    -0.372 N 
ATOM      4  C   UNL     1       2.476 -11.848  -4.722  0.00  0.00    +0.166 C 
ATOM      5  H   UNL     1       2.499 -10.881  -6.504  0.00  0.00    +0.163 HD
ATOM      6  H   UNL     1       2.276 -13.895  -4.722  0.00  0.00    +0.159 HD
ATOM      7  H   UNL     1       2.245 -13.170  -6.285  0.00  0.00    +0.159 HD
ATOM      8  H   UNL     1       2.675 -10.899  -2.905  0.00  0.00    +0.159 HD
ATOM      9  H   UNL     1       2.519 -12.610  -2.811  0.00  0.00    +0.159 HD
ENDROOT
BRANCH   1  10
ATOM     10  C   UNL     1       2.641  -9.394  -4.985  0.00  0.00    +0.151 C 
BRANCH  10  11
ATOM     11  C   UNL     1       1.547  -8.556  -5.588  0.00  0.00    -0.028 A 
ATOM     12  C   UNL     1       0.250  -8.590  -5.057  0.00  0.00    +0.005 A 
ATOM     13  C   UNL     1       1.803  -7.723  -6.688  0.00  0.00    +0.005 A 
ATOM     14  C   UNL     1      -0.760  -7.790  -5.598  0.00  0.00    +0.000 A 
ATOM     15  C   UNL     1       0.793  -6.926  -7.226  0.00  0.00    +0.000 A 
ATOM     16  C   UNL     1      -0.488  -6.958  -6.679  0.00  0.00    +0.000 A 
ENDBRANCH  10  11
ENDBRANCH   1  10
TORSDOF 2
ENDMDL
MODEL 5
REMARK VINA RESULT:    -4.599      9.994     11.386
REMARK INTER + INTRA:          -5.313
REMARK INTER:                  -5.145
REMARK INTRA:                  -0.169
REMARK UNBOUND:                -0.176
REMARK  Name = 1550473
REMARK  2 active torsions:
REMARK  status: ('A' for Active; 'I' for Inactive)
REMARK    1  A    between atoms: N_1  and  C_4
REMARK    2  A    between atoms: C_4  and  C_5
REMARK                            x       y       z     vdW  Elec       q    Type
REMARK                         _______ _______ _______ _____ _____    ______ ____
ROOT
ATOM      1  N   UNL     1      -0.089 -10.071  -5.348  0.00  0.00    -0.354 N 
ATOM      2  N   UNL     1       0.658 -12.178  -5.955  0.00  0.00    -0.372 N 
ATOM      3  N   UNL     1       2.154 -10.685  -5.062  0.00  0.00    -0.372 N 
ATOM      4  C   UNL     1       0.905 -10.963  -5.450  0.00  0.00    +0.166 C 
ATOM      5  H   UNL     1      -1.008 -10.333  -5.688  0.00  0.00    +0.163 HD
ATOM      6  H   UNL     1       1.387 -12.873  -6.042  0.00  0.00    +0.159 HD
ATOM      7  H   UNL     1      -0.271 -12.453  -6.252  0.00  0.00    +0.159 HD
ATOM      8  H   UNL     1       2.408  -9.785  -4.678  0.00  0.00    +0.159 HD
ATOM      9  H   UNL     1       2.900 -11.364  -5.152  0.00  0.00    +0.159 HD
ENDROOT
BRANCH   1  10
ATOM     10  C   UNL     1       0.063  -8.741  -4.763  0.00  0.00    +0.151 C 
BRANCH  10  11
ATOM     11  C   UNL     1      -0.072  -7.708  -5.848  0.00  0.00    -0.028 A 
ATOM     12  C   UNL     1       0.993  -7.453  -6.724  0.00  0.00    +0.005 A 
ATOM     13  C   UNL     1      -1.265  -6.987  -6.009  0.00  0.00    +0.005 A 
ATOM     14  C   UNL     1       0.858  -6.516  -7.751  0.00  0.00    +0.000 A 
ATOM     15  C   UNL     1      -1.395  -6.051  -7.036  0.00  0.00    +0.000 A 
ATOM     16  C   UNL     1      -0.335  -5.818  -7.908  0.00  0.00    +0.000 A 
ENDBRANCH  10  11
ENDBRANCH   1  10
TORSDOF 2
ENDMDL
MODEL 6
REMARK VINA RESULT:    -4.535      1.395      2.163
REMARK INTER + INTRA:          -5.241
REMARK INTER:                  -5.110
REMARK INTRA:                  -0.131
REMARK UNBOUND:                -0.176
REMARK  Name = 1550473
REMARK  2 active torsions:
REMARK  status: ('A' for Active; 'I' for Inactive)
REMARK    1  A    between atoms: N_1  and  C_4
REMARK    2  A    between atoms: C_4  and  C_5
REMARK                            x       y       z     vdW  Elec       q    Type
REMARK                         _______ _______ _______ _____ _____    ______ ____
ROOT
ATOM      1  N   UNL     1      -9.463  -8.772  -2.816  0.00  0.00    -0.354 N 
ATOM      2  N   UNL     1      -7.592  -7.527  -2.255  0.00  0.00    -0.372 N 
ATOM      3  N   UNL     1      -9.495  -6.431  -2.921  0.00  0.00    -0.372 N 
ATOM      4  C   UNL     1      -8.864  -7.583  -2.669  0.00  0.00    +0.166 C 
ATOM      5  H   UNL     1      -8.920  -9.609  -2.637  0.00  0.00    +0.163 HD
ATOM      6  H   UNL     1      -7.115  -6.644  -2.131  0.00  0.00    +0.159 HD
ATOM      7  H   UNL     1      -7.067  -8.364  -2.033  0.00  0.00    +0.159 HD
ATOM      8  H   UNL     1     -10.453  -6.405  -3.242  0.00  0.00    +0.159 HD
ATOM      9  H   UNL     1      -9.030  -5.538  -2.814  0.00  0.00    +0.159 HD
ENDROOT
BRANCH   1  10
ATOM     10  C   UNL     1     -10.861  -8.940  -3.209  0.00  0.00    +0.151 C 
BRANCH  10  11
ATOM     11  C   UNL     1     -10.985 -10.167  -4.069  0.00  0.00    -0.028 A 
ATOM     12  C   UNL     1     -12.157 -10.409  -4.800  0.00  0.00    +0.005 A 
ATOM     13  C   UNL     1      -9.931 -11.089  -4.163  0.00  0.00    +0.005 A 
ATOM     14  C   UNL     1     -12.261 -11.533  -5.623  0.00  0.00    +0.000 A 
ATOM     15  C   UNL     1     -10.039 -12.211  -4.985  0.00  0.00    +0.000 A 
ATOM     16  C   UNL     1     -11.203 -12.431  -5.717  0.00  0.00    +0.000 A 
ENDBRANCH  10  11
ENDBRANCH   1  10
TORSDOF 2
ENDMDL
MODEL 7
REMARK VINA RESULT:    -4.524     10.090     11.461
REMARK INTER + INTRA:          -5.230
REMARK INTER:                  -5.087
REMARK INTRA:                  -0.143
REMARK UNBOUND:                -0.176
REMARK  Name = 1550473
REMARK  2 active torsions:
REMARK  status: ('A' for Active; 'I' for Inactive)
REMARK    1  A    between atoms: N_1  and  C_4
REMARK    2  A    between atoms: C_4  and  C_5
REMARK                            x       y       z     vdW  Elec       q    Type
REMARK                         _______ _______ _______ _____ _____    ______ ____
ROOT
ATOM      1  N   UNL     1      -0.279 -10.729  -5.168  0.00  0.00    -0.354 N 
ATOM      2  N   UNL     1      -1.440 -12.552  -6.000  0.00  0.00    -0.372 N 
ATOM      3  N   UNL     1      -2.587 -10.614  -5.559  0.00  0.00    -0.372 N 
ATOM      4  C   UNL     1      -1.430 -11.285  -5.569  0.00  0.00    +0.166 C 
ATOM      5  H   UNL     1       0.558 -11.300  -5.171  0.00  0.00    +0.163 HD
ATOM      6  H   UNL     1      -2.293 -12.998  -6.312  0.00  0.00    +0.159 HD
ATOM      7  H   UNL     1      -0.594 -13.106  -6.045  0.00  0.00    +0.159 HD
ATOM      8  H   UNL     1      -2.648  -9.657  -5.241  0.00  0.00    +0.159 HD
ATOM      9  H   UNL     1      -3.453 -11.046  -5.857  0.00  0.00    +0.159 HD
ENDROOT
BRANCH   1  10
ATOM     10  C   UNL     1      -0.151  -9.340  -4.732  0.00  0.00    +0.151 C 
BRANCH  10  11
ATOM     11  C   UNL     1       0.773  -8.614  -5.671  0.00  0.00    -0.028 A 
ATOM     12  C   UNL     1       0.285  -7.601  -6.509  0.00  0.00    +0.005 A 
ATOM     13  C   UNL     1       2.139  -8.932  -5.723  0.00  0.00    +0.005 A 
ATOM     14  C   UNL     1       1.148  -6.907  -7.360  0.00  0.00    +0.000 A 
ATOM     15  C   UNL     1       2.998  -8.236  -6.575  0.00  0.00    +0.000 A 
ATOM     16  C   UNL     1       2.502  -7.222  -7.391  0.00  0.00    +0.000 A 
ENDBRANCH  10  11
ENDBRANCH   1  10
TORSDOF 2
ENDMDL
MODEL 8
REMARK VINA RESULT:    -4.377     25.679     27.009
REMARK INTER + INTRA:          -5.065
REMARK INTER:                  -4.934
REMARK INTRA:                  -0.131
REMARK UNBOUND:                -0.176
REMARK  Name = 1550473
REMARK  2 active torsions:
REMARK  status: ('A' for Active; 'I' for Inactive)
REMARK    1  A    between atoms: N_1  and  C_4
REMARK    2  A    between atoms: C_4  and  C_5
REMARK                            x       y       z     vdW  Elec       q    Type
REMARK                         _______ _______ _______ _____ _____    ______ ____
ROOT
ATOM      1  N   UNL     1      10.285   8.051  -9.226  0.00  0.00    -0.354 N 
ATOM      2  N   UNL     1       9.156  10.037  -9.607  0.00  0.00    -0.372 N 
ATOM      3  N   UNL     1       8.239   8.498  -8.174  0.00  0.00    -0.372 N 
ATOM      4  C   UNL     1       9.232   8.847  -8.998  0.00  0.00    +0.166 C 
ATOM      5  H   UNL     1      10.989   8.361  -9.886  0.00  0.00    +0.163 HD
ATOM      6  H   UNL     1       8.376  10.661  -9.452  0.00  0.00    +0.159 HD
ATOM      7  H   UNL     1       9.884  10.364 -10.230  0.00  0.00    +0.159 HD
ATOM      8  H   UNL     1       8.234   7.610  -7.688  0.00  0.00    +0.159 HD
ATOM      9  H   UNL     1       7.444   9.103  -8.014  0.00  0.00    +0.159 HD
ENDROOT
BRANCH   1  10
ATOM     10  C   UNL     1      10.490   6.759  -8.573  0.00  0.00    +0.151 C 
BRANCH  10  11
ATOM     11  C   UNL     1      11.680   6.855  -7.659  0.00  0.00    -0.028 A 
ATOM     12  C   UNL     1      12.017   5.787  -6.814  0.00  0.00    +0.005 A 
ATOM     13  C   UNL     1      12.480   8.008  -7.638  0.00  0.00    +0.005 A 
ATOM     14  C   UNL     1      13.140   5.864  -5.987  0.00  0.00    +0.000 A 
ATOM     15  C   UNL     1      13.600   8.081  -6.810  0.00  0.00    +0.000 A 
ATOM     16  C   UNL     1      13.931   7.008  -5.987  0.00  0.00    +0.000 A 
ENDBRANCH  10  11
ENDBRANCH   1  10
TORSDOF 2
ENDMDL
MODEL 9
REMARK VINA RESULT:    -4.316     10.821     12.076
REMARK INTER + INTRA:          -4.997
REMARK INTER:                  -4.822
REMARK INTRA:                  -0.175
REMARK UNBOUND:                -0.176
REMARK  Name = 1550473
REMARK  2 active torsions:
REMARK  status: ('A' for Active; 'I' for Inactive)
REMARK    1  A    between atoms: N_1  and  C_4
REMARK    2  A    between atoms: C_4  and  C_5
REMARK                            x       y       z     vdW  Elec       q    Type
REMARK                         _______ _______ _______ _____ _____    ______ ____
ROOT
ATOM      1  N   UNL     1      -0.125  -7.087  -9.096  0.00  0.00    -0.354 N 
ATOM      2  N   UNL     1       0.244  -7.978 -11.202  0.00  0.00    -0.372 N 
ATOM      3  N   UNL     1       1.857  -6.642 -10.265  0.00  0.00    -0.372 N 
ATOM      4  C   UNL     1       0.659  -7.228 -10.173  0.00  0.00    +0.166 C 
ATOM      5  H   UNL     1      -1.035  -7.533  -9.101  0.00  0.00    +0.163 HD
ATOM      6  H   UNL     1       0.814  -8.105 -12.027  0.00  0.00    +0.159 HD
ATOM      7  H   UNL     1      -0.647  -8.459 -11.185  0.00  0.00    +0.159 HD
ATOM      8  H   UNL     1       2.226  -6.059  -9.525  0.00  0.00    +0.159 HD
ATOM      9  H   UNL     1       2.438  -6.748 -11.087  0.00  0.00    +0.159 HD
ENDROOT
BRANCH   1  10
ATOM     10  C   UNL     1       0.257  -6.337  -7.900  0.00  0.00    +0.151 C 
BRANCH  10  11
ATOM     11  C   UNL     1       0.556  -7.304  -6.788  0.00  0.00    -0.028 A 
ATOM     12  C   UNL     1       1.851  -7.816  -6.619  0.00  0.00    +0.005 A 
ATOM     13  C   UNL     1      -0.450  -7.708  -5.896  0.00  0.00    +0.005 A 
ATOM     14  C   UNL     1       2.136  -8.690  -5.568  0.00  0.00    +0.000 A 
ATOM     15  C   UNL     1      -0.161  -8.582  -4.849  0.00  0.00    +0.000 A 
ATOM     16  C   UNL     1       1.133  -9.071  -4.683  0.00  0.00    +0.000 A 
ENDBRANCH  10  11
ENDBRANCH   1  10
TORSDOF 2
ENDMDL
