MODEL 1
REMARK VINA RESULT:    -5.435      0.000      0.000
REMARK INTER + INTRA:          -6.198
REMARK INTER:                  -6.071
REMARK INTRA:                  -0.127
REMARK UNBOUND:                -0.127
REMARK  Name = 1550473
REMARK  2 active torsions:
REMARK  status: ('A' for Active; 'I' for Inactive)
REMARK    1  A    between atoms: N_1  and  C_4
REMARK    2  A    between atoms: C_4  and  C_5
REMARK                            x       y       z     vdW  Elec       q    Type
REMARK                         _______ _______ _______ _____ _____    ______ ____
ROOT
ATOM      1  N   UNL     1       1.523   0.374 -14.793  0.00  0.00    -0.354 N 
ATOM      2  N   UNL     1       1.151   1.913 -16.483  0.00  0.00    -0.372 N 
ATOM      3  N   UNL     1       3.108   2.026 -15.292  0.00  0.00    -0.372 N 
ATOM      4  C   UNL     1       1.932   1.428 -15.510  0.00  0.00    +0.166 C 
ATOM      5  H   UNL     1       0.607  -0.015 -14.988  0.00  0.00    +0.163 HD
ATOM      6  H   UNL     1       1.434   2.705 -17.043  0.00  0.00    +0.159 HD
ATOM      7  H   UNL     1       0.256   1.494 -16.707  0.00  0.00    +0.159 HD
ATOM      8  H   UNL     1       3.742   1.712 -14.568  0.00  0.00    +0.159 HD
ATOM      9  H   UNL     1       3.405   2.827 -15.834  0.00  0.00    +0.159 HD
ENDROOT
BRANCH   1  10
ATOM     10  C   UNL     1       2.321  -0.264 -13.747  0.00  0.00    +0.151 C 
BRANCH  10  11
ATOM     11  C   UNL     1       2.418  -1.737 -14.033  0.00  0.00    -0.028 A 
ATOM     12  C   UNL     1       1.358  -2.597 -13.707  0.00  0.00    +0.005 A 
ATOM     13  C   UNL     1       3.564  -2.279 -14.634  0.00  0.00    +0.005 A 
ATOM     14  C   UNL     1       1.436  -3.960 -14.000  0.00  0.00    +0.000 A 
ATOM     15  C   UNL     1       3.638  -3.642 -14.924  0.00  0.00    +0.000 A 
ATOM     16  C   UNL     1       2.572  -4.481 -14.609  0.00  0.00    +0.000 A 
ENDBRANCH  10  11
ENDBRANCH   1  10
TORSDOF 2
ENDMDL
MODEL 2
REMARK VINA RESULT:    -5.162     31.669     32.471
REMARK INTER + INTRA:          -5.893
REMARK INTER:                  -5.781
REMARK INTRA:                  -0.112
REMARK UNBOUND:                -0.127
REMARK  Name = 1550473
REMARK  2 active torsions:
REMARK  status: ('A' for Active; 'I' for Inactive)
REMARK    1  A    between atoms: N_1  and  C_4
REMARK    2  A    between atoms: C_4  and  C_5
REMARK                            x       y       z     vdW  Elec       q    Type
REMARK                         _______ _______ _______ _____ _____    ______ ____
ROOT
ATOM      1  N   UNL     1       9.904   0.130  14.817  0.00  0.00    -0.354 N 
ATOM      2  N   UNL     1       8.345  -0.576  13.256  0.00  0.00    -0.372 N 
ATOM      3  N   UNL     1       9.549  -2.151  14.412  0.00  0.00    -0.372 N 
ATOM      4  C   UNL     1       9.277  -0.863  14.172  0.00  0.00    +0.166 C 
ATOM      5  H   UNL     1       9.674   1.085  14.568  0.00  0.00    +0.163 HD
ATOM      6  H   UNL     1       7.853  -1.304  12.756  0.00  0.00    +0.159 HD
ATOM      7  H   UNL     1       8.085   0.379  13.042  0.00  0.00    +0.159 HD
ATOM      8  H   UNL     1      10.246  -2.434  15.088  0.00  0.00    +0.159 HD
ATOM      9  H   UNL     1       9.075  -2.894  13.913  0.00  0.00    +0.159 HD
ENDROOT
BRANCH   1  10
ATOM     10  C   UNL     1      10.895  -0.076  15.871  0.00  0.00    +0.151 C 
BRANCH  10  11
ATOM     11  C   UNL     1      10.381   0.518  17.153  0.00  0.00    -0.028 A 
ATOM     12  C   UNL     1      11.265   0.840  18.193  0.00  0.00    +0.005 A 
ATOM     13  C   UNL     1       9.012   0.769  17.331  0.00  0.00    +0.005 A 
ATOM     14  C   UNL     1      10.791   1.420  19.373  0.00  0.00    +0.000 A 
ATOM     15  C   UNL     1       8.543   1.347  18.510  0.00  0.00    +0.000 A 
ATOM     16  C   UNL     1       9.433   1.675  19.529  0.00  0.00    +0.000 A 
ENDBRANCH  10  11
ENDBRANCH   1  10
TORSDOF 2
ENDMDL
MODEL 3
REMARK VINA RESULT:    -4.921     31.512     32.241
REMARK INTER + INTRA:          -5.624
REMARK INTER:                  -5.486
REMARK INTRA:                  -0.138
REMARK UNBOUND:                -0.127
REMARK  Name = 1550473
REMARK  2 active torsions:
REMARK  status: ('A' for Active; 'I' for Inactive)
REMARK    1  A    between atoms: N_1  and  C_4
REMARK    2  A    between atoms: C_4  and  C_5
REMARK                            x       y       z     vdW  Elec       q    Type
REMARK                         _______ _______ _______ _____ _____    ______ ____
ROOT
ATOM      1  N   UNL     1      10.199  -0.229  14.581  0.00  0.00    -0.354 N 
ATOM      2  N   UNL     1       8.198  -0.521  13.452  0.00  0.00    -0.372 N 
ATOM      3  N   UNL     1       9.701  -2.253  13.510  0.00  0.00    -0.372 N 
ATOM      4  C   UNL     1       9.380  -1.002  13.855  0.00  0.00    +0.166 C 
ATOM      5  H   UNL     1       9.910   0.721  14.783  0.00  0.00    +0.163 HD
ATOM      6  H   UNL     1       7.558  -1.082  12.906  0.00  0.00    +0.159 HD
ATOM      7  H   UNL     1       7.892   0.414  13.695  0.00  0.00    +0.159 HD
ATOM      8  H   UNL     1      10.582  -2.673  13.778  0.00  0.00    +0.159 HD
ATOM      9  H   UNL     1       9.079  -2.826  12.954  0.00  0.00    +0.159 HD
ENDROOT
BRANCH   1  10
ATOM     10  C   UNL     1      11.485  -0.675  15.114  0.00  0.00    +0.151 C 
BRANCH  10  11
ATOM     11  C   UNL     1      11.641  -0.158  16.518  0.00  0.00    -0.028 A 
ATOM     12  C   UNL     1      10.557   0.435  17.182  0.00  0.00    +0.005 A 
ATOM     13  C   UNL     1      12.867  -0.264  17.191  0.00  0.00    +0.005 A 
ATOM     14  C   UNL     1      10.693   0.888  18.497  0.00  0.00    +0.000 A 
ATOM     15  C   UNL     1      12.999   0.191  18.503  0.00  0.00    +0.000 A 
ATOM     16  C   UNL     1      11.911   0.764  19.156  0.00  0.00    +0.000 A 
ENDBRANCH  10  11
ENDBRANCH   1  10
TORSDOF 2
ENDMDL
MODEL 4
REMARK VINA RESULT:    -4.783      4.102      4.668
REMARK INTER + INTRA:          -5.469
REMARK INTER:                  -5.325
REMARK INTRA:                  -0.144
REMARK UNBOUND:                -0.127
REMARK  Name = 1550473
REMARK  2 active torsions:
REMARK  status: ('A' for Active; 'I' for Inactive)
REMARK    1  A    between atoms: N_1  and  C_4
REMARK    2  A    between atoms: C_4  and  C_5
REMARK                            x       y       z     vdW  Elec       q    Type
REMARK                         _______ _______ _______ _____ _____    ______ ____
ROOT
ATOM      1  N   UNL     1       1.978  -2.923 -18.533  0.00  0.00    -0.354 N 
ATOM      2  N   UNL     1       3.265  -3.574 -20.345  0.00  0.00    -0.372 N 
ATOM      3  N   UNL     1       1.014  -4.017 -20.368  0.00  0.00    -0.372 N 
ATOM      4  C   UNL     1       2.075  -3.502 -19.738  0.00  0.00    +0.166 C 
ATOM      5  H   UNL     1       2.824  -2.579 -18.095  0.00  0.00    +0.163 HD
ATOM      6  H   UNL     1       3.369  -4.002 -21.255  0.00  0.00    +0.159 HD
ATOM      7  H   UNL     1       4.102  -3.188 -19.925  0.00  0.00    +0.159 HD
ATOM      8  H   UNL     1       0.088  -3.999 -19.961  0.00  0.00    +0.159 HD
ATOM      9  H   UNL     1       1.100  -4.460 -21.275  0.00  0.00    +0.159 HD
ENDROOT
BRANCH   1  10
ATOM     10  C   UNL     1       0.719  -2.745 -17.811  0.00  0.00    +0.151 C 
BRANCH  10  11
ATOM     11  C   UNL     1       0.862  -3.316 -16.427  0.00  0.00    -0.028 A 
ATOM     12  C   UNL     1      -0.270  -3.555 -15.635  0.00  0.00    +0.005 A 
ATOM     13  C   UNL     1       2.127  -3.627 -15.905  0.00  0.00    +0.005 A 
ATOM     14  C   UNL     1      -0.140  -4.113 -14.361  0.00  0.00    +0.000 A 
ATOM     15  C   UNL     1       2.253  -4.184 -14.632  0.00  0.00    +0.000 A 
ATOM     16  C   UNL     1       1.119  -4.429 -13.862  0.00  0.00    +0.000 A 
ENDBRANCH  10  11
ENDBRANCH   1  10
TORSDOF 2
ENDMDL
MODEL 5
REMARK VINA RESULT:    -4.772     32.299     33.071
REMARK INTER + INTRA:          -5.457
REMARK INTER:                  -5.322
REMARK INTRA:                  -0.135
REMARK UNBOUND:                -0.127
REMARK  Name = 1550473
REMARK  2 active torsions:
REMARK  status: ('A' for Active; 'I' for Inactive)
REMARK    1  A    between atoms: N_1  and  C_4
REMARK    2  A    between atoms: C_4  and  C_5
REMARK                            x       y       z     vdW  Elec       q    Type
REMARK                         _______ _______ _______ _____ _____    ______ ____
ROOT
ATOM      1  N   UNL     1       9.139  -0.971  16.098  0.00  0.00    -0.354 N 
ATOM      2  N   UNL     1       8.455  -0.469  13.943  0.00  0.00    -0.372 N 
ATOM      3  N   UNL     1      10.597   0.055  14.578  0.00  0.00    -0.372 N 
ATOM      4  C   UNL     1       9.404  -0.464  14.887  0.00  0.00    +0.166 C 
ATOM      5  H   UNL     1       8.205  -1.322  16.279  0.00  0.00    +0.163 HD
ATOM      6  H   UNL     1       8.627  -0.096  13.019  0.00  0.00    +0.159 HD
ATOM      7  H   UNL     1       7.537  -0.862  14.113  0.00  0.00    +0.159 HD
ATOM      8  H   UNL     1      11.354   0.094  15.247  0.00  0.00    +0.159 HD
ATOM      9  H   UNL     1      10.784   0.444  13.662  0.00  0.00    +0.159 HD
ENDROOT
BRANCH   1  10
ATOM     10  C   UNL     1      10.119  -1.063  17.179  0.00  0.00    +0.151 C 
BRANCH  10  11
ATOM     11  C   UNL     1      10.015   0.165  18.041  0.00  0.00    -0.028 A 
ATOM     12  C   UNL     1       8.768   0.759  18.287  0.00  0.00    +0.005 A 
ATOM     13  C   UNL     1      11.159   0.735  18.621  0.00  0.00    +0.005 A 
ATOM     14  C   UNL     1       8.667   1.881  19.113  0.00  0.00    +0.000 A 
ATOM     15  C   UNL     1      11.054   1.857  19.444  0.00  0.00    +0.000 A 
ATOM     16  C   UNL     1       9.808   2.428  19.691  0.00  0.00    +0.000 A 
ENDBRANCH  10  11
ENDBRANCH   1  10
TORSDOF 2
ENDMDL
MODEL 6
REMARK VINA RESULT:    -4.550     12.201     13.239
REMARK INTER + INTRA:          -5.209
REMARK INTER:                  -5.118
REMARK INTRA:                  -0.091
REMARK UNBOUND:                -0.127
REMARK  Name = 1550473
REMARK  2 active torsions:
REMARK  status: ('A' for Active; 'I' for Inactive)
REMARK    1  A    between atoms: N_1  and  C_4
REMARK    2  A    between atoms: C_4  and  C_5
REMARK                            x       y       z     vdW  Elec       q    Type
REMARK                         _______ _______ _______ _____ _____    ______ ____
ROOT
ATOM      1  N   UNL     1       2.295  10.091  -8.447  0.00  0.00    -0.354 N 
ATOM      2  N   UNL     1       4.338  11.150  -8.184  0.00  0.00    -0.372 N 
ATOM      3  N   UNL     1       3.989   9.861 -10.050  0.00  0.00    -0.372 N 
ATOM      4  C   UNL     1       3.528  10.359  -8.898  0.00  0.00    +0.166 C 
ATOM      5  H   UNL     1       2.016  10.474  -7.552  0.00  0.00    +0.163 HD
ATOM      6  H   UNL     1       5.272  11.372  -8.500  0.00  0.00    +0.159 HD
ATOM      7  H   UNL     1       4.039  11.569  -7.311  0.00  0.00    +0.159 HD
ATOM      8  H   UNL     1       3.430   9.253 -10.633  0.00  0.00    +0.159 HD
ATOM      9  H   UNL     1       4.926  10.063 -10.377  0.00  0.00    +0.159 HD
ENDROOT
BRANCH   1  10
ATOM     10  C   UNL     1       1.316   9.285  -9.175  0.00  0.00    +0.151 C 
BRANCH  10  11
ATOM     11  C   UNL     1       0.004   9.325  -8.441  0.00  0.00    -0.028 A 
ATOM     12  C   UNL     1      -0.996  10.233  -8.820  0.00  0.00    +0.005 A 
ATOM     13  C   UNL     1      -0.248   8.454  -7.370  0.00  0.00    +0.005 A 
ATOM     14  C   UNL     1      -2.226  10.250  -8.158  0.00  0.00    +0.000 A 
ATOM     15  C   UNL     1      -1.477   8.476  -6.711  0.00  0.00    +0.000 A 
ATOM     16  C   UNL     1      -2.467   9.372  -7.107  0.00  0.00    +0.000 A 
ENDBRANCH  10  11
ENDBRANCH   1  10
TORSDOF 2
ENDMDL
MODEL 7
REMARK VINA RESULT:    -4.452      2.900      3.602
REMARK INTER + INTRA:          -5.100
REMARK INTER:                  -4.949
REMARK INTRA:                  -0.151
REMARK UNBOUND:                -0.127
REMARK  Name = 1550473
REMARK  2 active torsions:
REMARK  status: ('A' for Active; 'I' for Inactive)
REMARK    1  A    between atoms: N_1  and  C_4
REMARK    2  A    between atoms: C_4  and  C_5
REMARK                            x       y       z     vdW  Elec       q    Type
REMARK                         _______ _______ _______ _____ _____    ______ ____
ROOT
ATOM      1  N   UNL     1       1.324  -2.124 -18.557  0.00  0.00    -0.354 N 
ATOM      2  N   UNL     1       0.721  -0.113 -19.534  0.00  0.00    -0.372 N 
ATOM      3  N   UNL     1       2.631  -0.200 -18.266  0.00  0.00    -0.372 N 
ATOM      4  C   UNL     1       1.565  -0.825 -18.778  0.00  0.00    +0.166 C 
ATOM      5  H   UNL     1       0.483  -2.531 -18.948  0.00  0.00    +0.163 HD
ATOM      6  H   UNL     1       0.878   0.868 -19.721  0.00  0.00    +0.159 HD
ATOM      7  H   UNL     1      -0.095  -0.533 -19.962  0.00  0.00    +0.159 HD
ATOM      8  H   UNL     1       3.303  -0.680 -17.682  0.00  0.00    +0.159 HD
ATOM      9  H   UNL     1       2.799   0.784 -18.432  0.00  0.00    +0.159 HD
ENDROOT
BRANCH   1  10
ATOM     10  C   UNL     1       2.209  -3.001 -17.792  0.00  0.00    +0.151 C 
BRANCH  10  11
ATOM     11  C   UNL     1       1.513  -3.419 -16.526  0.00  0.00    -0.028 A 
ATOM     12  C   UNL     1       2.246  -3.932 -15.446  0.00  0.00    +0.005 A 
ATOM     13  C   UNL     1       0.120  -3.298 -16.399  0.00  0.00    +0.005 A 
ATOM     14  C   UNL     1       1.603  -4.292 -14.259  0.00  0.00    +0.000 A 
ATOM     15  C   UNL     1      -0.518  -3.660 -15.212  0.00  0.00    +0.000 A 
ATOM     16  C   UNL     1       0.224  -4.154 -14.142  0.00  0.00    +0.000 A 
ENDBRANCH  10  11
ENDBRANCH   1  10
TORSDOF 2
ENDMDL
MODEL 8
REMARK VINA RESULT:    -4.444      4.312      5.359
REMARK INTER + INTRA:          -5.091
REMARK INTER:                  -4.995
REMARK INTRA:                  -0.097
REMARK UNBOUND:                -0.127
REMARK  Name = 1550473
REMARK  2 active torsions:
REMARK  status: ('A' for Active; 'I' for Inactive)
REMARK    1  A    between atoms: N_1  and  C_4
REMARK    2  A    between atoms: C_4  and  C_5
REMARK                            x       y       z     vdW  Elec       q    Type
REMARK                         _______ _______ _______ _____ _____    ______ ____
ROOT
ATOM      1  N   UNL     1       4.050  -5.005 -16.700  0.00  0.00    -0.354 N 
ATOM      2  N   UNL     1       5.526  -6.667 -17.349  0.00  0.00    -0.372 N 
ATOM      3  N   UNL     1       6.357  -4.768 -16.366  0.00  0.00    -0.372 N 
ATOM      4  C   UNL     1       5.303  -5.467 -16.800  0.00  0.00    +0.166 C 
ATOM      5  H   UNL     1       3.297  -5.570 -17.075  0.00  0.00    +0.163 HD
ATOM      6  H   UNL     1       6.461  -7.044 -17.434  0.00  0.00    +0.159 HD
ATOM      7  H   UNL     1       4.768  -7.250 -17.681  0.00  0.00    +0.159 HD
ATOM      8  H   UNL     1       6.257  -3.852 -15.948  0.00  0.00    +0.159 HD
ATOM      9  H   UNL     1       7.301  -5.123 -16.453  0.00  0.00    +0.159 HD
ENDROOT
BRANCH   1  10
ATOM     10  C   UNL     1       3.695  -3.734 -16.071  0.00  0.00    +0.151 C 
BRANCH  10  11
ATOM     11  C   UNL     1       2.261  -3.793 -15.620  0.00  0.00    -0.028 A 
ATOM     12  C   UNL     1       1.933  -4.290 -14.351  0.00  0.00    +0.005 A 
ATOM     13  C   UNL     1       1.226  -3.347 -16.457  0.00  0.00    +0.005 A 
ATOM     14  C   UNL     1       0.605  -4.317 -13.920  0.00  0.00    +0.000 A 
ATOM     15  C   UNL     1      -0.099  -3.376 -16.024  0.00  0.00    +0.000 A 
ATOM     16  C   UNL     1      -0.410  -3.859 -14.755  0.00  0.00    +0.000 A 
ENDBRANCH  10  11
ENDBRANCH   1  10
TORSDOF 2
ENDMDL
MODEL 9
REMARK VINA RESULT:    -4.293     34.507     35.374
REMARK INTER + INTRA:          -4.922
REMARK INTER:                  -4.781
REMARK INTRA:                  -0.141
REMARK UNBOUND:                -0.127
REMARK  Name = 1550473
REMARK  2 active torsions:
REMARK  status: ('A' for Active; 'I' for Inactive)
REMARK    1  A    between atoms: N_1  and  C_4
REMARK    2  A    between atoms: C_4  and  C_5
REMARK                            x       y       z     vdW  Elec       q    Type
REMARK                         _______ _______ _______ _____ _____    ______ ____
ROOT
ATOM      1  N   UNL     1      10.797   0.918  18.436  0.00  0.00    -0.354 N 
ATOM      2  N   UNL     1      10.774   0.001  16.310  0.00  0.00    -0.372 N 
ATOM      3  N   UNL     1      12.761   0.761  17.168  0.00  0.00    -0.372 N 
ATOM      4  C   UNL     1      11.447   0.567  17.319  0.00  0.00    +0.166 C 
ATOM      5  H   UNL     1       9.795   0.772  18.476  0.00  0.00    +0.163 HD
ATOM      6  H   UNL     1      11.238  -0.278  15.456  0.00  0.00    +0.159 HD
ATOM      7  H   UNL     1       9.780  -0.186  16.371  0.00  0.00    +0.159 HD
ATOM      8  H   UNL     1      13.326   1.189  17.890  0.00  0.00    +0.159 HD
ATOM      9  H   UNL     1      13.242   0.500  16.316  0.00  0.00    +0.159 HD
ENDROOT
BRANCH   1  10
ATOM     10  C   UNL     1      11.446   1.492  19.614  0.00  0.00    +0.151 C 
BRANCH  10  11
ATOM     11  C   UNL     1      10.744   2.768  19.989  0.00  0.00    -0.028 A 
ATOM     12  C   UNL     1       9.400   2.970  19.642  0.00  0.00    +0.005 A 
ATOM     13  C   UNL     1      11.416   3.777  20.696  0.00  0.00    +0.005 A 
ATOM     14  C   UNL     1       8.739   4.143  20.016  0.00  0.00    +0.000 A 
ATOM     15  C   UNL     1      10.753   4.947  21.067  0.00  0.00    +0.000 A 
ATOM     16  C   UNL     1       9.414   5.128  20.729  0.00  0.00    +0.000 A 
ENDBRANCH  10  11
ENDBRANCH   1  10
TORSDOF 2
ENDMDL
