MODEL 1
REMARK VINA RESULT:    -5.648      0.000      0.000
REMARK INTER + INTRA:          -6.387
REMARK INTER:                  -6.308
REMARK INTRA:                  -0.079
REMARK UNBOUND:                -0.079
REMARK  Name = 1550473
REMARK  2 active torsions:
REMARK  status: ('A' for Active; 'I' for Inactive)
REMARK    1  A    between atoms: N_1  and  C_4
REMARK    2  A    between atoms: C_4  and  C_5
REMARK                            x       y       z     vdW  Elec       q    Type
REMARK                         _______ _______ _______ _____ _____    ______ ____
ROOT
ATOM      1  N   UNL     1      -4.965  -1.780  -0.038  0.00  0.00    -0.354 N 
ATOM      2  N   UNL     1      -6.375  -0.523   1.302  0.00  0.00    -0.372 N 
ATOM      3  N   UNL     1      -7.273  -2.185  -0.002  0.00  0.00    -0.372 N 
ATOM      4  C   UNL     1      -6.197  -1.506   0.411  0.00  0.00    +0.166 C 
ATOM      5  H   UNL     1      -4.195  -1.209   0.291  0.00  0.00    +0.163 HD
ATOM      6  H   UNL     1      -7.293  -0.296   1.661  0.00  0.00    +0.159 HD
ATOM      7  H   UNL     1      -5.598   0.015   1.664  0.00  0.00    +0.159 HD
ATOM      8  H   UNL     1      -7.207  -2.934  -0.678  0.00  0.00    +0.159 HD
ATOM      9  H   UNL     1      -8.201  -1.964   0.338  0.00  0.00    +0.159 HD
ENDROOT
BRANCH   1  10
ATOM     10  C   UNL     1      -4.657  -2.865  -0.969  0.00  0.00    +0.151 C 
BRANCH  10  11
ATOM     11  C   UNL     1      -4.283  -2.277  -2.301  0.00  0.00    -0.028 A 
ATOM     12  C   UNL     1      -3.634  -3.060  -3.268  0.00  0.00    +0.005 A 
ATOM     13  C   UNL     1      -4.579  -0.939  -2.606  0.00  0.00    +0.005 A 
ATOM     14  C   UNL     1      -3.314  -2.523  -4.517  0.00  0.00    +0.000 A 
ATOM     15  C   UNL     1      -4.256  -0.407  -3.854  0.00  0.00    +0.000 A 
ATOM     16  C   UNL     1      -3.626  -1.199  -4.810  0.00  0.00    +0.000 A 
ENDBRANCH  10  11
ENDBRANCH   1  10
TORSDOF 2
ENDMDL
MODEL 2
REMARK VINA RESULT:    -5.500      3.553      4.858
REMARK INTER + INTRA:          -6.223
REMARK INTER:                  -6.105
REMARK INTRA:                  -0.118
REMARK UNBOUND:                -0.079
REMARK  Name = 1550473
REMARK  2 active torsions:
REMARK  status: ('A' for Active; 'I' for Inactive)
REMARK    1  A    between atoms: N_1  and  C_4
REMARK    2  A    between atoms: C_4  and  C_5
REMARK                            x       y       z     vdW  Elec       q    Type
REMARK                         _______ _______ _______ _____ _____    ______ ____
ROOT
ATOM      1  N   UNL     1      -2.494  -3.933  -0.282  0.00  0.00    -0.354 N 
ATOM      2  N   UNL     1      -0.246  -4.365   0.069  0.00  0.00    -0.372 N 
ATOM      3  N   UNL     1      -1.618  -6.086  -0.581  0.00  0.00    -0.372 N 
ATOM      4  C   UNL     1      -1.469  -4.795  -0.268  0.00  0.00    +0.166 C 
ATOM      5  H   UNL     1      -2.321  -2.974  -0.005  0.00  0.00    +0.163 HD
ATOM      6  H   UNL     1       0.548  -4.991   0.085  0.00  0.00    +0.159 HD
ATOM      7  H   UNL     1      -0.067  -3.396   0.300  0.00  0.00    +0.159 HD
ATOM      8  H   UNL     1      -2.516  -6.474  -0.837  0.00  0.00    +0.159 HD
ATOM      9  H   UNL     1      -0.838  -6.731  -0.558  0.00  0.00    +0.159 HD
ENDROOT
BRANCH   1  10
ATOM     10  C   UNL     1      -3.854  -4.288  -0.686  0.00  0.00    +0.151 C 
BRANCH  10  11
ATOM     11  C   UNL     1      -4.771  -3.134  -0.387  0.00  0.00    -0.028 A 
ATOM     12  C   UNL     1      -6.140  -3.351  -0.168  0.00  0.00    +0.005 A 
ATOM     13  C   UNL     1      -4.278  -1.822  -0.317  0.00  0.00    +0.005 A 
ATOM     14  C   UNL     1      -6.987  -2.283   0.139  0.00  0.00    +0.000 A 
ATOM     15  C   UNL     1      -5.127  -0.759  -0.011  0.00  0.00    +0.000 A 
ATOM     16  C   UNL     1      -6.481  -0.990   0.219  0.00  0.00    +0.000 A 
ENDBRANCH  10  11
ENDBRANCH   1  10
TORSDOF 2
ENDMDL
MODEL 3
REMARK VINA RESULT:    -5.390      3.075      4.799
REMARK INTER + INTRA:          -6.100
REMARK INTER:                  -5.923
REMARK INTRA:                  -0.176
REMARK UNBOUND:                -0.079
REMARK  Name = 1550473
REMARK  2 active torsions:
REMARK  status: ('A' for Active; 'I' for Inactive)
REMARK    1  A    between atoms: N_1  and  C_4
REMARK    2  A    between atoms: C_4  and  C_5
REMARK                            x       y       z     vdW  Elec       q    Type
REMARK                         _______ _______ _______ _____ _____    ______ ____
ROOT
ATOM      1  N   UNL     1      -4.918  -4.485  -1.479  0.00  0.00    -0.354 N 
ATOM      2  N   UNL     1      -3.261  -6.065  -1.136  0.00  0.00    -0.372 N 
ATOM      3  N   UNL     1      -2.710  -4.084  -2.154  0.00  0.00    -0.372 N 
ATOM      4  C   UNL     1      -3.639  -4.866  -1.594  0.00  0.00    +0.166 C 
ATOM      5  H   UNL     1      -5.580  -5.135  -1.072  0.00  0.00    +0.163 HD
ATOM      6  H   UNL     1      -2.302  -6.378  -1.205  0.00  0.00    +0.159 HD
ATOM      7  H   UNL     1      -3.915  -6.695  -0.687  0.00  0.00    +0.159 HD
ATOM      8  H   UNL     1      -2.932  -3.170  -2.525  0.00  0.00    +0.159 HD
ATOM      9  H   UNL     1      -1.748  -4.385  -2.243  0.00  0.00    +0.159 HD
ENDROOT
BRANCH   1  10
ATOM     10  C   UNL     1      -5.423  -3.178  -1.897  0.00  0.00    +0.151 C 
BRANCH  10  11
ATOM     11  C   UNL     1      -5.607  -2.311  -0.682  0.00  0.00    -0.028 A 
ATOM     12  C   UNL     1      -4.563  -1.494  -0.225  0.00  0.00    +0.005 A 
ATOM     13  C   UNL     1      -6.826  -2.298   0.014  0.00  0.00    +0.005 A 
ATOM     14  C   UNL     1      -4.743  -0.667   0.886  0.00  0.00    +0.000 A 
ATOM     15  C   UNL     1      -7.002  -1.471   1.123  0.00  0.00    +0.000 A 
ATOM     16  C   UNL     1      -5.962  -0.654   1.557  0.00  0.00    +0.000 A 
ENDBRANCH  10  11
ENDBRANCH   1  10
TORSDOF 2
ENDMDL
MODEL 4
REMARK VINA RESULT:    -5.340      7.360      8.380
REMARK INTER + INTRA:          -6.044
REMARK INTER:                  -5.879
REMARK INTRA:                  -0.164
REMARK UNBOUND:                -0.079
REMARK  Name = 1550473
REMARK  2 active torsions:
REMARK  status: ('A' for Active; 'I' for Inactive)
REMARK    1  A    between atoms: N_1  and  C_4
REMARK    2  A    between atoms: C_4  and  C_5
REMARK                            x       y       z     vdW  Elec       q    Type
REMARK                         _______ _______ _______ _____ _____    ______ ____
ROOT
ATOM      1  N   UNL     1      -8.755  -5.495  -6.547  0.00  0.00    -0.354 N 
ATOM      2  N   UNL     1      -8.832  -7.464  -7.764  0.00  0.00    -0.372 N 
ATOM      3  N   UNL     1     -10.098  -5.680  -8.459  0.00  0.00    -0.372 N 
ATOM      4  C   UNL     1      -9.230  -6.199  -7.583  0.00  0.00    +0.166 C 
ATOM      5  H   UNL     1      -8.123  -5.955  -5.902  0.00  0.00    +0.163 HD
ATOM      6  H   UNL     1      -9.171  -8.018  -8.539  0.00  0.00    +0.159 HD
ATOM      7  H   UNL     1      -8.165  -7.907  -7.144  0.00  0.00    +0.159 HD
ATOM      8  H   UNL     1     -10.442  -4.733  -8.375  0.00  0.00    +0.159 HD
ATOM      9  H   UNL     1     -10.457  -6.223  -9.234  0.00  0.00    +0.159 HD
ENDROOT
BRANCH   1  10
ATOM     10  C   UNL     1      -9.083  -4.094  -6.291  0.00  0.00    +0.151 C 
BRANCH  10  11
ATOM     11  C   UNL     1      -9.896  -4.002  -5.030  0.00  0.00    -0.028 A 
ATOM     12  C   UNL     1      -9.267  -3.997  -3.776  0.00  0.00    +0.005 A 
ATOM     13  C   UNL     1     -11.296  -3.914  -5.081  0.00  0.00    +0.005 A 
ATOM     14  C   UNL     1     -10.020  -3.881  -2.605  0.00  0.00    +0.000 A 
ATOM     15  C   UNL     1     -12.044  -3.800  -3.910  0.00  0.00    +0.000 A 
ATOM     16  C   UNL     1     -11.405  -3.781  -2.672  0.00  0.00    +0.000 A 
ENDBRANCH  10  11
ENDBRANCH   1  10
TORSDOF 2
ENDMDL
MODEL 5
REMARK VINA RESULT:    -5.339      2.349      3.567
REMARK INTER + INTRA:          -6.043
REMARK INTER:                  -5.949
REMARK INTRA:                  -0.094
REMARK UNBOUND:                -0.079
REMARK  Name = 1550473
REMARK  2 active torsions:
REMARK  status: ('A' for Active; 'I' for Inactive)
REMARK    1  A    between atoms: N_1  and  C_4
REMARK    2  A    between atoms: C_4  and  C_5
REMARK                            x       y       z     vdW  Elec       q    Type
REMARK                         _______ _______ _______ _____ _____    ______ ____
ROOT
ATOM      1  N   UNL     1      -4.039  -4.452  -1.122  0.00  0.00    -0.354 N 
ATOM      2  N   UNL     1      -2.712  -6.317  -0.769  0.00  0.00    -0.372 N 
ATOM      3  N   UNL     1      -2.015  -4.289   0.047  0.00  0.00    -0.372 N 
ATOM      4  C   UNL     1      -2.929  -5.005  -0.616  0.00  0.00    +0.166 C 
ATOM      5  H   UNL     1      -4.679  -5.044  -1.640  0.00  0.00    +0.163 HD
ATOM      6  H   UNL     1      -1.885  -6.763  -0.395  0.00  0.00    +0.159 HD
ATOM      7  H   UNL     1      -3.375  -6.914  -1.247  0.00  0.00    +0.159 HD
ATOM      8  H   UNL     1      -2.116  -3.293   0.192  0.00  0.00    +0.159 HD
ATOM      9  H   UNL     1      -1.175  -4.715   0.418  0.00  0.00    +0.159 HD
ENDROOT
BRANCH   1  10
ATOM     10  C   UNL     1      -4.396  -3.043  -0.964  0.00  0.00    +0.151 C 
BRANCH  10  11
ATOM     11  C   UNL     1      -4.219  -2.341  -2.281  0.00  0.00    -0.028 A 
ATOM     12  C   UNL     1      -4.558  -0.987  -2.418  0.00  0.00    +0.005 A 
ATOM     13  C   UNL     1      -3.707  -3.022  -3.396  0.00  0.00    +0.005 A 
ATOM     14  C   UNL     1      -4.365  -0.326  -3.633  0.00  0.00    +0.000 A 
ATOM     15  C   UNL     1      -3.517  -2.359  -4.608  0.00  0.00    +0.000 A 
ATOM     16  C   UNL     1      -3.844  -1.010  -4.726  0.00  0.00    +0.000 A 
ENDBRANCH  10  11
ENDBRANCH   1  10
TORSDOF 2
ENDMDL
MODEL 6
REMARK VINA RESULT:    -5.293      7.522      8.256
REMARK INTER + INTRA:          -5.991
REMARK INTER:                  -5.873
REMARK INTRA:                  -0.119
REMARK UNBOUND:                -0.079
REMARK  Name = 1550473
REMARK  2 active torsions:
REMARK  status: ('A' for Active; 'I' for Inactive)
REMARK    1  A    between atoms: N_1  and  C_4
REMARK    2  A    between atoms: C_4  and  C_5
REMARK                            x       y       z     vdW  Elec       q    Type
REMARK                         _______ _______ _______ _____ _____    ______ ____
ROOT
ATOM      1  N   UNL     1     -13.624  -4.672  -2.681  0.00  0.00    -0.354 N 
ATOM      2  N   UNL     1     -15.702  -5.288  -3.499  0.00  0.00    -0.372 N 
ATOM      3  N   UNL     1     -15.232  -3.058  -3.230  0.00  0.00    -0.372 N 
ATOM      4  C   UNL     1     -14.839  -4.332  -3.131  0.00  0.00    +0.166 C 
ATOM      5  H   UNL     1     -13.399  -5.657  -2.601  0.00  0.00    +0.163 HD
ATOM      6  H   UNL     1     -16.624  -5.061  -3.846  0.00  0.00    +0.159 HD
ATOM      7  H   UNL     1     -15.457  -6.270  -3.462  0.00  0.00    +0.159 HD
ATOM      8  H   UNL     1     -14.630  -2.290  -2.963  0.00  0.00    +0.159 HD
ATOM      9  H   UNL     1     -16.155  -2.812  -3.564  0.00  0.00    +0.159 HD
ENDROOT
BRANCH   1  10
ATOM     10  C   UNL     1     -12.592  -3.707  -2.305  0.00  0.00    +0.151 C 
BRANCH  10  11
ATOM     11  C   UNL     1     -11.426  -3.846  -3.244  0.00  0.00    -0.028 A 
ATOM     12  C   UNL     1     -11.630  -3.903  -4.630  0.00  0.00    +0.005 A 
ATOM     13  C   UNL     1     -10.112  -3.915  -2.753  0.00  0.00    +0.005 A 
ATOM     14  C   UNL     1     -10.545  -4.002  -5.504  0.00  0.00    +0.000 A 
ATOM     15  C   UNL     1      -9.031  -4.014  -3.629  0.00  0.00    +0.000 A 
ATOM     16  C   UNL     1      -9.248  -4.055  -5.004  0.00  0.00    +0.000 A 
ENDBRANCH  10  11
ENDBRANCH   1  10
TORSDOF 2
ENDMDL
MODEL 7
REMARK VINA RESULT:    -5.233      6.023      7.251
REMARK INTER + INTRA:          -5.924
REMARK INTER:                  -5.800
REMARK INTRA:                  -0.124
REMARK UNBOUND:                -0.079
REMARK  Name = 1550473
REMARK  2 active torsions:
REMARK  status: ('A' for Active; 'I' for Inactive)
REMARK    1  A    between atoms: N_1  and  C_4
REMARK    2  A    between atoms: C_4  and  C_5
REMARK                            x       y       z     vdW  Elec       q    Type
REMARK                         _______ _______ _______ _____ _____    ______ ____
ROOT
ATOM      1  N   UNL     1      -2.925  -2.820  -7.124  0.00  0.00    -0.354 N 
ATOM      2  N   UNL     1      -1.232  -1.511  -6.241  0.00  0.00    -0.372 N 
ATOM      3  N   UNL     1      -1.066  -2.218  -8.417  0.00  0.00    -0.372 N 
ATOM      4  C   UNL     1      -1.751  -2.192  -7.269  0.00  0.00    +0.166 C 
ATOM      5  H   UNL     1      -3.380  -2.788  -6.219  0.00  0.00    +0.163 HD
ATOM      6  H   UNL     1      -0.349  -1.024  -6.321  0.00  0.00    +0.159 HD
ATOM      7  H   UNL     1      -1.710  -1.442  -5.351  0.00  0.00    +0.159 HD
ATOM      8  H   UNL     1      -1.401  -2.719  -9.229  0.00  0.00    +0.159 HD
ATOM      9  H   UNL     1      -0.176  -1.747  -8.514  0.00  0.00    +0.159 HD
ENDROOT
BRANCH   1  10
ATOM     10  C   UNL     1      -3.603  -3.545  -8.198  0.00  0.00    +0.151 C 
BRANCH  10  11
ATOM     11  C   UNL     1      -5.050  -3.727  -7.830  0.00  0.00    -0.028 A 
ATOM     12  C   UNL     1      -5.675  -2.843  -6.938  0.00  0.00    +0.005 A 
ATOM     13  C   UNL     1      -5.803  -4.779  -8.375  0.00  0.00    +0.005 A 
ATOM     14  C   UNL     1      -7.027  -2.995  -6.620  0.00  0.00    +0.000 A 
ATOM     15  C   UNL     1      -7.152  -4.927  -8.053  0.00  0.00    +0.000 A 
ATOM     16  C   UNL     1      -7.764  -4.034  -7.178  0.00  0.00    +0.000 A 
ENDBRANCH  10  11
ENDBRANCH   1  10
TORSDOF 2
ENDMDL
MODEL 8
REMARK VINA RESULT:    -5.211      3.080      4.905
REMARK INTER + INTRA:          -5.900
REMARK INTER:                  -5.757
REMARK INTRA:                  -0.142
REMARK UNBOUND:                -0.079
REMARK  Name = 1550473
REMARK  2 active torsions:
REMARK  status: ('A' for Active; 'I' for Inactive)
REMARK    1  A    between atoms: N_1  and  C_4
REMARK    2  A    between atoms: C_4  and  C_5
REMARK                            x       y       z     vdW  Elec       q    Type
REMARK                         _______ _______ _______ _____ _____    ______ ____
ROOT
ATOM      1  N   UNL     1      -6.021  -4.094  -1.228  0.00  0.00    -0.354 N 
ATOM      2  N   UNL     1      -4.704  -5.490  -2.526  0.00  0.00    -0.372 N 
ATOM      3  N   UNL     1      -5.941  -3.856  -3.558  0.00  0.00    -0.372 N 
ATOM      4  C   UNL     1      -5.565  -4.469  -2.431  0.00  0.00    +0.166 C 
ATOM      5  H   UNL     1      -5.721  -4.619  -0.415  0.00  0.00    +0.163 HD
ATOM      6  H   UNL     1      -4.341  -5.793  -3.419  0.00  0.00    +0.159 HD
ATOM      7  H   UNL     1      -4.371  -5.984  -1.707  0.00  0.00    +0.159 HD
ATOM      8  H   UNL     1      -6.593  -3.083  -3.555  0.00  0.00    +0.159 HD
ATOM      9  H   UNL     1      -5.597  -4.153  -4.463  0.00  0.00    +0.159 HD
ENDROOT
BRANCH   1  10
ATOM     10  C   UNL     1      -6.919  -2.961  -1.011  0.00  0.00    +0.151 C 
BRANCH  10  11
ATOM     11  C   UNL     1      -6.301  -2.030  -0.004  0.00  0.00    -0.028 A 
ATOM     12  C   UNL     1      -7.040  -1.584   1.101  0.00  0.00    +0.005 A 
ATOM     13  C   UNL     1      -4.974  -1.595  -0.147  0.00  0.00    +0.005 A 
ATOM     14  C   UNL     1      -6.457  -0.744   2.052  0.00  0.00    +0.000 A 
ATOM     15  C   UNL     1      -4.396  -0.755   0.804  0.00  0.00    +0.000 A 
ATOM     16  C   UNL     1      -5.137  -0.332   1.905  0.00  0.00    +0.000 A 
ENDBRANCH  10  11
ENDBRANCH   1  10
TORSDOF 2
ENDMDL
MODEL 9
REMARK VINA RESULT:    -5.186      3.124      4.607
REMARK INTER + INTRA:          -5.872
REMARK INTER:                  -5.740
REMARK INTRA:                  -0.132
REMARK UNBOUND:                -0.079
REMARK  Name = 1550473
REMARK  2 active torsions:
REMARK  status: ('A' for Active; 'I' for Inactive)
REMARK    1  A    between atoms: N_1  and  C_4
REMARK    2  A    between atoms: C_4  and  C_5
REMARK                            x       y       z     vdW  Elec       q    Type
REMARK                         _______ _______ _______ _____ _____    ______ ____
ROOT
ATOM      1  N   UNL     1      -7.759  -3.960  -2.339  0.00  0.00    -0.354 N 
ATOM      2  N   UNL     1      -9.462  -3.922  -3.909  0.00  0.00    -0.372 N 
ATOM      3  N   UNL     1      -7.288  -4.022  -4.634  0.00  0.00    -0.372 N 
ATOM      4  C   UNL     1      -8.156  -3.968  -3.619  0.00  0.00    +0.166 C 
ATOM      5  H   UNL     1      -8.466  -3.887  -1.617  0.00  0.00    +0.163 HD
ATOM      6  H   UNL     1      -9.792  -3.930  -4.865  0.00  0.00    +0.159 HD
ATOM      7  H   UNL     1     -10.168  -3.895  -3.183  0.00  0.00    +0.159 HD
ATOM      8  H   UNL     1      -6.288  -4.053  -4.483  0.00  0.00    +0.159 HD
ATOM      9  H   UNL     1      -7.598  -4.020  -5.598  0.00  0.00    +0.159 HD
ENDROOT
BRANCH   1  10
ATOM     10  C   UNL     1      -6.364  -4.061  -1.916  0.00  0.00    +0.151 C 
BRANCH  10  11
ATOM     11  C   UNL     1      -6.046  -2.916  -0.995  0.00  0.00    -0.028 A 
ATOM     12  C   UNL     1      -4.857  -2.187  -1.150  0.00  0.00    +0.005 A 
ATOM     13  C   UNL     1      -6.931  -2.549   0.030  0.00  0.00    +0.005 A 
ATOM     14  C   UNL     1      -4.575  -1.104  -0.314  0.00  0.00    +0.000 A 
ATOM     15  C   UNL     1      -6.645  -1.468   0.863  0.00  0.00    +0.000 A 
ATOM     16  C   UNL     1      -5.468  -0.744   0.689  0.00  0.00    +0.000 A 
ENDBRANCH  10  11
ENDBRANCH   1  10
TORSDOF 2
ENDMDL
