MODEL 1
REMARK VINA RESULT:    -5.748      0.000      0.000
REMARK INTER + INTRA:          -6.523
REMARK INTER:                  -6.421
REMARK INTRA:                  -0.103
REMARK UNBOUND:                -0.103
REMARK  Name = 1550473
REMARK  2 active torsions:
REMARK  status: ('A' for Active; 'I' for Inactive)
REMARK    1  A    between atoms: N_1  and  C_4
REMARK    2  A    between atoms: C_4  and  C_5
REMARK                            x       y       z     vdW  Elec       q    Type
REMARK                         _______ _______ _______ _____ _____    ______ ____
ROOT
ATOM      1  N   UNL     1      -6.159  -3.454  -8.990  0.00  0.00    -0.354 N 
ATOM      2  N   UNL     1      -7.565  -3.549  -7.152  0.00  0.00    -0.372 N 
ATOM      3  N   UNL     1      -5.313  -3.860  -6.843  0.00  0.00    -0.372 N 
ATOM      4  C   UNL     1      -6.334  -3.621  -7.672  0.00  0.00    +0.166 C 
ATOM      5  H   UNL     1      -6.978  -3.306  -9.569  0.00  0.00    +0.163 HD
ATOM      6  H   UNL     1      -7.727  -3.668  -6.161  0.00  0.00    +0.159 HD
ATOM      7  H   UNL     1      -8.376  -3.355  -7.726  0.00  0.00    +0.159 HD
ATOM      8  H   UNL     1      -4.360  -3.932  -7.174  0.00  0.00    +0.159 HD
ATOM      9  H   UNL     1      -5.456  -3.993  -5.850  0.00  0.00    +0.159 HD
ENDROOT
BRANCH   1  10
ATOM     10  C   UNL     1      -4.855  -3.460  -9.649  0.00  0.00    +0.151 C 
BRANCH  10  11
ATOM     11  C   UNL     1      -5.037  -3.117 -11.102  0.00  0.00    -0.028 A 
ATOM     12  C   UNL     1      -4.604  -4.000 -12.102  0.00  0.00    +0.005 A 
ATOM     13  C   UNL     1      -5.647  -1.913 -11.485  0.00  0.00    +0.005 A 
ATOM     14  C   UNL     1      -4.800  -3.696 -13.451  0.00  0.00    +0.000 A 
ATOM     15  C   UNL     1      -5.840  -1.612 -12.834  0.00  0.00    +0.000 A 
ATOM     16  C   UNL     1      -5.419  -2.505 -13.816  0.00  0.00    +0.000 A 
ENDBRANCH  10  11
ENDBRANCH   1  10
TORSDOF 2
ENDMDL
MODEL 2
REMARK VINA RESULT:    -5.286      4.145      5.522
REMARK INTER + INTRA:          -6.007
REMARK INTER:                  -5.877
REMARK INTRA:                  -0.130
REMARK UNBOUND:                -0.103
REMARK  Name = 1550473
REMARK  2 active torsions:
REMARK  status: ('A' for Active; 'I' for Inactive)
REMARK    1  A    between atoms: N_1  and  C_4
REMARK    2  A    between atoms: C_4  and  C_5
REMARK                            x       y       z     vdW  Elec       q    Type
REMARK                         _______ _______ _______ _____ _____    ______ ____
ROOT
ATOM      1  N   UNL     1      -8.283  -3.472  -4.968  0.00  0.00    -0.354 N 
ATOM      2  N   UNL     1      -7.125  -2.241  -3.384  0.00  0.00    -0.372 N 
ATOM      3  N   UNL     1      -9.418  -2.277  -3.302  0.00  0.00    -0.372 N 
ATOM      4  C   UNL     1      -8.285  -2.671  -3.895  0.00  0.00    +0.166 C 
ATOM      5  H   UNL     1      -7.392  -3.710  -5.389  0.00  0.00    +0.163 HD
ATOM      6  H   UNL     1      -7.095  -1.639  -2.573  0.00  0.00    +0.159 HD
ATOM      7  H   UNL     1      -6.234  -2.518  -3.779  0.00  0.00    +0.159 HD
ATOM      8  H   UNL     1     -10.327  -2.561  -3.642  0.00  0.00    +0.159 HD
ATOM      9  H   UNL     1      -9.409  -1.664  -2.496  0.00  0.00    +0.159 HD
ENDROOT
BRANCH   1  10
ATOM     10  C   UNL     1      -9.489  -4.038  -5.569  0.00  0.00    +0.151 C 
BRANCH  10  11
ATOM     11  C   UNL     1      -9.271  -4.205  -7.047  0.00  0.00    -0.028 A 
ATOM     12  C   UNL     1      -9.971  -5.185  -7.765  0.00  0.00    +0.005 A 
ATOM     13  C   UNL     1      -8.368  -3.381  -7.737  0.00  0.00    +0.005 A 
ATOM     14  C   UNL     1      -9.791  -5.320  -9.143  0.00  0.00    +0.000 A 
ATOM     15  C   UNL     1      -8.190  -3.519  -9.114  0.00  0.00    +0.000 A 
ATOM     16  C   UNL     1      -8.904  -4.487  -9.817  0.00  0.00    +0.000 A 
ENDBRANCH  10  11
ENDBRANCH   1  10
TORSDOF 2
ENDMDL
MODEL 3
REMARK VINA RESULT:    -5.247      2.524      4.125
REMARK INTER + INTRA:          -5.964
REMARK INTER:                  -5.834
REMARK INTRA:                  -0.130
REMARK UNBOUND:                -0.103
REMARK  Name = 1550473
REMARK  2 active torsions:
REMARK  status: ('A' for Active; 'I' for Inactive)
REMARK    1  A    between atoms: N_1  and  C_4
REMARK    2  A    between atoms: C_4  and  C_5
REMARK                            x       y       z     vdW  Elec       q    Type
REMARK                         _______ _______ _______ _____ _____    ______ ____
ROOT
ATOM      1  N   UNL     1      -7.380  -3.297  -5.491  0.00  0.00    -0.354 N 
ATOM      2  N   UNL     1      -7.091  -2.360  -3.393  0.00  0.00    -0.372 N 
ATOM      3  N   UNL     1      -8.927  -1.761  -4.632  0.00  0.00    -0.372 N 
ATOM      4  C   UNL     1      -7.804  -2.477  -4.520  0.00  0.00    +0.166 C 
ATOM      5  H   UNL     1      -6.504  -3.790  -5.357  0.00  0.00    +0.163 HD
ATOM      6  H   UNL     1      -7.387  -1.751  -2.642  0.00  0.00    +0.159 HD
ATOM      7  H   UNL     1      -6.240  -2.888  -3.243  0.00  0.00    +0.159 HD
ATOM      8  H   UNL     1      -9.507  -1.800  -5.459  0.00  0.00    +0.159 HD
ATOM      9  H   UNL     1      -9.234  -1.138  -3.896  0.00  0.00    +0.159 HD
ENDROOT
BRANCH   1  10
ATOM     10  C   UNL     1      -8.111  -3.538  -6.734  0.00  0.00    +0.151 C 
BRANCH  10  11
ATOM     11  C   UNL     1      -7.155  -3.443  -7.892  0.00  0.00    -0.028 A 
ATOM     12  C   UNL     1      -7.574  -2.908  -9.118  0.00  0.00    +0.005 A 
ATOM     13  C   UNL     1      -5.828  -3.880  -7.766  0.00  0.00    +0.005 A 
ATOM     14  C   UNL     1      -6.679  -2.791 -10.185  0.00  0.00    +0.000 A 
ATOM     15  C   UNL     1      -4.937  -3.763  -8.833  0.00  0.00    +0.000 A 
ATOM     16  C   UNL     1      -5.362  -3.216 -10.041  0.00  0.00    +0.000 A 
ENDBRANCH  10  11
ENDBRANCH   1  10
TORSDOF 2
ENDMDL
MODEL 4
REMARK VINA RESULT:    -5.194      4.245      5.600
REMARK INTER + INTRA:          -5.904
REMARK INTER:                  -5.773
REMARK INTRA:                  -0.130
REMARK UNBOUND:                -0.103
REMARK  Name = 1550473
REMARK  2 active torsions:
REMARK  status: ('A' for Active; 'I' for Inactive)
REMARK    1  A    between atoms: N_1  and  C_4
REMARK    2  A    between atoms: C_4  and  C_5
REMARK                            x       y       z     vdW  Elec       q    Type
REMARK                         _______ _______ _______ _____ _____    ______ ____
ROOT
ATOM      1  N   UNL     1      -8.568  -3.116  -4.960  0.00  0.00    -0.354 N 
ATOM      2  N   UNL     1      -7.185  -2.174  -3.359  0.00  0.00    -0.372 N 
ATOM      3  N   UNL     1      -8.358  -4.074  -2.832  0.00  0.00    -0.372 N 
ATOM      4  C   UNL     1      -8.047  -3.129  -3.726  0.00  0.00    +0.166 C 
ATOM      5  H   UNL     1      -8.316  -2.355  -5.581  0.00  0.00    +0.163 HD
ATOM      6  H   UNL     1      -6.773  -2.160  -2.436  0.00  0.00    +0.159 HD
ATOM      7  H   UNL     1      -6.899  -1.441  -3.997  0.00  0.00    +0.159 HD
ATOM      8  H   UNL     1      -9.007  -4.820  -3.044  0.00  0.00    +0.159 HD
ATOM      9  H   UNL     1      -7.965  -4.071  -1.899  0.00  0.00    +0.159 HD
ENDROOT
BRANCH   1  10
ATOM     10  C   UNL     1      -9.475  -4.140  -5.476  0.00  0.00    +0.151 C 
BRANCH  10  11
ATOM     11  C   UNL     1      -9.290  -4.254  -6.964  0.00  0.00    -0.028 A 
ATOM     12  C   UNL     1      -8.397  -3.409  -7.638  0.00  0.00    +0.005 A 
ATOM     13  C   UNL     1     -10.002  -5.210  -7.706  0.00  0.00    +0.005 A 
ATOM     14  C   UNL     1      -8.203  -3.535  -9.016  0.00  0.00    +0.000 A 
ATOM     15  C   UNL     1      -9.806  -5.332  -9.081  0.00  0.00    +0.000 A 
ATOM     16  C   UNL     1      -8.905  -4.496  -9.735  0.00  0.00    +0.000 A 
ENDBRANCH  10  11
ENDBRANCH   1  10
TORSDOF 2
ENDMDL
MODEL 5
REMARK VINA RESULT:    -5.194      6.371      8.087
REMARK INTER + INTRA:          -5.904
REMARK INTER:                  -5.728
REMARK INTRA:                  -0.176
REMARK UNBOUND:                -0.103
REMARK  Name = 1550473
REMARK  2 active torsions:
REMARK  status: ('A' for Active; 'I' for Inactive)
REMARK    1  A    between atoms: N_1  and  C_4
REMARK    2  A    between atoms: C_4  and  C_5
REMARK                            x       y       z     vdW  Elec       q    Type
REMARK                         _______ _______ _______ _____ _____    ______ ____
ROOT
ATOM      1  N   UNL     1     -10.211  -1.370  -2.996  0.00  0.00    -0.354 N 
ATOM      2  N   UNL     1      -9.931  -1.855  -0.749  0.00  0.00    -0.372 N 
ATOM      3  N   UNL     1     -11.978  -2.226  -1.717  0.00  0.00    -0.372 N 
ATOM      4  C   UNL     1     -10.711  -1.815  -1.836  0.00  0.00    +0.166 C 
ATOM      5  H   UNL     1      -9.251  -1.044  -3.014  0.00  0.00    +0.163 HD
ATOM      6  H   UNL     1     -10.279  -2.189   0.140  0.00  0.00    +0.159 HD
ATOM      7  H   UNL     1      -8.959  -1.572  -0.780  0.00  0.00    +0.159 HD
ATOM      8  H   UNL     1     -12.620  -2.215  -2.498  0.00  0.00    +0.159 HD
ATOM      9  H   UNL     1     -12.348  -2.552  -0.833  0.00  0.00    +0.159 HD
ENDROOT
BRANCH   1  10
ATOM     10  C   UNL     1     -10.961  -1.336  -4.251  0.00  0.00    +0.151 C 
BRANCH  10  11
ATOM     11  C   UNL     1     -10.468  -2.438  -5.148  0.00  0.00    -0.028 A 
ATOM     12  C   UNL     1      -9.433  -2.200  -6.064  0.00  0.00    +0.005 A 
ATOM     13  C   UNL     1     -11.029  -3.723  -5.084  0.00  0.00    +0.005 A 
ATOM     14  C   UNL     1      -8.954  -3.231  -6.876  0.00  0.00    +0.000 A 
ATOM     15  C   UNL     1     -10.548  -4.749  -5.897  0.00  0.00    +0.000 A 
ATOM     16  C   UNL     1      -9.510  -4.503  -6.792  0.00  0.00    +0.000 A 
ENDBRANCH  10  11
ENDBRANCH   1  10
TORSDOF 2
ENDMDL
MODEL 6
REMARK VINA RESULT:    -5.138     10.468     11.560
REMARK INTER + INTRA:          -5.842
REMARK INTER:                  -5.715
REMARK INTRA:                  -0.127
REMARK UNBOUND:                -0.103
REMARK  Name = 1550473
REMARK  2 active torsions:
REMARK  status: ('A' for Active; 'I' for Inactive)
REMARK    1  A    between atoms: N_1  and  C_4
REMARK    2  A    between atoms: C_4  and  C_5
REMARK                            x       y       z     vdW  Elec       q    Type
REMARK                         _______ _______ _______ _____ _____    ______ ____
ROOT
ATOM      1  N   UNL     1     -10.603   7.037 -13.900  0.00  0.00    -0.354 N 
ATOM      2  N   UNL     1     -10.649   9.158 -12.970  0.00  0.00    -0.372 N 
ATOM      3  N   UNL     1      -9.263   7.575 -12.054  0.00  0.00    -0.372 N 
ATOM      4  C   UNL     1     -10.169   7.908 -12.979  0.00  0.00    +0.166 C 
ATOM      5  H   UNL     1     -11.314   7.343 -14.554  0.00  0.00    +0.163 HD
ATOM      6  H   UNL     1     -10.338   9.838 -12.290  0.00  0.00    +0.159 HD
ATOM      7  H   UNL     1     -11.325   9.474 -13.654  0.00  0.00    +0.159 HD
ATOM      8  H   UNL     1      -8.866   6.646 -12.003  0.00  0.00    +0.159 HD
ATOM      9  H   UNL     1      -8.948   8.239 -11.358  0.00  0.00    +0.159 HD
ENDROOT
BRANCH   1  10
ATOM     10  C   UNL     1     -10.105   5.669 -14.029  0.00  0.00    +0.151 C 
BRANCH  10  11
ATOM     11  C   UNL     1      -9.911   5.353 -15.487  0.00  0.00    -0.028 A 
ATOM     12  C   UNL     1     -10.742   5.931 -16.458  0.00  0.00    +0.005 A 
ATOM     13  C   UNL     1      -8.895   4.480 -15.904  0.00  0.00    +0.005 A 
ATOM     14  C   UNL     1     -10.543   5.661 -17.814  0.00  0.00    +0.000 A 
ATOM     15  C   UNL     1      -8.700   4.212 -17.259  0.00  0.00    +0.000 A 
ATOM     16  C   UNL     1      -9.523   4.805 -18.213  0.00  0.00    +0.000 A 
ENDBRANCH  10  11
ENDBRANCH   1  10
TORSDOF 2
ENDMDL
MODEL 7
REMARK VINA RESULT:    -5.104      5.949      7.725
REMARK INTER + INTRA:          -5.803
REMARK INTER:                  -5.677
REMARK INTRA:                  -0.126
REMARK UNBOUND:                -0.103
REMARK  Name = 1550473
REMARK  2 active torsions:
REMARK  status: ('A' for Active; 'I' for Inactive)
REMARK    1  A    between atoms: N_1  and  C_4
REMARK    2  A    between atoms: C_4  and  C_5
REMARK                            x       y       z     vdW  Elec       q    Type
REMARK                         _______ _______ _______ _____ _____    ______ ____
ROOT
ATOM      1  N   UNL     1      -9.299  -2.209  -2.394  0.00  0.00    -0.354 N 
ATOM      2  N   UNL     1      -9.916  -2.189  -0.162  0.00  0.00    -0.372 N 
ATOM      3  N   UNL     1     -11.554  -2.096  -1.766  0.00  0.00    -0.372 N 
ATOM      4  C   UNL     1     -10.255  -2.164  -1.456  0.00  0.00    +0.166 C 
ATOM      5  H   UNL     1      -8.331  -2.229  -2.094  0.00  0.00    +0.163 HD
ATOM      6  H   UNL     1     -10.615  -2.160   0.568  0.00  0.00    +0.159 HD
ATOM      7  H   UNL     1      -8.950  -2.255   0.135  0.00  0.00    +0.159 HD
ATOM      8  H   UNL     1     -11.875  -2.069  -2.724  0.00  0.00    +0.159 HD
ATOM      9  H   UNL     1     -12.268  -2.055  -1.049  0.00  0.00    +0.159 HD
ENDROOT
BRANCH   1  10
ATOM     10  C   UNL     1      -9.564  -2.242  -3.831  0.00  0.00    +0.151 C 
BRANCH  10  11
ATOM     11  C   UNL     1      -8.380  -2.843  -4.536  0.00  0.00    -0.028 A 
ATOM     12  C   UNL     1      -8.431  -3.115  -5.911  0.00  0.00    +0.005 A 
ATOM     13  C   UNL     1      -7.200  -3.137  -3.835  0.00  0.00    +0.005 A 
ATOM     14  C   UNL     1      -7.321  -3.645  -6.571  0.00  0.00    +0.000 A 
ATOM     15  C   UNL     1      -6.093  -3.667  -4.498  0.00  0.00    +0.000 A 
ATOM     16  C   UNL     1      -6.153  -3.919  -5.867  0.00  0.00    +0.000 A 
ENDBRANCH  10  11
ENDBRANCH   1  10
TORSDOF 2
ENDMDL
MODEL 8
REMARK VINA RESULT:    -5.079     23.740     25.025
REMARK INTER + INTRA:          -5.776
REMARK INTER:                  -5.639
REMARK INTRA:                  -0.137
REMARK UNBOUND:                -0.103
REMARK  Name = 1550473
REMARK  2 active torsions:
REMARK  status: ('A' for Active; 'I' for Inactive)
REMARK    1  A    between atoms: N_1  and  C_4
REMARK    2  A    between atoms: C_4  and  C_5
REMARK                            x       y       z     vdW  Elec       q    Type
REMARK                         _______ _______ _______ _____ _____    ______ ____
ROOT
ATOM      1  N   UNL     1      -0.183 -16.427  10.935  0.00  0.00    -0.354 N 
ATOM      2  N   UNL     1      -0.711 -14.841  12.538  0.00  0.00    -0.372 N 
ATOM      3  N   UNL     1       1.127 -16.177  12.862  0.00  0.00    -0.372 N 
ATOM      4  C   UNL     1       0.083 -15.827  12.103  0.00  0.00    +0.166 C 
ATOM      5  H   UNL     1      -1.006 -16.136  10.421  0.00  0.00    +0.163 HD
ATOM      6  H   UNL     1      -0.533 -14.367  13.414  0.00  0.00    +0.159 HD
ATOM      7  H   UNL     1      -1.506 -14.521  12.000  0.00  0.00    +0.159 HD
ATOM      8  H   UNL     1       1.760 -16.918  12.593  0.00  0.00    +0.159 HD
ATOM      9  H   UNL     1       1.314 -15.723  13.747  0.00  0.00    +0.159 HD
ENDROOT
BRANCH   1  10
ATOM     10  C   UNL     1       0.650 -17.474  10.345  0.00  0.00    +0.151 C 
BRANCH  10  11
ATOM     11  C   UNL     1       1.288 -16.946   9.090  0.00  0.00    -0.028 A 
ATOM     12  C   UNL     1       2.156 -15.845   9.142  0.00  0.00    +0.005 A 
ATOM     13  C   UNL     1       1.033 -17.545   7.847  0.00  0.00    +0.005 A 
ATOM     14  C   UNL     1       2.773 -15.373   7.981  0.00  0.00    +0.000 A 
ATOM     15  C   UNL     1       1.650 -17.070   6.690  0.00  0.00    +0.000 A 
ATOM     16  C   UNL     1       2.522 -15.985   6.758  0.00  0.00    +0.000 A 
ENDBRANCH  10  11
ENDBRANCH   1  10
TORSDOF 2
ENDMDL
MODEL 9
REMARK VINA RESULT:    -5.061      4.234      7.939
REMARK INTER + INTRA:          -5.756
REMARK INTER:                  -5.637
REMARK INTRA:                  -0.119
REMARK UNBOUND:                -0.103
REMARK  Name = 1550473
REMARK  2 active torsions:
REMARK  status: ('A' for Active; 'I' for Inactive)
REMARK    1  A    between atoms: N_1  and  C_4
REMARK    2  A    between atoms: C_4  and  C_5
REMARK                            x       y       z     vdW  Elec       q    Type
REMARK                         _______ _______ _______ _____ _____    ______ ____
ROOT
ATOM      1  N   UNL     1      -6.790  -3.501  -6.023  0.00  0.00    -0.354 N 
ATOM      2  N   UNL     1      -6.963  -3.296  -8.323  0.00  0.00    -0.372 N 
ATOM      3  N   UNL     1      -5.012  -4.104  -7.426  0.00  0.00    -0.372 N 
ATOM      4  C   UNL     1      -6.251  -3.636  -7.242  0.00  0.00    +0.166 C 
ATOM      5  H   UNL     1      -7.722  -3.112  -5.949  0.00  0.00    +0.163 HD
ATOM      6  H   UNL     1      -6.584  -3.390  -9.256  0.00  0.00    +0.159 HD
ATOM      7  H   UNL     1      -7.912  -2.951  -8.249  0.00  0.00    +0.159 HD
ATOM      8  H   UNL     1      -4.420  -4.373  -6.651  0.00  0.00    +0.159 HD
ATOM      9  H   UNL     1      -4.611  -4.194  -8.351  0.00  0.00    +0.159 HD
ENDROOT
BRANCH   1  10
ATOM     10  C   UNL     1      -6.118  -3.893  -4.785  0.00  0.00    +0.151 C 
BRANCH  10  11
ATOM     11  C   UNL     1      -7.115  -4.558  -3.875  0.00  0.00    -0.028 A 
ATOM     12  C   UNL     1      -7.651  -3.866  -2.779  0.00  0.00    +0.005 A 
ATOM     13  C   UNL     1      -7.531  -5.878  -4.108  0.00  0.00    +0.005 A 
ATOM     14  C   UNL     1      -8.598  -4.473  -1.952  0.00  0.00    +0.000 A 
ATOM     15  C   UNL     1      -8.477  -6.481  -3.279  0.00  0.00    +0.000 A 
ATOM     16  C   UNL     1      -9.012  -5.777  -2.202  0.00  0.00    +0.000 A 
ENDBRANCH  10  11
ENDBRANCH   1  10
TORSDOF 2
ENDMDL
