MODEL 1
REMARK VINA RESULT:    -5.292      0.000      0.000
REMARK INTER + INTRA:          -6.050
REMARK INTER:                  -5.911
REMARK INTRA:                  -0.139
REMARK UNBOUND:                -0.139
REMARK  Name = 1550473
REMARK  2 active torsions:
REMARK  status: ('A' for Active; 'I' for Inactive)
REMARK    1  A    between atoms: N_1  and  C_4
REMARK    2  A    between atoms: C_4  and  C_5
REMARK                            x       y       z     vdW  Elec       q    Type
REMARK                         _______ _______ _______ _____ _____    ______ ____
ROOT
ATOM      1  N   UNL     1       0.686  -4.398   3.820  0.00  0.00    -0.354 N 
ATOM      2  N   UNL     1       0.656  -2.108   4.166  0.00  0.00    -0.372 N 
ATOM      3  N   UNL     1       2.237  -2.997   2.760  0.00  0.00    -0.372 N 
ATOM      4  C   UNL     1       1.195  -3.183   3.578  0.00  0.00    +0.166 C 
ATOM      5  H   UNL     1      -0.085  -4.475   4.474  0.00  0.00    +0.163 HD
ATOM      6  H   UNL     1       1.017  -1.178   4.000  0.00  0.00    +0.159 HD
ATOM      7  H   UNL     1      -0.143  -2.183   4.783  0.00  0.00    +0.159 HD
ATOM      8  H   UNL     1       2.693  -3.768   2.290  0.00  0.00    +0.159 HD
ATOM      9  H   UNL     1       2.620  -2.075   2.591  0.00  0.00    +0.159 HD
ENDROOT
BRANCH   1  10
ATOM     10  C   UNL     1       1.165  -5.626   3.189  0.00  0.00    +0.151 C 
BRANCH  10  11
ATOM     11  C   UNL     1       1.273  -6.704   4.232  0.00  0.00    -0.028 A 
ATOM     12  C   UNL     1       1.137  -8.054   3.877  0.00  0.00    +0.005 A 
ATOM     13  C   UNL     1       1.519  -6.382   5.576  0.00  0.00    +0.005 A 
ATOM     14  C   UNL     1       1.268  -9.058   4.840  0.00  0.00    +0.000 A 
ATOM     15  C   UNL     1       1.647  -7.387   6.534  0.00  0.00    +0.000 A 
ATOM     16  C   UNL     1       1.524  -8.724   6.166  0.00  0.00    +0.000 A 
ENDBRANCH  10  11
ENDBRANCH   1  10
TORSDOF 2
ENDMDL
MODEL 2
REMARK VINA RESULT:    -4.967      0.978      1.982
REMARK INTER + INTRA:          -5.686
REMARK INTER:                  -5.565
REMARK INTRA:                  -0.121
REMARK UNBOUND:                -0.139
REMARK  Name = 1550473
REMARK  2 active torsions:
REMARK  status: ('A' for Active; 'I' for Inactive)
REMARK    1  A    between atoms: N_1  and  C_4
REMARK    2  A    between atoms: C_4  and  C_5
REMARK                            x       y       z     vdW  Elec       q    Type
REMARK                         _______ _______ _______ _____ _____    ______ ____
ROOT
ATOM      1  N   UNL     1       1.611  -4.807   3.712  0.00  0.00    -0.354 N 
ATOM      2  N   UNL     1       2.327  -2.876   2.653  0.00  0.00    -0.372 N 
ATOM      3  N   UNL     1       0.929  -2.695   4.464  0.00  0.00    -0.372 N 
ATOM      4  C   UNL     1       1.616  -3.471   3.618  0.00  0.00    +0.166 C 
ATOM      5  H   UNL     1       2.128  -5.340   3.022  0.00  0.00    +0.163 HD
ATOM      6  H   UNL     1       2.352  -1.869   2.560  0.00  0.00    +0.159 HD
ATOM      7  H   UNL     1       2.880  -3.409   1.993  0.00  0.00    +0.159 HD
ATOM      8  H   UNL     1       0.367  -3.082   5.210  0.00  0.00    +0.159 HD
ATOM      9  H   UNL     1       0.932  -1.686   4.379  0.00  0.00    +0.159 HD
ENDROOT
BRANCH   1  10
ATOM     10  C   UNL     1       0.913  -5.551   4.759  0.00  0.00    +0.151 C 
BRANCH  10  11
ATOM     11  C   UNL     1       1.135  -7.023   4.547  0.00  0.00    -0.028 A 
ATOM     12  C   UNL     1       0.854  -7.940   5.571  0.00  0.00    +0.005 A 
ATOM     13  C   UNL     1       1.620  -7.508   3.323  0.00  0.00    +0.005 A 
ATOM     14  C   UNL     1       1.032  -9.310   5.365  0.00  0.00    +0.000 A 
ATOM     15  C   UNL     1       1.797  -8.877   3.121  0.00  0.00    +0.000 A 
ATOM     16  C   UNL     1       1.500  -9.777   4.141  0.00  0.00    +0.000 A 
ENDBRANCH  10  11
ENDBRANCH   1  10
TORSDOF 2
ENDMDL
MODEL 3
REMARK VINA RESULT:    -4.944      2.446      4.668
REMARK INTER + INTRA:          -5.661
REMARK INTER:                  -5.524
REMARK INTRA:                  -0.137
REMARK UNBOUND:                -0.139
REMARK  Name = 1550473
REMARK  2 active torsions:
REMARK  status: ('A' for Active; 'I' for Inactive)
REMARK    1  A    between atoms: N_1  and  C_4
REMARK    2  A    between atoms: C_4  and  C_5
REMARK                            x       y       z     vdW  Elec       q    Type
REMARK                         _______ _______ _______ _____ _____    ______ ____
ROOT
ATOM      1  N   UNL     1       0.467  -6.471   3.897  0.00  0.00    -0.354 N 
ATOM      2  N   UNL     1       0.713  -8.725   4.372  0.00  0.00    -0.372 N 
ATOM      3  N   UNL     1       1.992  -7.797   2.709  0.00  0.00    -0.372 N 
ATOM      4  C   UNL     1       1.057  -7.649   3.654  0.00  0.00    +0.166 C 
ATOM      5  H   UNL     1      -0.255  -6.432   4.606  0.00  0.00    +0.163 HD
ATOM      6  H   UNL     1       1.143  -9.626   4.214  0.00  0.00    +0.159 HD
ATOM      7  H   UNL     1       0.023  -8.673   5.112  0.00  0.00    +0.159 HD
ATOM      8  H   UNL     1       2.292  -7.025   2.128  0.00  0.00    +0.159 HD
ATOM      9  H   UNL     1       2.426  -8.693   2.528  0.00  0.00    +0.159 HD
ENDROOT
BRANCH   1  10
ATOM     10  C   UNL     1       0.809  -5.228   3.208  0.00  0.00    +0.151 C 
BRANCH  10  11
ATOM     11  C   UNL     1       1.087  -4.161   4.230  0.00  0.00    -0.028 A 
ATOM     12  C   UNL     1       0.724  -2.828   3.984  0.00  0.00    +0.005 A 
ATOM     13  C   UNL     1       1.706  -4.476   5.449  0.00  0.00    +0.005 A 
ATOM     14  C   UNL     1       0.955  -1.841   4.945  0.00  0.00    +0.000 A 
ATOM     15  C   UNL     1       1.936  -3.487   6.406  0.00  0.00    +0.000 A 
ATOM     16  C   UNL     1       1.557  -2.171   6.154  0.00  0.00    +0.000 A 
ENDBRANCH  10  11
ENDBRANCH   1  10
TORSDOF 2
ENDMDL
MODEL 4
REMARK VINA RESULT:    -4.931      3.589      5.209
REMARK INTER + INTRA:          -5.646
REMARK INTER:                  -5.515
REMARK INTRA:                  -0.131
REMARK UNBOUND:                -0.139
REMARK  Name = 1550473
REMARK  2 active torsions:
REMARK  status: ('A' for Active; 'I' for Inactive)
REMARK    1  A    between atoms: N_1  and  C_4
REMARK    2  A    between atoms: C_4  and  C_5
REMARK                            x       y       z     vdW  Elec       q    Type
REMARK                         _______ _______ _______ _____ _____    ______ ____
ROOT
ATOM      1  N   UNL     1       0.474  -9.601   4.655  0.00  0.00    -0.354 N 
ATOM      2  N   UNL     1      -0.156 -11.410   3.354  0.00  0.00    -0.372 N 
ATOM      3  N   UNL     1       2.068 -11.109   3.832  0.00  0.00    -0.372 N 
ATOM      4  C   UNL     1       0.802 -10.695   3.956  0.00  0.00    +0.166 C 
ATOM      5  H   UNL     1      -0.500  -9.323   4.685  0.00  0.00    +0.163 HD
ATOM      6  H   UNL     1       0.060 -12.243   2.823  0.00  0.00    +0.159 HD
ATOM      7  H   UNL     1      -1.134 -11.156   3.425  0.00  0.00    +0.159 HD
ATOM      8  H   UNL     1       2.838 -10.610   4.257  0.00  0.00    +0.159 HD
ATOM      9  H   UNL     1       2.306 -11.933   3.295  0.00  0.00    +0.159 HD
ENDROOT
BRANCH   1  10
ATOM     10  C   UNL     1       1.436  -8.783   5.392  0.00  0.00    +0.151 C 
BRANCH  10  11
ATOM     11  C   UNL     1       1.348  -7.363   4.905  0.00  0.00    -0.028 A 
ATOM     12  C   UNL     1       1.010  -7.087   3.571  0.00  0.00    +0.005 A 
ATOM     13  C   UNL     1       1.595  -6.288   5.772  0.00  0.00    +0.005 A 
ATOM     14  C   UNL     1       0.899  -5.768   3.126  0.00  0.00    +0.000 A 
ATOM     15  C   UNL     1       1.484  -4.972   5.323  0.00  0.00    +0.000 A 
ATOM     16  C   UNL     1       1.134  -4.713   4.001  0.00  0.00    +0.000 A 
ENDBRANCH  10  11
ENDBRANCH   1  10
TORSDOF 2
ENDMDL
MODEL 5
REMARK VINA RESULT:    -4.862      1.698      2.336
REMARK INTER + INTRA:          -5.570
REMARK INTER:                  -5.436
REMARK INTRA:                  -0.134
REMARK UNBOUND:                -0.139
REMARK  Name = 1550473
REMARK  2 active torsions:
REMARK  status: ('A' for Active; 'I' for Inactive)
REMARK    1  A    between atoms: N_1  and  C_4
REMARK    2  A    between atoms: C_4  and  C_5
REMARK                            x       y       z     vdW  Elec       q    Type
REMARK                         _______ _______ _______ _____ _____    ______ ____
ROOT
ATOM      1  N   UNL     1       1.002  -3.566   4.833  0.00  0.00    -0.354 N 
ATOM      2  N   UNL     1       1.057  -1.354   4.147  0.00  0.00    -0.372 N 
ATOM      3  N   UNL     1       2.229  -2.918   2.944  0.00  0.00    -0.372 N 
ATOM      4  C   UNL     1       1.431  -2.628   3.977  0.00  0.00    +0.166 C 
ATOM      5  H   UNL     1       0.424  -3.277   5.613  0.00  0.00    +0.163 HD
ATOM      6  H   UNL     1       1.362  -0.626   3.516  0.00  0.00    +0.159 HD
ATOM      7  H   UNL     1       0.442  -1.076   4.901  0.00  0.00    +0.159 HD
ATOM      8  H   UNL     1       2.552  -3.859   2.764  0.00  0.00    +0.159 HD
ATOM      9  H   UNL     1       2.555  -2.201   2.308  0.00  0.00    +0.159 HD
ENDROOT
BRANCH   1  10
ATOM     10  C   UNL     1       1.308  -4.990   4.706  0.00  0.00    +0.151 C 
BRANCH  10  11
ATOM     11  C   UNL     1       1.940  -5.473   5.982  0.00  0.00    -0.028 A 
ATOM     12  C   UNL     1       1.807  -6.811   6.381  0.00  0.00    +0.005 A 
ATOM     13  C   UNL     1       2.679  -4.598   6.794  0.00  0.00    +0.005 A 
ATOM     14  C   UNL     1       2.419  -7.266   7.551  0.00  0.00    +0.000 A 
ATOM     15  C   UNL     1       3.288  -5.057   7.961  0.00  0.00    +0.000 A 
ATOM     16  C   UNL     1       3.160  -6.392   8.338  0.00  0.00    +0.000 A 
ENDBRANCH  10  11
ENDBRANCH   1  10
TORSDOF 2
ENDMDL
MODEL 6
REMARK VINA RESULT:    -4.845      2.235      3.598
REMARK INTER + INTRA:          -5.551
REMARK INTER:                  -5.427
REMARK INTRA:                  -0.123
REMARK UNBOUND:                -0.139
REMARK  Name = 1550473
REMARK  2 active torsions:
REMARK  status: ('A' for Active; 'I' for Inactive)
REMARK    1  A    between atoms: N_1  and  C_4
REMARK    2  A    between atoms: C_4  and  C_5
REMARK                            x       y       z     vdW  Elec       q    Type
REMARK                         _______ _______ _______ _____ _____    ______ ____
ROOT
ATOM      1  N   UNL     1       0.653  -6.812   4.653  0.00  0.00    -0.354 N 
ATOM      2  N   UNL     1       0.251  -5.835   2.592  0.00  0.00    -0.372 N 
ATOM      3  N   UNL     1       1.860  -7.463   2.753  0.00  0.00    -0.372 N 
ATOM      4  C   UNL     1       0.926  -6.711   3.345  0.00  0.00    +0.166 C 
ATOM      5  H   UNL     1      -0.045  -6.193   5.048  0.00  0.00    +0.163 HD
ATOM      6  H   UNL     1       0.433  -5.739   1.602  0.00  0.00    +0.159 HD
ATOM      7  H   UNL     1      -0.479  -5.249   2.981  0.00  0.00    +0.159 HD
ATOM      8  H   UNL     1       2.409  -8.139   3.266  0.00  0.00    +0.159 HD
ATOM      9  H   UNL     1       2.065  -7.373   1.765  0.00  0.00    +0.159 HD
ENDROOT
BRANCH   1  10
ATOM     10  C   UNL     1       1.293  -7.773   5.550  0.00  0.00    +0.151 C 
BRANCH  10  11
ATOM     11  C   UNL     1       2.031  -7.024   6.626  0.00  0.00    -0.028 A 
ATOM     12  C   UNL     1       2.518  -7.697   7.756  0.00  0.00    +0.005 A 
ATOM     13  C   UNL     1       2.251  -5.642   6.518  0.00  0.00    +0.005 A 
ATOM     14  C   UNL     1       3.229  -7.007   8.741  0.00  0.00    +0.000 A 
ATOM     15  C   UNL     1       2.960  -4.957   7.504  0.00  0.00    +0.000 A 
ATOM     16  C   UNL     1       3.451  -5.640   8.614  0.00  0.00    +0.000 A 
ENDBRANCH  10  11
ENDBRANCH   1  10
TORSDOF 2
ENDMDL
MODEL 7
REMARK VINA RESULT:    -4.801     39.635     40.471
REMARK INTER + INTRA:          -5.501
REMARK INTER:                  -5.387
REMARK INTRA:                  -0.114
REMARK UNBOUND:                -0.139
REMARK  Name = 1550473
REMARK  2 active torsions:
REMARK  status: ('A' for Active; 'I' for Inactive)
REMARK    1  A    between atoms: N_1  and  C_4
REMARK    2  A    between atoms: C_4  and  C_5
REMARK                            x       y       z     vdW  Elec       q    Type
REMARK                         _______ _______ _______ _____ _____    ______ ____
ROOT
ATOM      1  N   UNL     1     -29.944  -9.493 -19.239  0.00  0.00    -0.354 N 
ATOM      2  N   UNL     1     -29.151  -7.742 -17.947  0.00  0.00    -0.372 N 
ATOM      3  N   UNL     1     -31.415  -7.956 -18.256  0.00  0.00    -0.372 N 
ATOM      4  C   UNL     1     -30.178  -8.408 -18.489  0.00  0.00    +0.166 C 
ATOM      5  H   UNL     1     -28.982  -9.767 -19.403  0.00  0.00    +0.163 HD
ATOM      6  H   UNL     1     -29.297  -6.922 -17.374  0.00  0.00    +0.159 HD
ATOM      7  H   UNL     1     -28.193  -8.044 -18.075  0.00  0.00    +0.159 HD
ATOM      8  H   UNL     1     -32.232  -8.410 -18.641  0.00  0.00    +0.159 HD
ATOM      9  H   UNL     1     -31.580  -7.130 -17.695  0.00  0.00    +0.159 HD
ENDROOT
BRANCH   1  10
ATOM     10  C   UNL     1     -30.995 -10.320 -19.830  0.00  0.00    +0.151 C 
BRANCH  10  11
ATOM     11  C   UNL     1     -30.404 -11.143 -20.942  0.00  0.00    -0.028 A 
ATOM     12  C   UNL     1     -30.668 -12.518 -21.027  0.00  0.00    +0.005 A 
ATOM     13  C   UNL     1     -29.585 -10.553 -21.916  0.00  0.00    +0.005 A 
ATOM     14  C   UNL     1     -30.145 -13.278 -22.076  0.00  0.00    +0.000 A 
ATOM     15  C   UNL     1     -29.063 -11.315 -22.962  0.00  0.00    +0.000 A 
ATOM     16  C   UNL     1     -29.345 -12.677 -23.043  0.00  0.00    +0.000 A 
ENDBRANCH  10  11
ENDBRANCH   1  10
TORSDOF 2
ENDMDL
MODEL 8
REMARK VINA RESULT:    -4.784     16.777     17.912
REMARK INTER + INTRA:          -5.483
REMARK INTER:                  -5.319
REMARK INTRA:                  -0.164
REMARK UNBOUND:                -0.139
REMARK  Name = 1550473
REMARK  2 active torsions:
REMARK  status: ('A' for Active; 'I' for Inactive)
REMARK    1  A    between atoms: N_1  and  C_4
REMARK    2  A    between atoms: C_4  and  C_5
REMARK                            x       y       z     vdW  Elec       q    Type
REMARK                         _______ _______ _______ _____ _____    ______ ____
ROOT
ATOM      1  N   UNL     1       8.960  -1.698 -12.234  0.00  0.00    -0.354 N 
ATOM      2  N   UNL     1      10.475  -0.960 -13.824  0.00  0.00    -0.372 N 
ATOM      3  N   UNL     1      11.230  -1.441 -11.711  0.00  0.00    -0.372 N 
ATOM      4  C   UNL     1      10.214  -1.371 -12.577  0.00  0.00    +0.166 C 
ATOM      5  H   UNL     1       8.229  -1.594 -12.928  0.00  0.00    +0.163 HD
ATOM      6  H   UNL     1      11.411  -0.710 -14.112  0.00  0.00    +0.159 HD
ATOM      7  H   UNL     1       9.750  -0.902 -14.528  0.00  0.00    +0.159 HD
ATOM      8  H   UNL     1      11.098  -1.738 -10.753  0.00  0.00    +0.159 HD
ATOM      9  H   UNL     1      12.172  -1.184 -11.978  0.00  0.00    +0.159 HD
ENDROOT
BRANCH   1  10
ATOM     10  C   UNL     1       8.579  -2.208 -10.918  0.00  0.00    +0.151 C 
BRANCH  10  11
ATOM     11  C   UNL     1       7.774  -1.160 -10.200  0.00  0.00    -0.028 A 
ATOM     12  C   UNL     1       8.269  -0.556  -9.036  0.00  0.00    +0.005 A 
ATOM     13  C   UNL     1       6.517  -0.764 -10.682  0.00  0.00    +0.005 A 
ATOM     14  C   UNL     1       7.535   0.439  -8.385  0.00  0.00    +0.000 A 
ATOM     15  C   UNL     1       5.786   0.229 -10.029  0.00  0.00    +0.000 A 
ATOM     16  C   UNL     1       6.297   0.831  -8.882  0.00  0.00    +0.000 A 
ENDBRANCH  10  11
ENDBRANCH   1  10
TORSDOF 2
ENDMDL
MODEL 9
REMARK VINA RESULT:    -4.726      3.444      5.326
REMARK INTER + INTRA:          -5.417
REMARK INTER:                  -5.277
REMARK INTRA:                  -0.140
REMARK UNBOUND:                -0.139
REMARK  Name = 1550473
REMARK  2 active torsions:
REMARK  status: ('A' for Active; 'I' for Inactive)
REMARK    1  A    between atoms: N_1  and  C_4
REMARK    2  A    between atoms: C_4  and  C_5
REMARK                            x       y       z     vdW  Elec       q    Type
REMARK                         _______ _______ _______ _____ _____    ______ ____
ROOT
ATOM      1  N   UNL     1       0.490  -9.293   4.568  0.00  0.00    -0.354 N 
ATOM      2  N   UNL     1       0.093 -11.182   3.287  0.00  0.00    -0.372 N 
ATOM      3  N   UNL     1       2.128 -10.951   4.322  0.00  0.00    -0.372 N 
ATOM      4  C   UNL     1       0.909 -10.463   4.068  0.00  0.00    +0.166 C 
ATOM      5  H   UNL     1      -0.435  -8.965   4.313  0.00  0.00    +0.163 HD
ATOM      6  H   UNL     1       0.381 -12.070   2.898  0.00  0.00    +0.159 HD
ATOM      7  H   UNL     1      -0.847 -10.873   3.071  0.00  0.00    +0.159 HD
ATOM      8  H   UNL     1       2.794 -10.454   4.899  0.00  0.00    +0.159 HD
ATOM      9  H   UNL     1       2.438 -11.832   3.932  0.00  0.00    +0.159 HD
ENDROOT
BRANCH   1  10
ATOM     10  C   UNL     1       1.280  -8.460   5.472  0.00  0.00    +0.151 C 
BRANCH  10  11
ATOM     11  C   UNL     1       1.257  -7.040   4.978  0.00  0.00    -0.028 A 
ATOM     12  C   UNL     1       1.608  -5.984   5.831  0.00  0.00    +0.005 A 
ATOM     13  C   UNL     1       0.892  -6.745   3.655  0.00  0.00    +0.005 A 
ATOM     14  C   UNL     1       1.616  -4.667   5.364  0.00  0.00    +0.000 A 
ATOM     15  C   UNL     1       0.900  -5.429   3.193  0.00  0.00    +0.000 A 
ATOM     16  C   UNL     1       1.265  -4.391   4.046  0.00  0.00    +0.000 A 
ENDBRANCH  10  11
ENDBRANCH   1  10
TORSDOF 2
ENDMDL
