MODEL 1
REMARK VINA RESULT:    -6.420      0.000      0.000
REMARK INTER + INTRA:          -7.294
REMARK INTER:                  -7.171
REMARK INTRA:                  -0.123
REMARK UNBOUND:                -0.123
REMARK  Name = 1550473
REMARK  2 active torsions:
REMARK  status: ('A' for Active; 'I' for Inactive)
REMARK    1  A    between atoms: N_1  and  C_4
REMARK    2  A    between atoms: C_4  and  C_5
REMARK                            x       y       z     vdW  Elec       q    Type
REMARK                         _______ _______ _______ _____ _____    ______ ____
ROOT
ATOM      1  N   UNL     1      21.260  -5.175   2.405  0.00  0.00    -0.354 N 
ATOM      2  N   UNL     1      19.265  -6.262   1.957  0.00  0.00    -0.372 N 
ATOM      3  N   UNL     1      20.220  -6.507   4.029  0.00  0.00    -0.372 N 
ATOM      4  C   UNL     1      20.262  -5.975   2.803  0.00  0.00    +0.166 C 
ATOM      5  H   UNL     1      21.250  -4.829   1.453  0.00  0.00    +0.163 HD
ATOM      6  H   UNL     1      18.497  -6.860   2.229  0.00  0.00    +0.159 HD
ATOM      7  H   UNL     1      19.233  -5.878   1.020  0.00  0.00    +0.159 HD
ATOM      8  H   UNL     1      20.944  -6.334   4.713  0.00  0.00    +0.159 HD
ATOM      9  H   UNL     1      19.465  -7.117   4.317  0.00  0.00    +0.159 HD
ENDROOT
BRANCH   1  10
ATOM     10  C   UNL     1      22.365  -4.757   3.266  0.00  0.00    +0.151 C 
BRANCH  10  11
ATOM     11  C   UNL     1      23.264  -3.830   2.497  0.00  0.00    -0.028 A 
ATOM     12  C   UNL     1      24.406  -3.282   3.100  0.00  0.00    +0.005 A 
ATOM     13  C   UNL     1      22.982  -3.498   1.162  0.00  0.00    +0.005 A 
ATOM     14  C   UNL     1      25.258  -2.444   2.376  0.00  0.00    +0.000 A 
ATOM     15  C   UNL     1      23.835  -2.661   0.443  0.00  0.00    +0.000 A 
ATOM     16  C   UNL     1      24.973  -2.135   1.050  0.00  0.00    +0.000 A 
ENDBRANCH  10  11
ENDBRANCH   1  10
TORSDOF 2
ENDMDL
MODEL 2
REMARK VINA RESULT:    -6.036     27.777     29.846
REMARK INTER + INTRA:          -6.865
REMARK INTER:                  -6.750
REMARK INTRA:                  -0.115
REMARK UNBOUND:                -0.123
REMARK  Name = 1550473
REMARK  2 active torsions:
REMARK  status: ('A' for Active; 'I' for Inactive)
REMARK    1  A    between atoms: N_1  and  C_4
REMARK    2  A    between atoms: C_4  and  C_5
REMARK                            x       y       z     vdW  Elec       q    Type
REMARK                         _______ _______ _______ _____ _____    ______ ____
ROOT
ATOM      1  N   UNL     1      -4.711  -6.655  -7.735  0.00  0.00    -0.354 N 
ATOM      2  N   UNL     1      -3.773  -6.228  -5.661  0.00  0.00    -0.372 N 
ATOM      3  N   UNL     1      -2.457  -7.134  -7.309  0.00  0.00    -0.372 N 
ATOM      4  C   UNL     1      -3.651  -6.676  -6.917  0.00  0.00    +0.166 C 
ATOM      5  H   UNL     1      -5.596  -6.323  -7.368  0.00  0.00    +0.163 HD
ATOM      6  H   UNL     1      -2.990  -6.228  -5.022  0.00  0.00    +0.159 HD
ATOM      7  H   UNL     1      -4.647  -5.854  -5.311  0.00  0.00    +0.159 HD
ATOM      8  H   UNL     1      -2.301  -7.492  -8.241  0.00  0.00    +0.159 HD
ATOM      9  H   UNL     1      -1.664  -7.153  -6.679  0.00  0.00    +0.159 HD
ENDROOT
BRANCH   1  10
ATOM     10  C   UNL     1      -4.671  -7.070  -9.136  0.00  0.00    +0.151 C 
BRANCH  10  11
ATOM     11  C   UNL     1      -4.974  -8.541  -9.221  0.00  0.00    -0.028 A 
ATOM     12  C   UNL     1      -4.316  -9.350 -10.159  0.00  0.00    +0.005 A 
ATOM     13  C   UNL     1      -5.914  -9.132  -8.363  0.00  0.00    +0.005 A 
ATOM     14  C   UNL     1      -4.576 -10.721 -10.218  0.00  0.00    +0.000 A 
ATOM     15  C   UNL     1      -6.171 -10.501  -8.426  0.00  0.00    +0.000 A 
ATOM     16  C   UNL     1      -5.500 -11.296  -9.352  0.00  0.00    +0.000 A 
ENDBRANCH  10  11
ENDBRANCH   1  10
TORSDOF 2
ENDMDL
MODEL 3
REMARK VINA RESULT:    -5.672     28.185     29.953
REMARK INTER + INTRA:          -6.458
REMARK INTER:                  -6.331
REMARK INTRA:                  -0.127
REMARK UNBOUND:                -0.123
REMARK  Name = 1550473
REMARK  2 active torsions:
REMARK  status: ('A' for Active; 'I' for Inactive)
REMARK    1  A    between atoms: N_1  and  C_4
REMARK    2  A    between atoms: C_4  and  C_5
REMARK                            x       y       z     vdW  Elec       q    Type
REMARK                         _______ _______ _______ _____ _____    ______ ____
ROOT
ATOM      1  N   UNL     1      -4.141  -8.208  -7.447  0.00  0.00    -0.354 N 
ATOM      2  N   UNL     1      -2.971  -6.430  -6.535  0.00  0.00    -0.372 N 
ATOM      3  N   UNL     1      -5.197  -6.161  -7.019  0.00  0.00    -0.372 N 
ATOM      4  C   UNL     1      -4.113  -6.943  -7.007  0.00  0.00    +0.166 C 
ATOM      5  H   UNL     1      -3.278  -8.740  -7.439  0.00  0.00    +0.163 HD
ATOM      6  H   UNL     1      -2.920  -5.480  -6.193  0.00  0.00    +0.159 HD
ATOM      7  H   UNL     1      -2.120  -6.978  -6.486  0.00  0.00    +0.159 HD
ATOM      8  H   UNL     1      -6.089  -6.486  -7.368  0.00  0.00    +0.159 HD
ATOM      9  H   UNL     1      -5.164  -5.203  -6.692  0.00  0.00    +0.159 HD
ENDROOT
BRANCH   1  10
ATOM     10  C   UNL     1      -5.346  -8.880  -7.930  0.00  0.00    +0.151 C 
BRANCH  10  11
ATOM     11  C   UNL     1      -4.966  -9.858  -9.007  0.00  0.00    -0.028 A 
ATOM     12  C   UNL     1      -5.585 -11.115  -9.078  0.00  0.00    +0.005 A 
ATOM     13  C   UNL     1      -3.990  -9.533  -9.962  0.00  0.00    +0.005 A 
ATOM     14  C   UNL     1      -5.253 -12.012 -10.096  0.00  0.00    +0.000 A 
ATOM     15  C   UNL     1      -3.661 -10.432 -10.976  0.00  0.00    +0.000 A 
ATOM     16  C   UNL     1      -4.294 -11.671 -11.044  0.00  0.00    +0.000 A 
ENDBRANCH  10  11
ENDBRANCH   1  10
TORSDOF 2
ENDMDL
MODEL 4
REMARK VINA RESULT:    -5.609     30.153     30.853
REMARK INTER + INTRA:          -6.388
REMARK INTER:                  -6.257
REMARK INTRA:                  -0.131
REMARK UNBOUND:                -0.123
REMARK  Name = 1550473
REMARK  2 active torsions:
REMARK  status: ('A' for Active; 'I' for Inactive)
REMARK    1  A    between atoms: N_1  and  C_4
REMARK    2  A    between atoms: C_4  and  C_5
REMARK                            x       y       z     vdW  Elec       q    Type
REMARK                         _______ _______ _______ _____ _____    ______ ____
ROOT
ATOM      1  N   UNL     1      -5.825  -8.024  -9.869  0.00  0.00    -0.354 N 
ATOM      2  N   UNL     1      -5.292  -5.872 -10.538  0.00  0.00    -0.372 N 
ATOM      3  N   UNL     1      -4.713  -6.552  -8.424  0.00  0.00    -0.372 N 
ATOM      4  C   UNL     1      -5.279  -6.830  -9.603  0.00  0.00    +0.166 C 
ATOM      5  H   UNL     1      -6.266  -8.162 -10.771  0.00  0.00    +0.163 HD
ATOM      6  H   UNL     1      -4.884  -4.962 -10.367  0.00  0.00    +0.159 HD
ATOM      7  H   UNL     1      -5.692  -6.028 -11.455  0.00  0.00    +0.159 HD
ATOM      8  H   UNL     1      -4.676  -7.230  -7.675  0.00  0.00    +0.159 HD
ATOM      9  H   UNL     1      -4.310  -5.644  -8.231  0.00  0.00    +0.159 HD
ENDROOT
BRANCH   1  10
ATOM     10  C   UNL     1      -5.816  -9.153  -8.939  0.00  0.00    +0.151 C 
BRANCH  10  11
ATOM     11  C   UNL     1      -5.201 -10.344  -9.620  0.00  0.00    -0.028 A 
ATOM     12  C   UNL     1      -4.169 -10.176 -10.554  0.00  0.00    +0.005 A 
ATOM     13  C   UNL     1      -5.641 -11.645  -9.329  0.00  0.00    +0.005 A 
ATOM     14  C   UNL     1      -3.576 -11.285 -11.164  0.00  0.00    +0.000 A 
ATOM     15  C   UNL     1      -5.048 -12.749  -9.941  0.00  0.00    +0.000 A 
ATOM     16  C   UNL     1      -4.014 -12.569 -10.856  0.00  0.00    +0.000 A 
ENDBRANCH  10  11
ENDBRANCH   1  10
TORSDOF 2
ENDMDL
MODEL 5
REMARK VINA RESULT:    -5.274     32.263     33.149
REMARK INTER + INTRA:          -6.013
REMARK INTER:                  -5.833
REMARK INTRA:                  -0.180
REMARK UNBOUND:                -0.123
REMARK  Name = 1550473
REMARK  2 active torsions:
REMARK  status: ('A' for Active; 'I' for Inactive)
REMARK    1  A    between atoms: N_1  and  C_4
REMARK    2  A    between atoms: C_4  and  C_5
REMARK                            x       y       z     vdW  Elec       q    Type
REMARK                         _______ _______ _______ _____ _____    ______ ____
ROOT
ATOM      1  N   UNL     1      -8.766 -14.759  -2.354  0.00  0.00    -0.354 N 
ATOM      2  N   UNL     1      -8.062 -13.066  -0.939  0.00  0.00    -0.372 N 
ATOM      3  N   UNL     1      -7.311 -13.082  -3.107  0.00  0.00    -0.372 N 
ATOM      4  C   UNL     1      -8.049 -13.646  -2.145  0.00  0.00    +0.166 C 
ATOM      5  H   UNL     1      -9.281 -15.153  -1.576  0.00  0.00    +0.163 HD
ATOM      6  H   UNL     1      -7.535 -12.224  -0.752  0.00  0.00    +0.159 HD
ATOM      7  H   UNL     1      -8.615 -13.437  -0.175  0.00  0.00    +0.159 HD
ATOM      8  H   UNL     1      -7.254 -13.475  -4.037  0.00  0.00    +0.159 HD
ATOM      9  H   UNL     1      -6.767 -12.246  -2.936  0.00  0.00    +0.159 HD
ENDROOT
BRANCH   1  10
ATOM     10  C   UNL     1      -8.862 -15.438  -3.645  0.00  0.00    +0.151 C 
BRANCH  10  11
ATOM     11  C   UNL     1      -7.999 -16.669  -3.618  0.00  0.00    -0.028 A 
ATOM     12  C   UNL     1      -6.818 -16.726  -4.372  0.00  0.00    +0.005 A 
ATOM     13  C   UNL     1      -8.353 -17.779  -2.836  0.00  0.00    +0.005 A 
ATOM     14  C   UNL     1      -6.000 -17.858  -4.324  0.00  0.00    +0.000 A 
ATOM     15  C   UNL     1      -7.534 -18.907  -2.791  0.00  0.00    +0.000 A 
ATOM     16  C   UNL     1      -6.356 -18.945  -3.534  0.00  0.00    +0.000 A 
ENDBRANCH  10  11
ENDBRANCH   1  10
TORSDOF 2
ENDMDL
MODEL 6
REMARK VINA RESULT:    -5.258      3.425      4.782
REMARK INTER + INTRA:          -5.995
REMARK INTER:                  -5.873
REMARK INTRA:                  -0.122
REMARK UNBOUND:                -0.123
REMARK  Name = 1550473
REMARK  2 active torsions:
REMARK  status: ('A' for Active; 'I' for Inactive)
REMARK    1  A    between atoms: N_1  and  C_4
REMARK    2  A    between atoms: C_4  and  C_5
REMARK                            x       y       z     vdW  Elec       q    Type
REMARK                         _______ _______ _______ _____ _____    ______ ____
ROOT
ATOM      1  N   UNL     1      21.662  -5.697   3.136  0.00  0.00    -0.354 N 
ATOM      2  N   UNL     1      20.800  -4.441   1.391  0.00  0.00    -0.372 N 
ATOM      3  N   UNL     1      19.534  -6.145   2.261  0.00  0.00    -0.372 N 
ATOM      4  C   UNL     1      20.669  -5.438   2.274  0.00  0.00    +0.166 C 
ATOM      5  H   UNL     1      22.509  -5.144   3.075  0.00  0.00    +0.163 HD
ATOM      6  H   UNL     1      20.067  -4.219   0.731  0.00  0.00    +0.159 HD
ATOM      7  H   UNL     1      21.630  -3.860   1.363  0.00  0.00    +0.159 HD
ATOM      8  H   UNL     1      19.375  -6.914   2.898  0.00  0.00    +0.159 HD
ATOM      9  H   UNL     1      18.793  -5.946   1.600  0.00  0.00    +0.159 HD
ENDROOT
BRANCH   1  10
ATOM     10  C   UNL     1      21.597  -6.726   4.172  0.00  0.00    +0.151 C 
BRANCH  10  11
ATOM     11  C   UNL     1      21.787  -6.081   5.517  0.00  0.00    -0.028 A 
ATOM     12  C   UNL     1      22.289  -6.821   6.597  0.00  0.00    +0.005 A 
ATOM     13  C   UNL     1      21.472  -4.728   5.716  0.00  0.00    +0.005 A 
ATOM     14  C   UNL     1      22.494  -6.214   7.839  0.00  0.00    +0.000 A 
ATOM     15  C   UNL     1      21.677  -4.126   6.958  0.00  0.00    +0.000 A 
ATOM     16  C   UNL     1      22.191  -4.869   8.018  0.00  0.00    +0.000 A 
ENDBRANCH  10  11
ENDBRANCH   1  10
TORSDOF 2
ENDMDL
MODEL 7
REMARK VINA RESULT:    -5.228     30.178     30.997
REMARK INTER + INTRA:          -5.962
REMARK INTER:                  -5.816
REMARK INTRA:                  -0.147
REMARK UNBOUND:                -0.123
REMARK  Name = 1550473
REMARK  2 active torsions:
REMARK  status: ('A' for Active; 'I' for Inactive)
REMARK    1  A    between atoms: N_1  and  C_4
REMARK    2  A    between atoms: C_4  and  C_5
REMARK                            x       y       z     vdW  Elec       q    Type
REMARK                         _______ _______ _______ _____ _____    ______ ____
ROOT
ATOM      1  N   UNL     1      -4.706 -11.945 -11.152  0.00  0.00    -0.354 N 
ATOM      2  N   UNL     1      -5.938 -13.866 -11.544  0.00  0.00    -0.372 N 
ATOM      3  N   UNL     1      -4.531 -13.802  -9.733  0.00  0.00    -0.372 N 
ATOM      4  C   UNL     1      -5.049 -13.192 -10.805  0.00  0.00    +0.166 C 
ATOM      5  H   UNL     1      -5.112 -11.550 -11.993  0.00  0.00    +0.163 HD
ATOM      6  H   UNL     1      -6.218 -14.808 -11.305  0.00  0.00    +0.159 HD
ATOM      7  H   UNL     1      -6.377 -13.453 -12.358  0.00  0.00    +0.159 HD
ATOM      8  H   UNL     1      -3.850 -13.350  -9.137  0.00  0.00    +0.159 HD
ATOM      9  H   UNL     1      -4.790 -14.748  -9.485  0.00  0.00    +0.159 HD
ENDROOT
BRANCH   1  10
ATOM     10  C   UNL     1      -3.788 -11.105 -10.384  0.00  0.00    +0.151 C 
BRANCH  10  11
ATOM     11  C   UNL     1      -4.522  -9.883  -9.907  0.00  0.00    -0.028 A 
ATOM     12  C   UNL     1      -4.088  -8.602 -10.278  0.00  0.00    +0.005 A 
ATOM     13  C   UNL     1      -5.656  -9.999  -9.088  0.00  0.00    +0.005 A 
ATOM     14  C   UNL     1      -4.787  -7.467  -9.859  0.00  0.00    +0.000 A 
ATOM     15  C   UNL     1      -6.351  -8.864  -8.672  0.00  0.00    +0.000 A 
ATOM     16  C   UNL     1      -5.918  -7.598  -9.060  0.00  0.00    +0.000 A 
ENDBRANCH  10  11
ENDBRANCH   1  10
TORSDOF 2
ENDMDL
MODEL 8
REMARK VINA RESULT:    -5.160     28.117     29.471
REMARK INTER + INTRA:          -5.886
REMARK INTER:                  -5.756
REMARK INTRA:                  -0.130
REMARK UNBOUND:                -0.123
REMARK  Name = 1550473
REMARK  2 active torsions:
REMARK  status: ('A' for Active; 'I' for Inactive)
REMARK    1  A    between atoms: N_1  and  C_4
REMARK    2  A    between atoms: C_4  and  C_5
REMARK                            x       y       z     vdW  Elec       q    Type
REMARK                         _______ _______ _______ _____ _____    ______ ____
ROOT
ATOM      1  N   UNL     1      -4.379 -10.744 -10.436  0.00  0.00    -0.354 N 
ATOM      2  N   UNL     1      -5.660  -9.052  -9.509  0.00  0.00    -0.372 N 
ATOM      3  N   UNL     1      -6.100 -11.225  -8.920  0.00  0.00    -0.372 N 
ATOM      4  C   UNL     1      -5.373 -10.354  -9.627  0.00  0.00    +0.166 C 
ATOM      5  H   UNL     1      -3.885 -10.036 -10.968  0.00  0.00    +0.163 HD
ATOM      6  H   UNL     1      -6.401  -8.727  -8.903  0.00  0.00    +0.159 HD
ATOM      7  H   UNL     1      -5.134  -8.343 -10.006  0.00  0.00    +0.159 HD
ATOM      8  H   UNL     1      -5.937 -12.222  -8.969  0.00  0.00    +0.159 HD
ATOM      9  H   UNL     1      -6.854 -10.921  -8.317  0.00  0.00    +0.159 HD
ENDROOT
BRANCH   1  10
ATOM     10  C   UNL     1      -3.951 -12.133 -10.595  0.00  0.00    +0.151 C 
BRANCH  10  11
ATOM     11  C   UNL     1      -2.454 -12.173 -10.726  0.00  0.00    -0.028 A 
ATOM     12  C   UNL     1      -1.752 -13.368 -10.509  0.00  0.00    +0.005 A 
ATOM     13  C   UNL     1      -1.731 -11.021 -11.072  0.00  0.00    +0.005 A 
ATOM     14  C   UNL     1      -0.364 -13.413 -10.661  0.00  0.00    +0.000 A 
ATOM     15  C   UNL     1      -0.345 -11.070 -11.222  0.00  0.00    +0.000 A 
ATOM     16  C   UNL     1       0.338 -12.267 -11.018  0.00  0.00    +0.000 A 
ENDBRANCH  10  11
ENDBRANCH   1  10
TORSDOF 2
ENDMDL
MODEL 9
REMARK VINA RESULT:    -4.903     35.752     36.809
REMARK INTER + INTRA:          -5.599
REMARK INTER:                  -5.476
REMARK INTRA:                  -0.123
REMARK UNBOUND:                -0.123
REMARK  Name = 1550473
REMARK  2 active torsions:
REMARK  status: ('A' for Active; 'I' for Inactive)
REMARK    1  A    between atoms: N_1  and  C_4
REMARK    2  A    between atoms: C_4  and  C_5
REMARK                            x       y       z     vdW  Elec       q    Type
REMARK                         _______ _______ _______ _____ _____    ______ ____
ROOT
ATOM      1  N   UNL     1      -5.200 -12.903 -18.488  0.00  0.00    -0.354 N 
ATOM      2  N   UNL     1      -3.946 -12.310 -20.343  0.00  0.00    -0.372 N 
ATOM      3  N   UNL     1      -3.726 -14.428 -19.487  0.00  0.00    -0.372 N 
ATOM      4  C   UNL     1      -4.298 -13.220 -19.427  0.00  0.00    +0.166 C 
ATOM      5  H   UNL     1      -5.574 -11.961 -18.478  0.00  0.00    +0.163 HD
ATOM      6  H   UNL     1      -3.271 -12.522 -21.066  0.00  0.00    +0.159 HD
ATOM      7  H   UNL     1      -4.356 -11.384 -20.359  0.00  0.00    +0.159 HD
ATOM      8  H   UNL     1      -3.944 -15.157 -18.821  0.00  0.00    +0.159 HD
ATOM      9  H   UNL     1      -3.039 -14.654 -20.195  0.00  0.00    +0.159 HD
ENDROOT
BRANCH   1  10
ATOM     10  C   UNL     1      -5.691 -13.838 -17.477  0.00  0.00    +0.151 C 
BRANCH  10  11
ATOM     11  C   UNL     1      -7.062 -13.408 -17.035  0.00  0.00    -0.028 A 
ATOM     12  C   UNL     1      -7.482 -12.081 -17.208  0.00  0.00    +0.005 A 
ATOM     13  C   UNL     1      -7.949 -14.324 -16.449  0.00  0.00    +0.005 A 
ATOM     14  C   UNL     1      -8.767 -11.688 -16.825  0.00  0.00    +0.000 A 
ATOM     15  C   UNL     1      -9.231 -13.928 -16.067  0.00  0.00    +0.000 A 
ATOM     16  C   UNL     1      -9.640 -12.610 -16.258  0.00  0.00    +0.000 A 
ENDBRANCH  10  11
ENDBRANCH   1  10
TORSDOF 2
ENDMDL
