MODEL 1
REMARK VINA RESULT:    -6.004      0.000      0.000
REMARK INTER + INTRA:          -6.822
REMARK INTER:                  -6.706
REMARK INTRA:                  -0.117
REMARK UNBOUND:                -0.117
REMARK  Name = 1550473
REMARK  2 active torsions:
REMARK  status: ('A' for Active; 'I' for Inactive)
REMARK    1  A    between atoms: N_1  and  C_4
REMARK    2  A    between atoms: C_4  and  C_5
REMARK                            x       y       z     vdW  Elec       q    Type
REMARK                         _______ _______ _______ _____ _____    ______ ____
ROOT
ATOM      1  N   UNL     1      -4.780   9.738   7.291  0.00  0.00    -0.354 N 
ATOM      2  N   UNL     1      -7.053   9.321   7.447  0.00  0.00    -0.372 N 
ATOM      3  N   UNL     1      -6.344  11.468   7.056  0.00  0.00    -0.372 N 
ATOM      4  C   UNL     1      -6.044  10.181   7.263  0.00  0.00    +0.166 C 
ATOM      5  H   UNL     1      -4.618   8.756   7.483  0.00  0.00    +0.163 HD
ATOM      6  H   UNL     1      -8.017   9.625   7.428  0.00  0.00    +0.159 HD
ATOM      7  H   UNL     1      -6.890   8.332   7.593  0.00  0.00    +0.159 HD
ATOM      8  H   UNL     1      -5.628  12.168   6.916  0.00  0.00    +0.159 HD
ATOM      9  H   UNL     1      -7.302  11.794   7.046  0.00  0.00    +0.159 HD
ENDROOT
BRANCH   1  10
ATOM     10  C   UNL     1      -3.612  10.583   7.049  0.00  0.00    +0.151 C 
BRANCH  10  11
ATOM     11  C   UNL     1      -2.613   9.817   6.226  0.00  0.00    -0.028 A 
ATOM     12  C   UNL     1      -2.815   9.633   4.851  0.00  0.00    +0.005 A 
ATOM     13  C   UNL     1      -1.460   9.277   6.816  0.00  0.00    +0.005 A 
ATOM     14  C   UNL     1      -1.873   8.947   4.081  0.00  0.00    +0.000 A 
ATOM     15  C   UNL     1      -0.522   8.592   6.044  0.00  0.00    +0.000 A 
ATOM     16  C   UNL     1      -0.727   8.429   4.676  0.00  0.00    +0.000 A 
ENDBRANCH  10  11
ENDBRANCH   1  10
TORSDOF 2
ENDMDL
MODEL 2
REMARK VINA RESULT:    -5.956     17.359     18.173
REMARK INTER + INTRA:          -6.769
REMARK INTER:                  -6.657
REMARK INTRA:                  -0.112
REMARK UNBOUND:                -0.117
REMARK  Name = 1550473
REMARK  2 active torsions:
REMARK  status: ('A' for Active; 'I' for Inactive)
REMARK    1  A    between atoms: N_1  and  C_4
REMARK    2  A    between atoms: C_4  and  C_5
REMARK                            x       y       z     vdW  Elec       q    Type
REMARK                         _______ _______ _______ _____ _____    ______ ____
ROOT
ATOM      1  N   UNL     1      -7.679  -6.534  12.663  0.00  0.00    -0.354 N 
ATOM      2  N   UNL     1      -8.602  -6.893  10.569  0.00  0.00    -0.372 N 
ATOM      3  N   UNL     1      -7.910  -8.701  11.802  0.00  0.00    -0.372 N 
ATOM      4  C   UNL     1      -8.057  -7.376  11.692  0.00  0.00    +0.166 C 
ATOM      5  H   UNL     1      -7.789  -5.539  12.506  0.00  0.00    +0.163 HD
ATOM      6  H   UNL     1      -8.900  -7.505   9.821  0.00  0.00    +0.159 HD
ATOM      7  H   UNL     1      -8.753  -5.901  10.435  0.00  0.00    +0.159 HD
ATOM      8  H   UNL     1      -7.500  -9.129  12.621  0.00  0.00    +0.159 HD
ATOM      9  H   UNL     1      -8.192  -9.329  11.059  0.00  0.00    +0.159 HD
ENDROOT
BRANCH   1  10
ATOM     10  C   UNL     1      -7.125  -6.961  13.946  0.00  0.00    +0.151 C 
BRANCH  10  11
ATOM     11  C   UNL     1      -6.880  -5.750  14.803  0.00  0.00    -0.028 A 
ATOM     12  C   UNL     1      -7.802  -4.692  14.821  0.00  0.00    +0.005 A 
ATOM     13  C   UNL     1      -5.732  -5.656  15.605  0.00  0.00    +0.005 A 
ATOM     14  C   UNL     1      -7.591  -3.580  15.639  0.00  0.00    +0.000 A 
ATOM     15  C   UNL     1      -5.525  -4.543  16.421  0.00  0.00    +0.000 A 
ATOM     16  C   UNL     1      -6.455  -3.507  16.439  0.00  0.00    +0.000 A 
ENDBRANCH  10  11
ENDBRANCH   1  10
TORSDOF 2
ENDMDL
MODEL 3
REMARK VINA RESULT:    -5.527     23.703     24.331
REMARK INTER + INTRA:          -6.290
REMARK INTER:                  -6.147
REMARK INTRA:                  -0.143
REMARK UNBOUND:                -0.117
REMARK  Name = 1550473
REMARK  2 active torsions:
REMARK  status: ('A' for Active; 'I' for Inactive)
REMARK    1  A    between atoms: N_1  and  C_4
REMARK    2  A    between atoms: C_4  and  C_5
REMARK                            x       y       z     vdW  Elec       q    Type
REMARK                         _______ _______ _______ _____ _____    ______ ____
ROOT
ATOM      1  N   UNL     1      -3.024  -5.113 -11.798  0.00  0.00    -0.354 N 
ATOM      2  N   UNL     1      -0.785  -5.668 -11.594  0.00  0.00    -0.372 N 
ATOM      3  N   UNL     1      -1.722  -5.591 -13.687  0.00  0.00    -0.372 N 
ATOM      4  C   UNL     1      -1.858  -5.454 -12.364  0.00  0.00    +0.166 C 
ATOM      5  H   UNL     1      -3.069  -5.054 -10.787  0.00  0.00    +0.163 HD
ATOM      6  H   UNL     1       0.109  -5.924 -11.992  0.00  0.00    +0.159 HD
ATOM      7  H   UNL     1      -0.821  -5.564 -10.587  0.00  0.00    +0.159 HD
ATOM      8  H   UNL     1      -2.495  -5.450 -14.322  0.00  0.00    +0.159 HD
ATOM      9  H   UNL     1      -0.839  -5.858 -14.104  0.00  0.00    +0.159 HD
ENDROOT
BRANCH   1  10
ATOM     10  C   UNL     1      -4.239  -4.805 -12.550  0.00  0.00    +0.151 C 
BRANCH  10  11
ATOM     11  C   UNL     1      -5.391  -5.566 -11.954  0.00  0.00    -0.028 A 
ATOM     12  C   UNL     1      -6.686  -5.419 -12.473  0.00  0.00    +0.005 A 
ATOM     13  C   UNL     1      -5.194  -6.440 -10.874  0.00  0.00    +0.005 A 
ATOM     14  C   UNL     1      -7.751  -6.148 -11.939  0.00  0.00    +0.000 A 
ATOM     15  C   UNL     1      -6.260  -7.165 -10.343  0.00  0.00    +0.000 A 
ATOM     16  C   UNL     1      -7.538  -7.021 -10.878  0.00  0.00    +0.000 A 
ENDBRANCH  10  11
ENDBRANCH   1  10
TORSDOF 2
ENDMDL
MODEL 4
REMARK VINA RESULT:    -5.493     24.417     25.245
REMARK INTER + INTRA:          -6.252
REMARK INTER:                  -6.115
REMARK INTRA:                  -0.137
REMARK UNBOUND:                -0.117
REMARK  Name = 1550473
REMARK  2 active torsions:
REMARK  status: ('A' for Active; 'I' for Inactive)
REMARK    1  A    between atoms: N_1  and  C_4
REMARK    2  A    between atoms: C_4  and  C_5
REMARK                            x       y       z     vdW  Elec       q    Type
REMARK                         _______ _______ _______ _____ _____    ______ ____
ROOT
ATOM      1  N   UNL     1      -3.661  -5.793 -13.330  0.00  0.00    -0.354 N 
ATOM      2  N   UNL     1      -2.077  -6.870 -14.632  0.00  0.00    -0.372 N 
ATOM      3  N   UNL     1      -3.691  -5.608 -15.666  0.00  0.00    -0.372 N 
ATOM      4  C   UNL     1      -3.155  -6.082 -14.536  0.00  0.00    +0.166 C 
ATOM      5  H   UNL     1      -3.227  -6.208 -12.513  0.00  0.00    +0.163 HD
ATOM      6  H   UNL     1      -1.671  -7.103 -15.529  0.00  0.00    +0.159 HD
ATOM      7  H   UNL     1      -1.618  -7.246 -13.812  0.00  0.00    +0.159 HD
ATOM      8  H   UNL     1      -4.509  -5.013 -15.662  0.00  0.00    +0.159 HD
ATOM      9  H   UNL     1      -3.306  -5.839 -16.573  0.00  0.00    +0.159 HD
ENDROOT
BRANCH   1  10
ATOM     10  C   UNL     1      -4.799  -4.902 -13.112  0.00  0.00    +0.151 C 
BRANCH  10  11
ATOM     11  C   UNL     1      -5.846  -5.628 -12.313  0.00  0.00    -0.028 A 
ATOM     12  C   UNL     1      -5.474  -6.519 -11.296  0.00  0.00    +0.005 A 
ATOM     13  C   UNL     1      -7.211  -5.424 -12.563  0.00  0.00    +0.005 A 
ATOM     14  C   UNL     1      -6.445  -7.171 -10.533  0.00  0.00    +0.000 A 
ATOM     15  C   UNL     1      -8.179  -6.077 -11.799  0.00  0.00    +0.000 A 
ATOM     16  C   UNL     1      -7.795  -6.948 -10.783  0.00  0.00    +0.000 A 
ENDBRANCH  10  11
ENDBRANCH   1  10
TORSDOF 2
ENDMDL
MODEL 5
REMARK VINA RESULT:    -5.461     26.185     27.507
REMARK INTER + INTRA:          -6.216
REMARK INTER:                  -6.086
REMARK INTRA:                  -0.130
REMARK UNBOUND:                -0.117
REMARK  Name = 1550473
REMARK  2 active torsions:
REMARK  status: ('A' for Active; 'I' for Inactive)
REMARK    1  A    between atoms: N_1  and  C_4
REMARK    2  A    between atoms: C_4  and  C_5
REMARK                            x       y       z     vdW  Elec       q    Type
REMARK                         _______ _______ _______ _____ _____    ______ ____
ROOT
ATOM      1  N   UNL     1      -5.263  -6.502 -17.171  0.00  0.00    -0.354 N 
ATOM      2  N   UNL     1      -5.312  -7.902 -19.015  0.00  0.00    -0.372 N 
ATOM      3  N   UNL     1      -3.356  -7.691 -17.834  0.00  0.00    -0.372 N 
ATOM      4  C   UNL     1      -4.640  -7.356 -17.994  0.00  0.00    +0.166 C 
ATOM      5  H   UNL     1      -6.230  -6.265 -17.364  0.00  0.00    +0.163 HD
ATOM      6  H   UNL     1      -4.869  -8.553 -19.650  0.00  0.00    +0.159 HD
ATOM      7  H   UNL     1      -6.290  -7.700 -19.179  0.00  0.00    +0.159 HD
ATOM      8  H   UNL     1      -2.792  -7.309 -17.087  0.00  0.00    +0.159 HD
ATOM      9  H   UNL     1      -2.892  -8.331 -18.466  0.00  0.00    +0.159 HD
ENDROOT
BRANCH   1  10
ATOM     10  C   UNL     1      -4.638  -5.893 -15.998  0.00  0.00    +0.151 C 
BRANCH  10  11
ATOM     11  C   UNL     1      -5.679  -5.699 -14.931  0.00  0.00    -0.028 A 
ATOM     12  C   UNL     1      -7.041  -5.857 -15.228  0.00  0.00    +0.005 A 
ATOM     13  C   UNL     1      -5.311  -5.364 -13.619  0.00  0.00    +0.005 A 
ATOM     14  C   UNL     1      -8.007  -5.707 -14.230  0.00  0.00    +0.000 A 
ATOM     15  C   UNL     1      -6.278  -5.214 -12.626  0.00  0.00    +0.000 A 
ATOM     16  C   UNL     1      -7.626  -5.388 -12.931  0.00  0.00    +0.000 A 
ENDBRANCH  10  11
ENDBRANCH   1  10
TORSDOF 2
ENDMDL
MODEL 6
REMARK VINA RESULT:    -5.428     23.473     24.674
REMARK INTER + INTRA:          -6.179
REMARK INTER:                  -6.039
REMARK INTRA:                  -0.140
REMARK UNBOUND:                -0.117
REMARK  Name = 1550473
REMARK  2 active torsions:
REMARK  status: ('A' for Active; 'I' for Inactive)
REMARK    1  A    between atoms: N_1  and  C_4
REMARK    2  A    between atoms: C_4  and  C_5
REMARK                            x       y       z     vdW  Elec       q    Type
REMARK                         _______ _______ _______ _____ _____    ______ ____
ROOT
ATOM      1  N   UNL     1      -0.611  -6.646 -11.442  0.00  0.00    -0.354 N 
ATOM      2  N   UNL     1      -1.793  -4.698 -11.856  0.00  0.00    -0.372 N 
ATOM      3  N   UNL     1      -0.713  -5.731 -13.597  0.00  0.00    -0.372 N 
ATOM      4  C   UNL     1      -1.030  -5.705 -12.298  0.00  0.00    +0.166 C 
ATOM      5  H   UNL     1      -0.861  -6.553 -10.464  0.00  0.00    +0.163 HD
ATOM      6  H   UNL     1      -2.127  -3.975 -12.479  0.00  0.00    +0.159 HD
ATOM      7  H   UNL     1      -2.079  -4.632 -10.887  0.00  0.00    +0.159 HD
ATOM      8  H   UNL     1      -0.135  -6.461 -13.992  0.00  0.00    +0.159 HD
ATOM      9  H   UNL     1      -1.027  -5.011 -14.234  0.00  0.00    +0.159 HD
ENDROOT
BRANCH   1  10
ATOM     10  C   UNL     1       0.179  -7.813 -11.831  0.00  0.00    +0.151 C 
BRANCH  10  11
ATOM     11  C   UNL     1       1.435  -7.854 -11.005  0.00  0.00    -0.028 A 
ATOM     12  C   UNL     1       1.746  -6.804 -10.129  0.00  0.00    +0.005 A 
ATOM     13  C   UNL     1       2.316  -8.943 -11.091  0.00  0.00    +0.005 A 
ATOM     14  C   UNL     1       2.897  -6.855  -9.340  0.00  0.00    +0.000 A 
ATOM     15  C   UNL     1       3.465  -8.990 -10.301  0.00  0.00    +0.000 A 
ATOM     16  C   UNL     1       3.754  -7.947  -9.424  0.00  0.00    +0.000 A 
ENDBRANCH  10  11
ENDBRANCH   1  10
TORSDOF 2
ENDMDL
MODEL 7
REMARK VINA RESULT:    -5.321     18.399     19.201
REMARK INTER + INTRA:          -6.060
REMARK INTER:                  -5.879
REMARK INTRA:                  -0.181
REMARK UNBOUND:                -0.117
REMARK  Name = 1550473
REMARK  2 active torsions:
REMARK  status: ('A' for Active; 'I' for Inactive)
REMARK    1  A    between atoms: N_1  and  C_4
REMARK    2  A    between atoms: C_4  and  C_5
REMARK                            x       y       z     vdW  Elec       q    Type
REMARK                         _______ _______ _______ _____ _____    ______ ____
ROOT
ATOM      1  N   UNL     1      -9.859  -7.878   9.603  0.00  0.00    -0.354 N 
ATOM      2  N   UNL     1     -11.379  -6.501   8.527  0.00  0.00    -0.372 N 
ATOM      3  N   UNL     1      -9.306  -5.668   9.052  0.00  0.00    -0.372 N 
ATOM      4  C   UNL     1     -10.170  -6.689   9.068  0.00  0.00    +0.166 C 
ATOM      5  H   UNL     1     -10.568  -8.602   9.611  0.00  0.00    +0.163 HD
ATOM      6  H   UNL     1     -11.641  -5.616   8.113  0.00  0.00    +0.159 HD
ATOM      7  H   UNL     1     -12.070  -7.241   8.495  0.00  0.00    +0.159 HD
ATOM      8  H   UNL     1      -8.380  -5.744   9.450  0.00  0.00    +0.159 HD
ATOM      9  H   UNL     1      -9.554  -4.771   8.653  0.00  0.00    +0.159 HD
ENDROOT
BRANCH   1  10
ATOM     10  C   UNL     1      -8.551  -8.203  10.170  0.00  0.00    +0.151 C 
BRANCH  10  11
ATOM     11  C   UNL     1      -8.633  -8.127  11.669  0.00  0.00    -0.028 A 
ATOM     12  C   UNL     1      -9.413  -9.045  12.387  0.00  0.00    +0.005 A 
ATOM     13  C   UNL     1      -7.927  -7.143  12.378  0.00  0.00    +0.005 A 
ATOM     14  C   UNL     1      -9.465  -8.993  13.782  0.00  0.00    +0.000 A 
ATOM     15  C   UNL     1      -7.982  -7.094  13.771  0.00  0.00    +0.000 A 
ATOM     16  C   UNL     1      -8.750  -8.021  14.473  0.00  0.00    +0.000 A 
ENDBRANCH  10  11
ENDBRANCH   1  10
TORSDOF 2
ENDMDL
MODEL 8
REMARK VINA RESULT:    -5.240     23.658     24.294
REMARK INTER + INTRA:          -5.970
REMARK INTER:                  -5.848
REMARK INTRA:                  -0.122
REMARK UNBOUND:                -0.117
REMARK  Name = 1550473
REMARK  2 active torsions:
REMARK  status: ('A' for Active; 'I' for Inactive)
REMARK    1  A    between atoms: N_1  and  C_4
REMARK    2  A    between atoms: C_4  and  C_5
REMARK                            x       y       z     vdW  Elec       q    Type
REMARK                         _______ _______ _______ _____ _____    ______ ____
ROOT
ATOM      1  N   UNL     1      -1.604  -7.891 -10.373  0.00  0.00    -0.354 N 
ATOM      2  N   UNL     1      -3.640  -6.894 -10.843  0.00  0.00    -0.372 N 
ATOM      3  N   UNL     1      -3.600  -9.114 -10.265  0.00  0.00    -0.372 N 
ATOM      4  C   UNL     1      -2.935  -7.976 -10.490  0.00  0.00    +0.166 C 
ATOM      5  H   UNL     1      -1.157  -7.007 -10.586  0.00  0.00    +0.163 HD
ATOM      6  H   UNL     1      -4.647  -6.926 -10.936  0.00  0.00    +0.159 HD
ATOM      7  H   UNL     1      -3.196  -5.999 -11.011  0.00  0.00    +0.159 HD
ATOM      8  H   UNL     1      -3.126  -9.968 -10.002  0.00  0.00    +0.159 HD
ATOM      9  H   UNL     1      -4.606  -9.169 -10.365  0.00  0.00    +0.159 HD
ENDROOT
BRANCH   1  10
ATOM     10  C   UNL     1      -0.749  -8.996  -9.943  0.00  0.00    +0.151 C 
BRANCH  10  11
ATOM     11  C   UNL     1       0.631  -8.469  -9.661  0.00  0.00    -0.028 A 
ATOM     12  C   UNL     1       1.572  -9.261  -8.986  0.00  0.00    +0.005 A 
ATOM     13  C   UNL     1       1.007  -7.181 -10.073  0.00  0.00    +0.005 A 
ATOM     14  C   UNL     1       2.863  -8.783  -8.751  0.00  0.00    +0.000 A 
ATOM     15  C   UNL     1       2.297  -6.708  -9.836  0.00  0.00    +0.000 A 
ATOM     16  C   UNL     1       3.226  -7.510  -9.177  0.00  0.00    +0.000 A 
ENDBRANCH  10  11
ENDBRANCH   1  10
TORSDOF 2
ENDMDL
MODEL 9
REMARK VINA RESULT:    -5.096     18.073     18.902
REMARK INTER + INTRA:          -5.809
REMARK INTER:                  -5.668
REMARK INTRA:                  -0.141
REMARK UNBOUND:                -0.117
REMARK  Name = 1550473
REMARK  2 active torsions:
REMARK  status: ('A' for Active; 'I' for Inactive)
REMARK    1  A    between atoms: N_1  and  C_4
REMARK    2  A    between atoms: C_4  and  C_5
REMARK                            x       y       z     vdW  Elec       q    Type
REMARK                         _______ _______ _______ _____ _____    ______ ____
ROOT
ATOM      1  N   UNL     1      -7.229  -7.705  13.378  0.00  0.00    -0.354 N 
ATOM      2  N   UNL     1      -6.945  -9.994  13.165  0.00  0.00    -0.372 N 
ATOM      3  N   UNL     1      -9.054  -9.167  13.533  0.00  0.00    -0.372 N 
ATOM      4  C   UNL     1      -7.748  -8.940  13.361  0.00  0.00    +0.166 C 
ATOM      5  H   UNL     1      -6.227  -7.602  13.271  0.00  0.00    +0.163 HD
ATOM      6  H   UNL     1      -7.308 -10.937  13.144  0.00  0.00    +0.159 HD
ATOM      7  H   UNL     1      -5.950  -9.885  13.013  0.00  0.00    +0.159 HD
ATOM      8  H   UNL     1      -9.712  -8.415  13.691  0.00  0.00    +0.159 HD
ATOM      9  H   UNL     1      -9.435 -10.105  13.527  0.00  0.00    +0.159 HD
ENDROOT
BRANCH   1  10
ATOM     10  C   UNL     1      -8.024  -6.487  13.529  0.00  0.00    +0.151 C 
BRANCH  10  11
ATOM     11  C   UNL     1      -7.362  -5.592  14.540  0.00  0.00    -0.028 A 
ATOM     12  C   UNL     1      -6.099  -5.914  15.058  0.00  0.00    +0.005 A 
ATOM     13  C   UNL     1      -7.991  -4.417  14.981  0.00  0.00    +0.005 A 
ATOM     14  C   UNL     1      -5.471  -5.068  15.975  0.00  0.00    +0.000 A 
ATOM     15  C   UNL     1      -7.361  -3.575  15.897  0.00  0.00    +0.000 A 
ATOM     16  C   UNL     1      -6.100  -3.899  16.392  0.00  0.00    +0.000 A 
ENDBRANCH  10  11
ENDBRANCH   1  10
TORSDOF 2
ENDMDL
