MODEL 1
REMARK VINA RESULT:    -6.318      0.000      0.000
REMARK INTER + INTRA:          -7.198
REMARK INTER:                  -7.057
REMARK INTRA:                  -0.142
REMARK UNBOUND:                -0.142
REMARK  Name = 1550473
REMARK  2 active torsions:
REMARK  status: ('A' for Active; 'I' for Inactive)
REMARK    1  A    between atoms: N_1  and  C_4
REMARK    2  A    between atoms: C_4  and  C_5
REMARK                            x       y       z     vdW  Elec       q    Type
REMARK                         _______ _______ _______ _____ _____    ______ ____
ROOT
ATOM      1  N   UNL     1      -2.986  -0.945   0.850  0.00  0.00    -0.354 N 
ATOM      2  N   UNL     1      -2.039  -2.217   2.538  0.00  0.00    -0.372 N 
ATOM      3  N   UNL     1      -3.718  -0.745   3.067  0.00  0.00    -0.372 N 
ATOM      4  C   UNL     1      -2.922  -1.292   2.142  0.00  0.00    +0.166 C 
ATOM      5  H   UNL     1      -2.334  -1.375   0.204  0.00  0.00    +0.163 HD
ATOM      6  H   UNL     1      -1.971  -2.502   3.506  0.00  0.00    +0.159 HD
ATOM      7  H   UNL     1      -1.421  -2.678   1.882  0.00  0.00    +0.159 HD
ATOM      8  H   UNL     1      -4.402  -0.038   2.834  0.00  0.00    +0.159 HD
ATOM      9  H   UNL     1      -3.657  -1.009   4.043  0.00  0.00    +0.159 HD
ENDROOT
BRANCH   1  10
ATOM     10  C   UNL     1      -3.948   0.012   0.307  0.00  0.00    +0.151 C 
BRANCH  10  11
ATOM     11  C   UNL     1      -4.984  -0.732  -0.490  0.00  0.00    -0.028 A 
ATOM     12  C   UNL     1      -5.027  -0.616  -1.887  0.00  0.00    +0.005 A 
ATOM     13  C   UNL     1      -5.923  -1.559   0.146  0.00  0.00    +0.005 A 
ATOM     14  C   UNL     1      -5.970  -1.330  -2.630  0.00  0.00    +0.000 A 
ATOM     15  C   UNL     1      -6.863  -2.270  -0.599  0.00  0.00    +0.000 A 
ATOM     16  C   UNL     1      -6.885  -2.157  -1.987  0.00  0.00    +0.000 A 
ENDBRANCH  10  11
ENDBRANCH   1  10
TORSDOF 2
ENDMDL
MODEL 2
REMARK VINA RESULT:    -5.258      2.314      3.308
REMARK INTER + INTRA:          -6.015
REMARK INTER:                  -5.905
REMARK INTRA:                  -0.110
REMARK UNBOUND:                -0.142
REMARK  Name = 1550473
REMARK  2 active torsions:
REMARK  status: ('A' for Active; 'I' for Inactive)
REMARK    1  A    between atoms: N_1  and  C_4
REMARK    2  A    between atoms: C_4  and  C_5
REMARK                            x       y       z     vdW  Elec       q    Type
REMARK                         _______ _______ _______ _____ _____    ______ ____
ROOT
ATOM      1  N   UNL     1      -4.441  -1.637   1.698  0.00  0.00    -0.354 N 
ATOM      2  N   UNL     1      -2.216  -2.075   2.169  0.00  0.00    -0.372 N 
ATOM      3  N   UNL     1      -2.724  -0.516   0.564  0.00  0.00    -0.372 N 
ATOM      4  C   UNL     1      -3.141  -1.405   1.472  0.00  0.00    +0.166 C 
ATOM      5  H   UNL     1      -4.692  -2.345   2.379  0.00  0.00    +0.163 HD
ATOM      6  H   UNL     1      -1.228  -1.918   2.023  0.00  0.00    +0.159 HD
ATOM      7  H   UNL     1      -2.470  -2.748   2.881  0.00  0.00    +0.159 HD
ATOM      8  H   UNL     1      -3.372   0.018  -0.000  0.00  0.00    +0.159 HD
ATOM      9  H   UNL     1      -1.739  -0.354   0.394  0.00  0.00    +0.159 HD
ENDROOT
BRANCH   1  10
ATOM     10  C   UNL     1      -5.528  -0.923   1.031  0.00  0.00    +0.151 C 
BRANCH  10  11
ATOM     11  C   UNL     1      -6.842  -1.516   1.459  0.00  0.00    -0.028 A 
ATOM     12  C   UNL     1      -7.014  -2.908   1.503  0.00  0.00    +0.005 A 
ATOM     13  C   UNL     1      -7.916  -0.693   1.828  0.00  0.00    +0.005 A 
ATOM     14  C   UNL     1      -8.225  -3.459   1.929  0.00  0.00    +0.000 A 
ATOM     15  C   UNL     1      -9.123  -1.248   2.253  0.00  0.00    +0.000 A 
ATOM     16  C   UNL     1      -9.276  -2.631   2.306  0.00  0.00    +0.000 A 
ENDBRANCH  10  11
ENDBRANCH   1  10
TORSDOF 2
ENDMDL
MODEL 3
REMARK VINA RESULT:    -5.153      1.028      2.030
REMARK INTER + INTRA:          -5.897
REMARK INTER:                  -5.778
REMARK INTRA:                  -0.119
REMARK UNBOUND:                -0.142
REMARK  Name = 1550473
REMARK  2 active torsions:
REMARK  status: ('A' for Active; 'I' for Inactive)
REMARK    1  A    between atoms: N_1  and  C_4
REMARK    2  A    between atoms: C_4  and  C_5
REMARK                            x       y       z     vdW  Elec       q    Type
REMARK                         _______ _______ _______ _____ _____    ______ ____
ROOT
ATOM      1  N   UNL     1      -4.841   0.021   1.214  0.00  0.00    -0.354 N 
ATOM      2  N   UNL     1      -4.119  -1.092   3.112  0.00  0.00    -0.372 N 
ATOM      3  N   UNL     1      -2.681  -0.879   1.337  0.00  0.00    -0.372 N 
ATOM      4  C   UNL     1      -3.883  -0.643   1.873  0.00  0.00    +0.166 C 
ATOM      5  H   UNL     1      -5.741   0.141   1.665  0.00  0.00    +0.163 HD
ATOM      6  H   UNL     1      -3.414  -1.594   3.636  0.00  0.00    +0.159 HD
ATOM      7  H   UNL     1      -5.003  -0.931   3.578  0.00  0.00    +0.159 HD
ATOM      8  H   UNL     1      -2.442  -0.572   0.403  0.00  0.00    +0.159 HD
ATOM      9  H   UNL     1      -1.966  -1.390   1.840  0.00  0.00    +0.159 HD
ENDROOT
BRANCH   1  10
ATOM     10  C   UNL     1      -4.668   0.598  -0.118  0.00  0.00    +0.151 C 
BRANCH  10  11
ATOM     11  C   UNL     1      -5.285  -0.321  -1.136  0.00  0.00    -0.028 A 
ATOM     12  C   UNL     1      -6.217  -1.294  -0.744  0.00  0.00    +0.005 A 
ATOM     13  C   UNL     1      -4.946  -0.221  -2.494  0.00  0.00    +0.005 A 
ATOM     14  C   UNL     1      -6.813  -2.128  -1.693  0.00  0.00    +0.000 A 
ATOM     15  C   UNL     1      -5.543  -1.056  -3.438  0.00  0.00    +0.000 A 
ATOM     16  C   UNL     1      -6.478  -2.008  -3.038  0.00  0.00    +0.000 A 
ENDBRANCH  10  11
ENDBRANCH   1  10
TORSDOF 2
ENDMDL
MODEL 4
REMARK VINA RESULT:    -5.135      1.599      2.757
REMARK INTER + INTRA:          -5.877
REMARK INTER:                  -5.815
REMARK INTRA:                  -0.062
REMARK UNBOUND:                -0.142
REMARK  Name = 1550473
REMARK  2 active torsions:
REMARK  status: ('A' for Active; 'I' for Inactive)
REMARK    1  A    between atoms: N_1  and  C_4
REMARK    2  A    between atoms: C_4  and  C_5
REMARK                            x       y       z     vdW  Elec       q    Type
REMARK                         _______ _______ _______ _____ _____    ______ ____
ROOT
ATOM      1  N   UNL     1      -4.782  -0.845   1.353  0.00  0.00    -0.354 N 
ATOM      2  N   UNL     1      -3.503  -0.569   3.264  0.00  0.00    -0.372 N 
ATOM      3  N   UNL     1      -2.653  -1.808   1.530  0.00  0.00    -0.372 N 
ATOM      4  C   UNL     1      -3.653  -1.078   2.035  0.00  0.00    +0.166 C 
ATOM      5  H   UNL     1      -5.515  -0.309   1.804  0.00  0.00    +0.163 HD
ATOM      6  H   UNL     1      -2.660  -0.725   3.801  0.00  0.00    +0.159 HD
ATOM      7  H   UNL     1      -4.218   0.005   3.693  0.00  0.00    +0.159 HD
ATOM      8  H   UNL     1      -2.707  -2.226   0.610  0.00  0.00    +0.159 HD
ATOM      9  H   UNL     1      -1.807  -1.985   2.056  0.00  0.00    +0.159 HD
ENDROOT
BRANCH   1  10
ATOM     10  C   UNL     1      -5.023  -1.309  -0.012  0.00  0.00    +0.151 C 
BRANCH  10  11
ATOM     11  C   UNL     1      -4.846  -0.155  -0.961  0.00  0.00    -0.028 A 
ATOM     12  C   UNL     1      -5.085  -0.319  -2.333  0.00  0.00    +0.005 A 
ATOM     13  C   UNL     1      -4.444   1.105  -0.493  0.00  0.00    +0.005 A 
ATOM     14  C   UNL     1      -4.950   0.760  -3.211  0.00  0.00    +0.000 A 
ATOM     15  C   UNL     1      -4.309   2.179  -1.372  0.00  0.00    +0.000 A 
ATOM     16  C   UNL     1      -4.564   2.007  -2.731  0.00  0.00    +0.000 A 
ENDBRANCH  10  11
ENDBRANCH   1  10
TORSDOF 2
ENDMDL
MODEL 5
REMARK VINA RESULT:    -5.106      3.123      4.246
REMARK INTER + INTRA:          -5.845
REMARK INTER:                  -5.740
REMARK INTRA:                  -0.105
REMARK UNBOUND:                -0.142
REMARK  Name = 1550473
REMARK  2 active torsions:
REMARK  status: ('A' for Active; 'I' for Inactive)
REMARK    1  A    between atoms: N_1  and  C_4
REMARK    2  A    between atoms: C_4  and  C_5
REMARK                            x       y       z     vdW  Elec       q    Type
REMARK                         _______ _______ _______ _____ _____    ______ ____
ROOT
ATOM      1  N   UNL     1      -7.306  -2.166   2.379  0.00  0.00    -0.354 N 
ATOM      2  N   UNL     1      -8.999  -1.800   3.915  0.00  0.00    -0.372 N 
ATOM      3  N   UNL     1      -9.333  -3.333   2.241  0.00  0.00    -0.372 N 
ATOM      4  C   UNL     1      -8.536  -2.437   2.833  0.00  0.00    +0.166 C 
ATOM      5  H   UNL     1      -6.763  -1.454   2.854  0.00  0.00    +0.163 HD
ATOM      6  H   UNL     1      -9.923  -1.986   4.283  0.00  0.00    +0.159 HD
ATOM      7  H   UNL     1      -8.437  -1.122   4.416  0.00  0.00    +0.159 HD
ATOM      8  H   UNL     1      -9.045  -3.843   1.417  0.00  0.00    +0.159 HD
ATOM      9  H   UNL     1     -10.265  -3.524   2.587  0.00  0.00    +0.159 HD
ENDROOT
BRANCH   1  10
ATOM     10  C   UNL     1      -6.687  -2.842   1.240  0.00  0.00    +0.151 C 
BRANCH  10  11
ATOM     11  C   UNL     1      -5.838  -1.857   0.485  0.00  0.00    -0.028 A 
ATOM     12  C   UNL     1      -6.169  -1.492  -0.828  0.00  0.00    +0.005 A 
ATOM     13  C   UNL     1      -4.705  -1.280   1.079  0.00  0.00    +0.005 A 
ATOM     14  C   UNL     1      -5.399  -0.554  -1.520  0.00  0.00    +0.000 A 
ATOM     15  C   UNL     1      -3.938  -0.345   0.385  0.00  0.00    +0.000 A 
ATOM     16  C   UNL     1      -4.286   0.020  -0.913  0.00  0.00    +0.000 A 
ENDBRANCH  10  11
ENDBRANCH   1  10
TORSDOF 2
ENDMDL
MODEL 6
REMARK VINA RESULT:    -4.865     16.165     17.237
REMARK INTER + INTRA:          -5.576
REMARK INTER:                  -5.428
REMARK INTRA:                  -0.147
REMARK UNBOUND:                -0.142
REMARK  Name = 1550473
REMARK  2 active torsions:
REMARK  status: ('A' for Active; 'I' for Inactive)
REMARK    1  A    between atoms: N_1  and  C_4
REMARK    2  A    between atoms: C_4  and  C_5
REMARK                            x       y       z     vdW  Elec       q    Type
REMARK                         _______ _______ _______ _____ _____    ______ ____
ROOT
ATOM      1  N   UNL     1      -0.442   2.363  16.373  0.00  0.00    -0.354 N 
ATOM      2  N   UNL     1      -1.673   3.448  14.739  0.00  0.00    -0.372 N 
ATOM      3  N   UNL     1      -2.204   1.280  15.271  0.00  0.00    -0.372 N 
ATOM      4  C   UNL     1      -1.433   2.354  15.472  0.00  0.00    +0.166 C 
ATOM      5  H   UNL     1       0.126   3.199  16.456  0.00  0.00    +0.163 HD
ATOM      6  H   UNL     1      -2.416   3.473  14.054  0.00  0.00    +0.159 HD
ATOM      7  H   UNL     1      -1.134   4.297  14.856  0.00  0.00    +0.159 HD
ATOM      8  H   UNL     1      -2.070   0.421  15.787  0.00  0.00    +0.159 HD
ATOM      9  H   UNL     1      -2.945   1.281  14.581  0.00  0.00    +0.159 HD
ENDROOT
BRANCH   1  10
ATOM     10  C   UNL     1      -0.132   1.242  17.259  0.00  0.00    +0.151 C 
BRANCH  10  11
ATOM     11  C   UNL     1       0.903   0.370  16.604  0.00  0.00    -0.028 A 
ATOM     12  C   UNL     1       0.555  -0.893  16.103  0.00  0.00    +0.005 A 
ATOM     13  C   UNL     1       2.231   0.803  16.476  0.00  0.00    +0.005 A 
ATOM     14  C   UNL     1       1.510  -1.692  15.468  0.00  0.00    +0.000 A 
ATOM     15  C   UNL     1       3.181   0.003  15.841  0.00  0.00    +0.000 A 
ATOM     16  C   UNL     1       2.820  -1.243  15.335  0.00  0.00    +0.000 A 
ENDBRANCH  10  11
ENDBRANCH   1  10
TORSDOF 2
ENDMDL
MODEL 7
REMARK VINA RESULT:    -4.805      1.744      2.477
REMARK INTER + INTRA:          -5.509
REMARK INTER:                  -5.406
REMARK INTRA:                  -0.103
REMARK UNBOUND:                -0.142
REMARK  Name = 1550473
REMARK  2 active torsions:
REMARK  status: ('A' for Active; 'I' for Inactive)
REMARK    1  A    between atoms: N_1  and  C_4
REMARK    2  A    between atoms: C_4  and  C_5
REMARK                            x       y       z     vdW  Elec       q    Type
REMARK                         _______ _______ _______ _____ _____    ______ ____
ROOT
ATOM      1  N   UNL     1      -4.054  -0.007   0.456  0.00  0.00    -0.354 N 
ATOM      2  N   UNL     1      -2.680  -1.057   1.997  0.00  0.00    -0.372 N 
ATOM      3  N   UNL     1      -4.943  -1.017   2.374  0.00  0.00    -0.372 N 
ATOM      4  C   UNL     1      -3.904  -0.687   1.600  0.00  0.00    +0.166 C 
ATOM      5  H   UNL     1      -3.224   0.239  -0.071  0.00  0.00    +0.163 HD
ATOM      6  H   UNL     1      -2.536  -1.574   2.854  0.00  0.00    +0.159 HD
ATOM      7  H   UNL     1      -1.857  -0.850   1.445  0.00  0.00    +0.159 HD
ATOM      8  H   UNL     1      -5.892  -0.762   2.135  0.00  0.00    +0.159 HD
ATOM      9  H   UNL     1      -4.818  -1.524   3.242  0.00  0.00    +0.159 HD
ENDROOT
BRANCH   1  10
ATOM     10  C   UNL     1      -5.348   0.396  -0.092  0.00  0.00    +0.151 C 
BRANCH  10  11
ATOM     11  C   UNL     1      -5.256   0.434  -1.593  0.00  0.00    -0.028 A 
ATOM     12  C   UNL     1      -4.978   1.637  -2.258  0.00  0.00    +0.005 A 
ATOM     13  C   UNL     1      -5.440  -0.730  -2.354  0.00  0.00    +0.005 A 
ATOM     14  C   UNL     1      -4.862   1.668  -3.650  0.00  0.00    +0.000 A 
ATOM     15  C   UNL     1      -5.324  -0.695  -3.744  0.00  0.00    +0.000 A 
ATOM     16  C   UNL     1      -5.033   0.503  -4.391  0.00  0.00    +0.000 A 
ENDBRANCH  10  11
ENDBRANCH   1  10
TORSDOF 2
ENDMDL
MODEL 8
REMARK VINA RESULT:    -4.736     16.067     17.240
REMARK INTER + INTRA:          -5.431
REMARK INTER:                  -5.259
REMARK INTRA:                  -0.172
REMARK UNBOUND:                -0.142
REMARK  Name = 1550473
REMARK  2 active torsions:
REMARK  status: ('A' for Active; 'I' for Inactive)
REMARK    1  A    between atoms: N_1  and  C_4
REMARK    2  A    between atoms: C_4  and  C_5
REMARK                            x       y       z     vdW  Elec       q    Type
REMARK                         _______ _______ _______ _____ _____    ______ ____
ROOT
ATOM      1  N   UNL     1      -1.100   0.859  15.034  0.00  0.00    -0.354 N 
ATOM      2  N   UNL     1      -0.736   3.138  14.844  0.00  0.00    -0.372 N 
ATOM      3  N   UNL     1      -1.393   2.286  16.870  0.00  0.00    -0.372 N 
ATOM      4  C   UNL     1      -1.080   2.079  15.587  0.00  0.00    +0.166 C 
ATOM      5  H   UNL     1      -0.881   0.773  14.048  0.00  0.00    +0.163 HD
ATOM      6  H   UNL     1      -0.709   4.071  15.234  0.00  0.00    +0.159 HD
ATOM      7  H   UNL     1      -0.474   3.044  13.870  0.00  0.00    +0.159 HD
ATOM      8  H   UNL     1      -1.667   1.529  17.483  0.00  0.00    +0.159 HD
ATOM      9  H   UNL     1      -1.383   3.213  17.276  0.00  0.00    +0.159 HD
ENDROOT
BRANCH   1  10
ATOM     10  C   UNL     1      -1.408  -0.366  15.770  0.00  0.00    +0.151 C 
BRANCH  10  11
ATOM     11  C   UNL     1      -0.123  -1.007  16.216  0.00  0.00    -0.028 A 
ATOM     12  C   UNL     1       0.945  -1.161  15.320  0.00  0.00    +0.005 A 
ATOM     13  C   UNL     1       0.034  -1.458  17.536  0.00  0.00    +0.005 A 
ATOM     14  C   UNL     1       2.149  -1.729  15.743  0.00  0.00    +0.000 A 
ATOM     15  C   UNL     1       1.238  -2.025  17.954  0.00  0.00    +0.000 A 
ATOM     16  C   UNL     1       2.296  -2.158  17.058  0.00  0.00    +0.000 A 
ENDBRANCH  10  11
ENDBRANCH   1  10
TORSDOF 2
ENDMDL
MODEL 9
REMARK VINA RESULT:    -4.425     19.762     21.998
REMARK INTER + INTRA:          -5.084
REMARK INTER:                  -4.947
REMARK INTRA:                  -0.136
REMARK UNBOUND:                -0.142
REMARK  Name = 1550473
REMARK  2 active torsions:
REMARK  status: ('A' for Active; 'I' for Inactive)
REMARK    1  A    between atoms: N_1  and  C_4
REMARK    2  A    between atoms: C_4  and  C_5
REMARK                            x       y       z     vdW  Elec       q    Type
REMARK                         _______ _______ _______ _____ _____    ______ ____
ROOT
ATOM      1  N   UNL     1       2.511  11.289  14.341  0.00  0.00    -0.354 N 
ATOM      2  N   UNL     1       0.900   9.975  13.320  0.00  0.00    -0.372 N 
ATOM      3  N   UNL     1       2.353  11.169  12.006  0.00  0.00    -0.372 N 
ATOM      4  C   UNL     1       1.933  10.821  13.227  0.00  0.00    +0.166 C 
ATOM      5  H   UNL     1       2.126  11.011  15.236  0.00  0.00    +0.163 HD
ATOM      6  H   UNL     1       0.446   9.603  12.497  0.00  0.00    +0.159 HD
ATOM      7  H   UNL     1       0.546   9.663  14.217  0.00  0.00    +0.159 HD
ATOM      8  H   UNL     1       3.124  11.808  11.867  0.00  0.00    +0.159 HD
ATOM      9  H   UNL     1       1.904  10.816  11.170  0.00  0.00    +0.159 HD
ENDROOT
BRANCH   1  10
ATOM     10  C   UNL     1       3.676  12.173  14.349  0.00  0.00    +0.151 C 
BRANCH  10  11
ATOM     11  C   UNL     1       3.272  13.513  14.897  0.00  0.00    -0.028 A 
ATOM     12  C   UNL     1       2.240  14.248  14.294  0.00  0.00    +0.005 A 
ATOM     13  C   UNL     1       3.913  14.052  16.023  0.00  0.00    +0.005 A 
ATOM     14  C   UNL     1       1.845  15.480  14.821  0.00  0.00    +0.000 A 
ATOM     15  C   UNL     1       3.516  15.283  16.546  0.00  0.00    +0.000 A 
ATOM     16  C   UNL     1       2.480  15.995  15.946  0.00  0.00    +0.000 A 
ENDBRANCH  10  11
ENDBRANCH   1  10
TORSDOF 2
ENDMDL
