MODEL 1
REMARK VINA RESULT:    -4.584      0.000      0.000
REMARK INTER + INTRA:          -5.248
REMARK INTER:                  -5.120
REMARK INTRA:                  -0.128
REMARK UNBOUND:                -0.128
REMARK  Name = 1550473
REMARK  2 active torsions:
REMARK  status: ('A' for Active; 'I' for Inactive)
REMARK    1  A    between atoms: N_1  and  C_4
REMARK    2  A    between atoms: C_4  and  C_5
REMARK                            x       y       z     vdW  Elec       q    Type
REMARK                         _______ _______ _______ _____ _____    ______ ____
ROOT
ATOM      1  N   UNL     1      -3.209   0.290  -0.310  0.00  0.00    -0.354 N 
ATOM      2  N   UNL     1      -2.844   2.166   0.998  0.00  0.00    -0.372 N 
ATOM      3  N   UNL     1      -1.745   0.220   1.518  0.00  0.00    -0.372 N 
ATOM      4  C   UNL     1      -2.600   0.878   0.728  0.00  0.00    +0.166 C 
ATOM      5  H   UNL     1      -3.869   0.835  -0.853  0.00  0.00    +0.163 HD
ATOM      6  H   UNL     1      -2.397   2.637   1.773  0.00  0.00    +0.159 HD
ATOM      7  H   UNL     1      -3.470   2.721   0.427  0.00  0.00    +0.159 HD
ATOM      8  H   UNL     1      -1.523  -0.755   1.372  0.00  0.00    +0.159 HD
ATOM      9  H   UNL     1      -1.297   0.672   2.306  0.00  0.00    +0.159 HD
ENDROOT
BRANCH   1  10
ATOM     10  C   UNL     1      -2.971  -1.093  -0.722  0.00  0.00    +0.151 C 
BRANCH  10  11
ATOM     11  C   UNL     1      -4.176  -1.598  -1.466  0.00  0.00    -0.028 A 
ATOM     12  C   UNL     1      -4.262  -2.943  -1.852  0.00  0.00    +0.005 A 
ATOM     13  C   UNL     1      -5.238  -0.737  -1.783  0.00  0.00    +0.005 A 
ATOM     14  C   UNL     1      -5.395  -3.420  -2.517  0.00  0.00    +0.000 A 
ATOM     15  C   UNL     1      -6.367  -1.216  -2.448  0.00  0.00    +0.000 A 
ATOM     16  C   UNL     1      -6.446  -2.558  -2.813  0.00  0.00    +0.000 A 
ENDBRANCH  10  11
ENDBRANCH   1  10
TORSDOF 2
ENDMDL
MODEL 2
REMARK VINA RESULT:    -4.455     12.349     13.169
REMARK INTER + INTRA:          -5.103
REMARK INTER:                  -4.963
REMARK INTRA:                  -0.140
REMARK UNBOUND:                -0.128
REMARK  Name = 1550473
REMARK  2 active torsions:
REMARK  status: ('A' for Active; 'I' for Inactive)
REMARK    1  A    between atoms: N_1  and  C_4
REMARK    2  A    between atoms: C_4  and  C_5
REMARK                            x       y       z     vdW  Elec       q    Type
REMARK                         _______ _______ _______ _____ _____    ______ ____
ROOT
ATOM      1  N   UNL     1      -0.470   0.463 -13.078  0.00  0.00    -0.354 N 
ATOM      2  N   UNL     1      -1.392   2.144 -14.377  0.00  0.00    -0.372 N 
ATOM      3  N   UNL     1      -0.226   0.459 -15.409  0.00  0.00    -0.372 N 
ATOM      4  C   UNL     1      -0.688   1.009 -14.282  0.00  0.00    +0.166 C 
ATOM      5  H   UNL     1      -0.822   0.946 -12.259  0.00  0.00    +0.163 HD
ATOM      6  H   UNL     1      -1.576   2.578 -15.272  0.00  0.00    +0.159 HD
ATOM      7  H   UNL     1      -1.781   2.600 -13.561  0.00  0.00    +0.159 HD
ATOM      8  H   UNL     1       0.317  -0.395 -15.405  0.00  0.00    +0.159 HD
ATOM      9  H   UNL     1      -0.390   0.884 -16.313  0.00  0.00    +0.159 HD
ENDROOT
BRANCH   1  10
ATOM     10  C   UNL     1       0.237  -0.799 -12.870  0.00  0.00    +0.151 C 
BRANCH  10  11
ATOM     11  C   UNL     1       1.203  -0.638 -11.728  0.00  0.00    -0.028 A 
ATOM     12  C   UNL     1       1.646   0.636 -11.345  0.00  0.00    +0.005 A 
ATOM     13  C   UNL     1       1.675  -1.756 -11.023  0.00  0.00    +0.005 A 
ATOM     14  C   UNL     1       2.520   0.789 -10.266  0.00  0.00    +0.000 A 
ATOM     15  C   UNL     1       2.548  -1.599  -9.946  0.00  0.00    +0.000 A 
ATOM     16  C   UNL     1       2.968  -0.327  -9.567  0.00  0.00    +0.000 A 
ENDBRANCH  10  11
ENDBRANCH   1  10
TORSDOF 2
ENDMDL
MODEL 3
REMARK VINA RESULT:    -4.307     13.104     13.463
REMARK INTER + INTRA:          -4.939
REMARK INTER:                  -4.819
REMARK INTRA:                  -0.120
REMARK UNBOUND:                -0.128
REMARK  Name = 1550473
REMARK  2 active torsions:
REMARK  status: ('A' for Active; 'I' for Inactive)
REMARK    1  A    between atoms: N_1  and  C_4
REMARK    2  A    between atoms: C_4  and  C_5
REMARK                            x       y       z     vdW  Elec       q    Type
REMARK                         _______ _______ _______ _____ _____    ______ ____
ROOT
ATOM      1  N   UNL     1       1.057  -0.602 -11.906  0.00  0.00    -0.354 N 
ATOM      2  N   UNL     1       1.891  -2.117 -10.365  0.00  0.00    -0.372 N 
ATOM      3  N   UNL     1       2.100   0.128  -9.938  0.00  0.00    -0.372 N 
ATOM      4  C   UNL     1       1.678  -0.851 -10.745  0.00  0.00    +0.166 C 
ATOM      5  H   UNL     1       0.789  -1.388 -12.487  0.00  0.00    +0.163 HD
ATOM      6  H   UNL     1       2.354  -2.335  -9.493  0.00  0.00    +0.159 HD
ATOM      7  H   UNL     1       1.581  -2.901 -10.926  0.00  0.00    +0.159 HD
ATOM      8  H   UNL     1       1.975   1.105 -10.170  0.00  0.00    +0.159 HD
ATOM      9  H   UNL     1       2.575  -0.070  -9.067  0.00  0.00    +0.159 HD
ENDROOT
BRANCH   1  10
ATOM     10  C   UNL     1       0.729   0.739 -12.386  0.00  0.00    +0.151 C 
BRANCH  10  11
ATOM     11  C   UNL     1       0.272   0.650 -13.816  0.00  0.00    -0.028 A 
ATOM     12  C   UNL     1       0.734  -0.379 -14.649  0.00  0.00    +0.005 A 
ATOM     13  C   UNL     1      -0.628   1.590 -14.343  0.00  0.00    +0.005 A 
ATOM     14  C   UNL     1       0.287  -0.480 -15.968  0.00  0.00    +0.000 A 
ATOM     15  C   UNL     1      -1.072   1.487 -15.661  0.00  0.00    +0.000 A 
ATOM     16  C   UNL     1      -0.616   0.450 -16.473  0.00  0.00    +0.000 A 
ENDBRANCH  10  11
ENDBRANCH   1  10
TORSDOF 2
ENDMDL
MODEL 4
REMARK VINA RESULT:    -4.276     11.722     12.851
REMARK INTER + INTRA:          -4.903
REMARK INTER:                  -4.784
REMARK INTRA:                  -0.119
REMARK UNBOUND:                -0.128
REMARK  Name = 1550473
REMARK  2 active torsions:
REMARK  status: ('A' for Active; 'I' for Inactive)
REMARK    1  A    between atoms: N_1  and  C_4
REMARK    2  A    between atoms: C_4  and  C_5
REMARK                            x       y       z     vdW  Elec       q    Type
REMARK                         _______ _______ _______ _____ _____    ______ ____
ROOT
ATOM      1  N   UNL     1       3.339  -0.938  -9.398  0.00  0.00    -0.354 N 
ATOM      2  N   UNL     1       1.457  -1.774 -10.457  0.00  0.00    -0.372 N 
ATOM      3  N   UNL     1       1.870   0.481 -10.547  0.00  0.00    -0.372 N 
ATOM      4  C   UNL     1       2.234  -0.735 -10.128  0.00  0.00    +0.166 C 
ATOM      5  H   UNL     1       3.543  -1.880  -9.085  0.00  0.00    +0.163 HD
ATOM      6  H   UNL     1       0.619  -1.653 -11.010  0.00  0.00    +0.159 HD
ATOM      7  H   UNL     1       1.688  -2.721 -10.182  0.00  0.00    +0.159 HD
ATOM      8  H   UNL     1       2.410   1.307 -10.327  0.00  0.00    +0.159 HD
ATOM      9  H   UNL     1       1.028   0.625 -11.091  0.00  0.00    +0.159 HD
ENDROOT
BRANCH   1  10
ATOM     10  C   UNL     1       4.281   0.118  -9.031  0.00  0.00    +0.151 C 
BRANCH  10  11
ATOM     11  C   UNL     1       5.526  -0.509  -8.466  0.00  0.00    -0.028 A 
ATOM     12  C   UNL     1       5.483  -1.793  -7.903  0.00  0.00    +0.005 A 
ATOM     13  C   UNL     1       6.752   0.173  -8.496  0.00  0.00    +0.005 A 
ATOM     14  C   UNL     1       6.645  -2.388  -7.405  0.00  0.00    +0.000 A 
ATOM     15  C   UNL     1       7.909  -0.424  -7.998  0.00  0.00    +0.000 A 
ATOM     16  C   UNL     1       7.856  -1.706  -7.454  0.00  0.00    +0.000 A 
ENDBRANCH  10  11
ENDBRANCH   1  10
TORSDOF 2
ENDMDL
MODEL 5
REMARK VINA RESULT:    -4.272      1.252      1.985
REMARK INTER + INTRA:          -4.899
REMARK INTER:                  -4.762
REMARK INTRA:                  -0.136
REMARK UNBOUND:                -0.128
REMARK  Name = 1550473
REMARK  2 active torsions:
REMARK  status: ('A' for Active; 'I' for Inactive)
REMARK    1  A    between atoms: N_1  and  C_4
REMARK    2  A    between atoms: C_4  and  C_5
REMARK                            x       y       z     vdW  Elec       q    Type
REMARK                         _______ _______ _______ _____ _____    ______ ____
ROOT
ATOM      1  N   UNL     1      -4.096   0.829   0.186  0.00  0.00    -0.354 N 
ATOM      2  N   UNL     1      -4.537   3.071   0.567  0.00  0.00    -0.372 N 
ATOM      3  N   UNL     1      -2.614   2.491  -0.543  0.00  0.00    -0.372 N 
ATOM      4  C   UNL     1      -3.743   2.116   0.066  0.00  0.00    +0.166 C 
ATOM      5  H   UNL     1      -4.950   0.609   0.685  0.00  0.00    +0.163 HD
ATOM      6  H   UNL     1      -4.299   4.050   0.489  0.00  0.00    +0.159 HD
ATOM      7  H   UNL     1      -5.413   2.850   1.025  0.00  0.00    +0.159 HD
ATOM      8  H   UNL     1      -1.969   1.819  -0.937  0.00  0.00    +0.159 HD
ATOM      9  H   UNL     1      -2.352   3.466  -0.621  0.00  0.00    +0.159 HD
ENDROOT
BRANCH   1  10
ATOM     10  C   UNL     1      -3.330  -0.284  -0.371  0.00  0.00    +0.151 C 
BRANCH  10  11
ATOM     11  C   UNL     1      -4.247  -1.153  -1.187  0.00  0.00    -0.028 A 
ATOM     12  C   UNL     1      -5.482  -0.661  -1.635  0.00  0.00    +0.005 A 
ATOM     13  C   UNL     1      -3.885  -2.467  -1.521  0.00  0.00    +0.005 A 
ATOM     14  C   UNL     1      -6.321  -1.457  -2.418  0.00  0.00    +0.000 A 
ATOM     15  C   UNL     1      -4.726  -3.259  -2.302  0.00  0.00    +0.000 A 
ATOM     16  C   UNL     1      -5.943  -2.753  -2.752  0.00  0.00    +0.000 A 
ENDBRANCH  10  11
ENDBRANCH   1  10
TORSDOF 2
ENDMDL
MODEL 6
REMARK VINA RESULT:    -4.117     16.941     19.564
REMARK INTER + INTRA:          -4.726
REMARK INTER:                  -4.563
REMARK INTRA:                  -0.163
REMARK UNBOUND:                -0.128
REMARK  Name = 1550473
REMARK  2 active torsions:
REMARK  status: ('A' for Active; 'I' for Inactive)
REMARK    1  A    between atoms: N_1  and  C_4
REMARK    2  A    between atoms: C_4  and  C_5
REMARK                            x       y       z     vdW  Elec       q    Type
REMARK                         _______ _______ _______ _____ _____    ______ ____
ROOT
ATOM      1  N   UNL     1      -2.471  11.808  10.800  0.00  0.00    -0.354 N 
ATOM      2  N   UNL     1      -1.071  10.745   9.291  0.00  0.00    -0.372 N 
ATOM      3  N   UNL     1      -0.760  12.980   9.709  0.00  0.00    -0.372 N 
ATOM      4  C   UNL     1      -1.442  11.854   9.943  0.00  0.00    +0.166 C 
ATOM      5  H   UNL     1      -2.967  10.930  10.910  0.00  0.00    +0.163 HD
ATOM      6  H   UNL     1      -0.297  10.748   8.641  0.00  0.00    +0.159 HD
ATOM      7  H   UNL     1      -1.539   9.859   9.438  0.00  0.00    +0.159 HD
ATOM      8  H   UNL     1      -0.994  13.852  10.164  0.00  0.00    +0.159 HD
ATOM      9  H   UNL     1       0.011  13.006   9.053  0.00  0.00    +0.159 HD
ENDROOT
BRANCH   1  10
ATOM     10  C   UNL     1      -2.921  12.946  11.599  0.00  0.00    +0.151 C 
BRANCH  10  11
ATOM     11  C   UNL     1      -2.467  12.757  13.021  0.00  0.00    -0.028 A 
ATOM     12  C   UNL     1      -1.160  13.097  13.401  0.00  0.00    +0.005 A 
ATOM     13  C   UNL     1      -3.340  12.245  13.992  0.00  0.00    +0.005 A 
ATOM     14  C   UNL     1      -0.747  12.950  14.728  0.00  0.00    +0.000 A 
ATOM     15  C   UNL     1      -2.923  12.099  15.315  0.00  0.00    +0.000 A 
ATOM     16  C   UNL     1      -1.628  12.454  15.683  0.00  0.00    +0.000 A 
ENDBRANCH  10  11
ENDBRANCH   1  10
TORSDOF 2
ENDMDL
MODEL 7
REMARK VINA RESULT:    -4.104     12.071     12.392
REMARK INTER + INTRA:          -4.712
REMARK INTER:                  -4.551
REMARK INTRA:                  -0.161
REMARK UNBOUND:                -0.128
REMARK  Name = 1550473
REMARK  2 active torsions:
REMARK  status: ('A' for Active; 'I' for Inactive)
REMARK    1  A    between atoms: N_1  and  C_4
REMARK    2  A    between atoms: C_4  and  C_5
REMARK                            x       y       z     vdW  Elec       q    Type
REMARK                         _______ _______ _______ _____ _____    ______ ____
ROOT
ATOM      1  N   UNL     1       2.191   0.897  -9.901  0.00  0.00    -0.354 N 
ATOM      2  N   UNL     1       3.146   2.988  -9.621  0.00  0.00    -0.372 N 
ATOM      3  N   UNL     1       4.503   1.208 -10.125  0.00  0.00    -0.372 N 
ATOM      4  C   UNL     1       3.276   1.683  -9.884  0.00  0.00    +0.166 C 
ATOM      5  H   UNL     1       1.293   1.312  -9.680  0.00  0.00    +0.163 HD
ATOM      6  H   UNL     1       3.946   3.606  -9.605  0.00  0.00    +0.159 HD
ATOM      7  H   UNL     1       2.242   3.409  -9.446  0.00  0.00    +0.159 HD
ATOM      8  H   UNL     1       4.669   0.231 -10.325  0.00  0.00    +0.159 HD
ATOM      9  H   UNL     1       5.317   1.809 -10.103  0.00  0.00    +0.159 HD
ENDROOT
BRANCH   1  10
ATOM     10  C   UNL     1       2.217  -0.527 -10.230  0.00  0.00    +0.151 C 
BRANCH  10  11
ATOM     11  C   UNL     1       1.649  -0.723 -11.608  0.00  0.00    -0.028 A 
ATOM     12  C   UNL     1       0.579   0.065 -12.056  0.00  0.00    +0.005 A 
ATOM     13  C   UNL     1       2.180  -1.693 -12.473  0.00  0.00    +0.005 A 
ATOM     14  C   UNL     1       0.071  -0.096 -13.348  0.00  0.00    +0.000 A 
ATOM     15  C   UNL     1       1.669  -1.851 -13.761  0.00  0.00    +0.000 A 
ATOM     16  C   UNL     1       0.616  -1.051 -14.199  0.00  0.00    +0.000 A 
ENDBRANCH  10  11
ENDBRANCH   1  10
TORSDOF 2
ENDMDL
MODEL 8
REMARK VINA RESULT:    -4.084     11.795     12.594
REMARK INTER + INTRA:          -4.689
REMARK INTER:                  -4.561
REMARK INTRA:                  -0.128
REMARK UNBOUND:                -0.128
REMARK  Name = 1550473
REMARK  2 active torsions:
REMARK  status: ('A' for Active; 'I' for Inactive)
REMARK    1  A    between atoms: N_1  and  C_4
REMARK    2  A    between atoms: C_4  and  C_5
REMARK                            x       y       z     vdW  Elec       q    Type
REMARK                         _______ _______ _______ _____ _____    ______ ____
ROOT
ATOM      1  N   UNL     1       1.068   0.004 -11.563  0.00  0.00    -0.354 N 
ATOM      2  N   UNL     1      -0.170   1.216 -13.101  0.00  0.00    -0.372 N 
ATOM      3  N   UNL     1       0.258  -1.000 -13.519  0.00  0.00    -0.372 N 
ATOM      4  C   UNL     1       0.394   0.063 -12.719  0.00  0.00    +0.166 C 
ATOM      5  H   UNL     1       1.161   0.853 -11.016  0.00  0.00    +0.163 HD
ATOM      6  H   UNL     1      -0.688   1.290 -13.966  0.00  0.00    +0.159 HD
ATOM      7  H   UNL     1      -0.115   2.050 -12.530  0.00  0.00    +0.159 HD
ATOM      8  H   UNL     1       0.664  -1.897 -13.291  0.00  0.00    +0.159 HD
ATOM      9  H   UNL     1      -0.247  -0.942 -14.395  0.00  0.00    +0.159 HD
ENDROOT
BRANCH   1  10
ATOM     10  C   UNL     1       1.673  -1.215 -11.030  0.00  0.00    +0.151 C 
BRANCH  10  11
ATOM     11  C   UNL     1       2.786  -0.842 -10.090  0.00  0.00    -0.028 A 
ATOM     12  C   UNL     1       3.459  -1.829  -9.355  0.00  0.00    +0.005 A 
ATOM     13  C   UNL     1       3.175   0.498  -9.934  0.00  0.00    +0.005 A 
ATOM     14  C   UNL     1       4.512  -1.485  -8.505  0.00  0.00    +0.000 A 
ATOM     15  C   UNL     1       4.227   0.836  -9.083  0.00  0.00    +0.000 A 
ATOM     16  C   UNL     1       4.897  -0.155  -8.370  0.00  0.00    +0.000 A 
ENDBRANCH  10  11
ENDBRANCH   1  10
TORSDOF 2
ENDMDL
MODEL 9
REMARK VINA RESULT:    -4.020     25.048     27.845
REMARK INTER + INTRA:          -4.618
REMARK INTER:                  -4.518
REMARK INTRA:                  -0.100
REMARK UNBOUND:                -0.128
REMARK  Name = 1550473
REMARK  2 active torsions:
REMARK  status: ('A' for Active; 'I' for Inactive)
REMARK    1  A    between atoms: N_1  and  C_4
REMARK    2  A    between atoms: C_4  and  C_5
REMARK                            x       y       z     vdW  Elec       q    Type
REMARK                         _______ _______ _______ _____ _____    ______ ____
ROOT
ATOM      1  N   UNL     1       7.386   3.141  22.075  0.00  0.00    -0.354 N 
ATOM      2  N   UNL     1       7.008   3.767  19.877  0.00  0.00    -0.372 N 
ATOM      3  N   UNL     1       5.898   4.874  21.553  0.00  0.00    -0.372 N 
ATOM      4  C   UNL     1       6.765   3.925  21.184  0.00  0.00    +0.166 C 
ATOM      5  H   UNL     1       8.009   2.419  21.730  0.00  0.00    +0.163 HD
ATOM      6  H   UNL     1       6.557   4.346  19.182  0.00  0.00    +0.159 HD
ATOM      7  H   UNL     1       7.666   3.076  19.538  0.00  0.00    +0.159 HD
ATOM      8  H   UNL     1       5.667   5.040  22.523  0.00  0.00    +0.159 HD
ATOM      9  H   UNL     1       5.428   5.456  20.871  0.00  0.00    +0.159 HD
ENDROOT
BRANCH   1  10
ATOM     10  C   UNL     1       7.232   3.267  23.523  0.00  0.00    +0.151 C 
BRANCH  10  11
ATOM     11  C   UNL     1       8.269   2.417  24.204  0.00  0.00    -0.028 A 
ATOM     12  C   UNL     1       8.342   1.040  23.945  0.00  0.00    +0.005 A 
ATOM     13  C   UNL     1       9.184   2.982  25.104  0.00  0.00    +0.005 A 
ATOM     14  C   UNL     1       9.324   0.255  24.554  0.00  0.00    +0.000 A 
ATOM     15  C   UNL     1      10.163   2.195  25.711  0.00  0.00    +0.000 A 
ATOM     16  C   UNL     1      10.234   0.832  25.433  0.00  0.00    +0.000 A 
ENDBRANCH  10  11
ENDBRANCH   1  10
TORSDOF 2
ENDMDL
