MODEL 1
REMARK VINA RESULT:    -5.105      0.000      0.000
REMARK INTER + INTRA:          -5.841
REMARK INTER:                  -5.702
REMARK INTRA:                  -0.140
REMARK UNBOUND:                -0.140
REMARK  Name = 1550473
REMARK  2 active torsions:
REMARK  status: ('A' for Active; 'I' for Inactive)
REMARK    1  A    between atoms: N_1  and  C_4
REMARK    2  A    between atoms: C_4  and  C_5
REMARK                            x       y       z     vdW  Elec       q    Type
REMARK                         _______ _______ _______ _____ _____    ______ ____
ROOT
ATOM      1  N   UNL     1     -15.637  -1.289 -17.248  0.00  0.00    -0.354 N 
ATOM      2  N   UNL     1     -16.617  -2.211 -15.362  0.00  0.00    -0.372 N 
ATOM      3  N   UNL     1     -17.784  -0.644 -16.566  0.00  0.00    -0.372 N 
ATOM      4  C   UNL     1     -16.675  -1.373 -16.405  0.00  0.00    +0.166 C 
ATOM      5  H   UNL     1     -14.813  -1.846 -17.053  0.00  0.00    +0.163 HD
ATOM      6  H   UNL     1     -17.386  -2.298 -14.712  0.00  0.00    +0.159 HD
ATOM      7  H   UNL     1     -15.810  -2.800 -15.197  0.00  0.00    +0.159 HD
ATOM      8  H   UNL     1     -17.889   0.011 -17.329  0.00  0.00    +0.159 HD
ATOM      9  H   UNL     1     -18.560  -0.709 -15.918  0.00  0.00    +0.159 HD
ENDROOT
BRANCH   1  10
ATOM     10  C   UNL     1     -15.621  -0.448 -18.443  0.00  0.00    +0.151 C 
BRANCH  10  11
ATOM     11  C   UNL     1     -15.068  -1.242 -19.595  0.00  0.00    -0.028 A 
ATOM     12  C   UNL     1     -14.928  -2.634 -19.497  0.00  0.00    +0.005 A 
ATOM     13  C   UNL     1     -14.689  -0.609 -20.788  0.00  0.00    +0.005 A 
ATOM     14  C   UNL     1     -14.443  -3.376 -20.577  0.00  0.00    +0.000 A 
ATOM     15  C   UNL     1     -14.204  -1.353 -21.864  0.00  0.00    +0.000 A 
ATOM     16  C   UNL     1     -14.083  -2.736 -21.759  0.00  0.00    +0.000 A 
ENDBRANCH  10  11
ENDBRANCH   1  10
TORSDOF 2
ENDMDL
MODEL 2
REMARK VINA RESULT:    -4.852     14.492     15.033
REMARK INTER + INTRA:          -5.559
REMARK INTER:                  -5.431
REMARK INTRA:                  -0.128
REMARK UNBOUND:                -0.140
REMARK  Name = 1550473
REMARK  2 active torsions:
REMARK  status: ('A' for Active; 'I' for Inactive)
REMARK    1  A    between atoms: N_1  and  C_4
REMARK    2  A    between atoms: C_4  and  C_5
REMARK                            x       y       z     vdW  Elec       q    Type
REMARK                         _______ _______ _______ _____ _____    ______ ____
ROOT
ATOM      1  N   UNL     1      -3.153   2.844 -16.829  0.00  0.00    -0.354 N 
ATOM      2  N   UNL     1      -5.384   2.379 -16.413  0.00  0.00    -0.372 N 
ATOM      3  N   UNL     1      -4.302   1.227 -18.077  0.00  0.00    -0.372 N 
ATOM      4  C   UNL     1      -4.265   2.151 -17.111  0.00  0.00    +0.166 C 
ATOM      5  H   UNL     1      -3.198   3.552 -16.105  0.00  0.00    +0.163 HD
ATOM      6  H   UNL     1      -6.237   1.869 -16.601  0.00  0.00    +0.159 HD
ATOM      7  H   UNL     1      -5.414   3.055 -15.659  0.00  0.00    +0.159 HD
ATOM      8  H   UNL     1      -3.493   1.013 -18.644  0.00  0.00    +0.159 HD
ATOM      9  H   UNL     1      -5.150   0.715 -18.288  0.00  0.00    +0.159 HD
ENDROOT
BRANCH   1  10
ATOM     10  C   UNL     1      -1.868   2.634 -17.493  0.00  0.00    +0.151 C 
BRANCH  10  11
ATOM     11  C   UNL     1      -0.795   2.479 -16.451  0.00  0.00    -0.028 A 
ATOM     12  C   UNL     1       0.222   1.527 -16.612  0.00  0.00    +0.005 A 
ATOM     13  C   UNL     1      -0.787   3.286 -15.302  0.00  0.00    +0.005 A 
ATOM     14  C   UNL     1       1.235   1.404 -15.659  0.00  0.00    +0.000 A 
ATOM     15  C   UNL     1       0.226   3.159 -14.352  0.00  0.00    +0.000 A 
ATOM     16  C   UNL     1       1.238   2.219 -14.532  0.00  0.00    +0.000 A 
ENDBRANCH  10  11
ENDBRANCH   1  10
TORSDOF 2
ENDMDL
MODEL 3
REMARK VINA RESULT:    -4.685     17.305     18.807
REMARK INTER + INTRA:          -5.373
REMARK INTER:                  -5.265
REMARK INTRA:                  -0.108
REMARK UNBOUND:                -0.140
REMARK  Name = 1550473
REMARK  2 active torsions:
REMARK  status: ('A' for Active; 'I' for Inactive)
REMARK    1  A    between atoms: N_1  and  C_4
REMARK    2  A    between atoms: C_4  and  C_5
REMARK                            x       y       z     vdW  Elec       q    Type
REMARK                         _______ _______ _______ _____ _____    ______ ____
ROOT
ATOM      1  N   UNL     1      -4.910 -17.802 -19.209  0.00  0.00    -0.354 N 
ATOM      2  N   UNL     1      -5.037 -19.132 -21.101  0.00  0.00    -0.372 N 
ATOM      3  N   UNL     1      -4.021 -17.080 -21.254  0.00  0.00    -0.372 N 
ATOM      4  C   UNL     1      -4.654 -17.993 -20.510  0.00  0.00    +0.166 C 
ATOM      5  H   UNL     1      -5.420 -18.520 -18.708  0.00  0.00    +0.163 HD
ATOM      6  H   UNL     1      -4.854 -19.306 -22.080  0.00  0.00    +0.159 HD
ATOM      7  H   UNL     1      -5.506 -19.868 -20.587  0.00  0.00    +0.159 HD
ATOM      8  H   UNL     1      -3.712 -16.197 -20.869  0.00  0.00    +0.159 HD
ATOM      9  H   UNL     1      -3.840 -17.231 -22.239  0.00  0.00    +0.159 HD
ENDROOT
BRANCH   1  10
ATOM     10  C   UNL     1      -4.489 -16.621 -18.458  0.00  0.00    +0.151 C 
BRANCH  10  11
ATOM     11  C   UNL     1      -5.497 -16.339 -17.379  0.00  0.00    -0.028 A 
ATOM     12  C   UNL     1      -6.059 -15.061 -17.245  0.00  0.00    +0.005 A 
ATOM     13  C   UNL     1      -5.898 -17.348 -16.490  0.00  0.00    +0.005 A 
ATOM     14  C   UNL     1      -7.018 -14.807 -16.261  0.00  0.00    +0.000 A 
ATOM     15  C   UNL     1      -6.855 -17.090 -15.508  0.00  0.00    +0.000 A 
ATOM     16  C   UNL     1      -7.416 -15.820 -15.396  0.00  0.00    +0.000 A 
ENDBRANCH  10  11
ENDBRANCH   1  10
TORSDOF 2
ENDMDL
MODEL 4
REMARK VINA RESULT:    -4.645      1.571      2.341
REMARK INTER + INTRA:          -5.328
REMARK INTER:                  -5.198
REMARK INTRA:                  -0.130
REMARK UNBOUND:                -0.140
REMARK  Name = 1550473
REMARK  2 active torsions:
REMARK  status: ('A' for Active; 'I' for Inactive)
REMARK    1  A    between atoms: N_1  and  C_4
REMARK    2  A    between atoms: C_4  and  C_5
REMARK                            x       y       z     vdW  Elec       q    Type
REMARK                         _______ _______ _______ _____ _____    ______ ____
ROOT
ATOM      1  N   UNL     1     -15.156   0.201 -17.445  0.00  0.00    -0.354 N 
ATOM      2  N   UNL     1     -15.130   2.228 -16.325  0.00  0.00    -0.372 N 
ATOM      3  N   UNL     1     -17.067   0.998 -16.348  0.00  0.00    -0.372 N 
ATOM      4  C   UNL     1     -15.787   1.128 -16.713  0.00  0.00    +0.166 C 
ATOM      5  H   UNL     1     -14.194   0.373 -17.715  0.00  0.00    +0.163 HD
ATOM      6  H   UNL     1     -15.579   2.943 -15.769  0.00  0.00    +0.159 HD
ATOM      7  H   UNL     1     -14.155   2.376 -16.557  0.00  0.00    +0.159 HD
ATOM      8  H   UNL     1     -17.620   0.194 -16.614  0.00  0.00    +0.159 HD
ATOM      9  H   UNL     1     -17.537   1.708 -15.802  0.00  0.00    +0.159 HD
ENDROOT
BRANCH   1  10
ATOM     10  C   UNL     1     -15.765  -1.057 -17.874  0.00  0.00    +0.151 C 
BRANCH  10  11
ATOM     11  C   UNL     1     -15.222  -1.431 -19.225  0.00  0.00    -0.028 A 
ATOM     12  C   UNL     1     -14.955  -0.442 -20.183  0.00  0.00    +0.005 A 
ATOM     13  C   UNL     1     -14.967  -2.772 -19.552  0.00  0.00    +0.005 A 
ATOM     14  C   UNL     1     -14.422  -0.786 -21.428  0.00  0.00    +0.000 A 
ATOM     15  C   UNL     1     -14.436  -3.111 -20.796  0.00  0.00    +0.000 A 
ATOM     16  C   UNL     1     -14.162  -2.118 -21.733  0.00  0.00    +0.000 A 
ENDBRANCH  10  11
ENDBRANCH   1  10
TORSDOF 2
ENDMDL
MODEL 5
REMARK VINA RESULT:    -4.541      6.699     10.092
REMARK INTER + INTRA:          -5.212
REMARK INTER:                  -5.087
REMARK INTRA:                  -0.126
REMARK UNBOUND:                -0.140
REMARK  Name = 1550473
REMARK  2 active torsions:
REMARK  status: ('A' for Active; 'I' for Inactive)
REMARK    1  A    between atoms: N_1  and  C_4
REMARK    2  A    between atoms: C_4  and  C_5
REMARK                            x       y       z     vdW  Elec       q    Type
REMARK                         _______ _______ _______ _____ _____    ______ ____
ROOT
ATOM      1  N   UNL     1     -17.813  -2.084 -12.028  0.00  0.00    -0.354 N 
ATOM      2  N   UNL     1     -16.675  -2.116 -14.045  0.00  0.00    -0.372 N 
ATOM      3  N   UNL     1     -15.913  -3.424 -12.321  0.00  0.00    -0.372 N 
ATOM      4  C   UNL     1     -16.806  -2.543 -12.783  0.00  0.00    +0.166 C 
ATOM      5  H   UNL     1     -18.439  -1.394 -12.427  0.00  0.00    +0.163 HD
ATOM      6  H   UNL     1     -15.928  -2.448 -14.640  0.00  0.00    +0.159 HD
ATOM      7  H   UNL     1     -17.329  -1.462 -14.457  0.00  0.00    +0.159 HD
ATOM      8  H   UNL     1     -15.952  -3.781 -11.375  0.00  0.00    +0.159 HD
ATOM      9  H   UNL     1     -15.151  -3.759 -12.897  0.00  0.00    +0.159 HD
ENDROOT
BRANCH   1  10
ATOM     10  C   UNL     1     -18.075  -2.526 -10.659  0.00  0.00    +0.151 C 
BRANCH  10  11
ATOM     11  C   UNL     1     -18.889  -1.477  -9.952  0.00  0.00    -0.028 A 
ATOM     12  C   UNL     1     -19.653  -1.810  -8.824  0.00  0.00    +0.005 A 
ATOM     13  C   UNL     1     -18.897  -0.148 -10.403  0.00  0.00    +0.005 A 
ATOM     14  C   UNL     1     -20.386  -0.830  -8.150  0.00  0.00    +0.000 A 
ATOM     15  C   UNL     1     -19.630   0.827  -9.727  0.00  0.00    +0.000 A 
ATOM     16  C   UNL     1     -20.373   0.486  -8.599  0.00  0.00    +0.000 A 
ENDBRANCH  10  11
ENDBRANCH   1  10
TORSDOF 2
ENDMDL
MODEL 6
REMARK VINA RESULT:    -4.391     23.752     25.483
REMARK INTER + INTRA:          -5.044
REMARK INTER:                  -4.930
REMARK INTRA:                  -0.114
REMARK UNBOUND:                -0.140
REMARK  Name = 1550473
REMARK  2 active torsions:
REMARK  status: ('A' for Active; 'I' for Inactive)
REMARK    1  A    between atoms: N_1  and  C_4
REMARK    2  A    between atoms: C_4  and  C_5
REMARK                            x       y       z     vdW  Elec       q    Type
REMARK                         _______ _______ _______ _____ _____    ______ ____
ROOT
ATOM      1  N   UNL     1     -12.640   1.017   7.654  0.00  0.00    -0.354 N 
ATOM      2  N   UNL     1     -10.898   0.913   9.176  0.00  0.00    -0.372 N 
ATOM      3  N   UNL     1     -11.581  -1.016   8.138  0.00  0.00    -0.372 N 
ATOM      4  C   UNL     1     -11.718   0.302   8.312  0.00  0.00    +0.166 C 
ATOM      5  H   UNL     1     -12.714   2.008   7.853  0.00  0.00    +0.163 HD
ATOM      6  H   UNL     1     -10.190   0.400   9.685  0.00  0.00    +0.159 HD
ATOM      7  H   UNL     1     -10.943   1.911   9.339  0.00  0.00    +0.159 HD
ATOM      8  H   UNL     1     -12.173  -1.537   7.505  0.00  0.00    +0.159 HD
ATOM      9  H   UNL     1     -10.886  -1.549   8.647  0.00  0.00    +0.159 HD
ENDROOT
BRANCH   1  10
ATOM     10  C   UNL     1     -13.546   0.458   6.652  0.00  0.00    +0.151 C 
BRANCH  10  11
ATOM     11  C   UNL     1     -13.714   1.449   5.533  0.00  0.00    -0.028 A 
ATOM     12  C   UNL     1     -13.987   2.796   5.811  0.00  0.00    +0.005 A 
ATOM     13  C   UNL     1     -13.594   1.048   4.194  0.00  0.00    +0.005 A 
ATOM     14  C   UNL     1     -14.112   3.723   4.773  0.00  0.00    +0.000 A 
ATOM     15  C   UNL     1     -13.721   1.976   3.160  0.00  0.00    +0.000 A 
ATOM     16  C   UNL     1     -13.978   3.314   3.450  0.00  0.00    +0.000 A 
ENDBRANCH  10  11
ENDBRANCH   1  10
TORSDOF 2
ENDMDL
MODEL 7
REMARK VINA RESULT:    -4.288     45.526     47.390
REMARK INTER + INTRA:          -4.929
REMARK INTER:                  -4.767
REMARK INTRA:                  -0.162
REMARK UNBOUND:                -0.140
REMARK  Name = 1550473
REMARK  2 active torsions:
REMARK  status: ('A' for Active; 'I' for Inactive)
REMARK    1  A    between atoms: N_1  and  C_4
REMARK    2  A    between atoms: C_4  and  C_5
REMARK                            x       y       z     vdW  Elec       q    Type
REMARK                         _______ _______ _______ _____ _____    ______ ____
ROOT
ATOM      1  N   UNL     1       8.066  10.993  18.994  0.00  0.00    -0.354 N 
ATOM      2  N   UNL     1       9.159   9.053  18.358  0.00  0.00    -0.372 N 
ATOM      3  N   UNL     1       6.870   9.133  18.217  0.00  0.00    -0.372 N 
ATOM      4  C   UNL     1       8.022   9.738  18.527  0.00  0.00    +0.166 C 
ATOM      5  H   UNL     1       8.969  11.384  19.239  0.00  0.00    +0.163 HD
ATOM      6  H   UNL     1       9.157   8.106  18.004  0.00  0.00    +0.159 HD
ATOM      7  H   UNL     1      10.063   9.462  18.560  0.00  0.00    +0.159 HD
ATOM      8  H   UNL     1       5.977   9.594  18.328  0.00  0.00    +0.159 HD
ATOM      9  H   UNL     1       6.847   8.182  17.873  0.00  0.00    +0.159 HD
ENDROOT
BRANCH   1  10
ATOM     10  C   UNL     1       6.890  11.844  19.164  0.00  0.00    +0.151 C 
BRANCH  10  11
ATOM     11  C   UNL     1       6.620  12.023  20.632  0.00  0.00    -0.028 A 
ATOM     12  C   UNL     1       6.920  13.236  21.269  0.00  0.00    +0.005 A 
ATOM     13  C   UNL     1       6.060  10.984  21.392  0.00  0.00    +0.005 A 
ATOM     14  C   UNL     1       6.643  13.413  22.627  0.00  0.00    +0.000 A 
ATOM     15  C   UNL     1       5.785  11.165  22.747  0.00  0.00    +0.000 A 
ATOM     16  C   UNL     1       6.074  12.380  23.364  0.00  0.00    +0.000 A 
ENDBRANCH  10  11
ENDBRANCH   1  10
TORSDOF 2
ENDMDL
MODEL 8
REMARK VINA RESULT:    -4.242     47.680     49.946
REMARK INTER + INTRA:          -4.878
REMARK INTER:                  -4.722
REMARK INTRA:                  -0.156
REMARK UNBOUND:                -0.140
REMARK  Name = 1550473
REMARK  2 active torsions:
REMARK  status: ('A' for Active; 'I' for Inactive)
REMARK    1  A    between atoms: N_1  and  C_4
REMARK    2  A    between atoms: C_4  and  C_5
REMARK                            x       y       z     vdW  Elec       q    Type
REMARK                         _______ _______ _______ _____ _____    ______ ____
ROOT
ATOM      1  N   UNL     1      -2.567  12.696  26.114  0.00  0.00    -0.354 N 
ATOM      2  N   UNL     1      -4.476  11.988  25.009  0.00  0.00    -0.372 N 
ATOM      3  N   UNL     1      -2.497  12.086  23.852  0.00  0.00    -0.372 N 
ATOM      4  C   UNL     1      -3.166  12.261  24.997  0.00  0.00    +0.166 C 
ATOM      5  H   UNL     1      -3.136  12.836  26.941  0.00  0.00    +0.163 HD
ATOM      6  H   UNL     1      -4.954  11.656  24.182  0.00  0.00    +0.159 HD
ATOM      7  H   UNL     1      -5.033  12.086  25.849  0.00  0.00    +0.159 HD
ATOM      8  H   UNL     1      -1.508  12.280  23.775  0.00  0.00    +0.159 HD
ATOM      9  H   UNL     1      -2.961  11.766  23.011  0.00  0.00    +0.159 HD
ENDROOT
BRANCH   1  10
ATOM     10  C   UNL     1      -1.136  12.970  26.220  0.00  0.00    +0.151 C 
BRANCH  10  11
ATOM     11  C   UNL     1      -0.539  12.069  27.266  0.00  0.00    -0.028 A 
ATOM     12  C   UNL     1      -0.152  12.584  28.512  0.00  0.00    +0.005 A 
ATOM     13  C   UNL     1      -0.364  10.699  27.020  0.00  0.00    +0.005 A 
ATOM     14  C   UNL     1       0.374  11.742  29.495  0.00  0.00    +0.000 A 
ATOM     15  C   UNL     1       0.162   9.862  28.003  0.00  0.00    +0.000 A 
ATOM     16  C   UNL     1       0.529  10.383  29.242  0.00  0.00    +0.000 A 
ENDBRANCH  10  11
ENDBRANCH   1  10
TORSDOF 2
ENDMDL
MODEL 9
REMARK VINA RESULT:    -4.219     45.549     47.439
REMARK INTER + INTRA:          -4.852
REMARK INTER:                  -4.724
REMARK INTRA:                  -0.128
REMARK UNBOUND:                -0.140
REMARK  Name = 1550473
REMARK  2 active torsions:
REMARK  status: ('A' for Active; 'I' for Inactive)
REMARK    1  A    between atoms: N_1  and  C_4
REMARK    2  A    between atoms: C_4  and  C_5
REMARK                            x       y       z     vdW  Elec       q    Type
REMARK                         _______ _______ _______ _____ _____    ______ ____
ROOT
ATOM      1  N   UNL     1       6.928   9.073  20.188  0.00  0.00    -0.354 N 
ATOM      2  N   UNL     1       6.922   7.881  18.202  0.00  0.00    -0.372 N 
ATOM      3  N   UNL     1       5.894   6.975  20.042  0.00  0.00    -0.372 N 
ATOM      4  C   UNL     1       6.580   7.982  19.492  0.00  0.00    +0.166 C 
ATOM      5  H   UNL     1       7.474   9.788  19.722  0.00  0.00    +0.163 HD
ATOM      6  H   UNL     1       6.671   7.072  17.650  0.00  0.00    +0.159 HD
ATOM      7  H   UNL     1       7.429   8.618  17.726  0.00  0.00    +0.159 HD
ATOM      8  H   UNL     1       5.610   6.987  21.012  0.00  0.00    +0.159 HD
ATOM      9  H   UNL     1       5.643   6.151  19.509  0.00  0.00    +0.159 HD
ENDROOT
BRANCH   1  10
ATOM     10  C   UNL     1       6.558   9.305  21.583  0.00  0.00    +0.151 C 
BRANCH  10  11
ATOM     11  C   UNL     1       6.553  10.784  21.850  0.00  0.00    -0.028 A 
ATOM     12  C   UNL     1       6.984  11.687  20.867  0.00  0.00    +0.005 A 
ATOM     13  C   UNL     1       6.112  11.291  23.083  0.00  0.00    +0.005 A 
ATOM     14  C   UNL     1       6.951  13.063  21.104  0.00  0.00    +0.000 A 
ATOM     15  C   UNL     1       6.082  12.666  23.316  0.00  0.00    +0.000 A 
ATOM     16  C   UNL     1       6.499  13.552  22.326  0.00  0.00    +0.000 A 
ENDBRANCH  10  11
ENDBRANCH   1  10
TORSDOF 2
ENDMDL
