MODEL 1
REMARK VINA RESULT:    -5.518      0.000      0.000
REMARK INTER + INTRA:          -6.346
REMARK INTER:                  -6.164
REMARK INTRA:                  -0.182
REMARK UNBOUND:                -0.182
REMARK  Name = 1550473
REMARK  2 active torsions:
REMARK  status: ('A' for Active; 'I' for Inactive)
REMARK    1  A    between atoms: N_1  and  C_4
REMARK    2  A    between atoms: C_4  and  C_5
REMARK                            x       y       z     vdW  Elec       q    Type
REMARK                         _______ _______ _______ _____ _____    ______ ____
ROOT
ATOM      1  N   UNL     1      -8.306   3.690 -14.158  0.00  0.00    -0.354 N 
ATOM      2  N   UNL     1      -8.153   1.448 -13.598  0.00  0.00    -0.372 N 
ATOM      3  N   UNL     1      -6.222   2.658 -13.870  0.00  0.00    -0.372 N 
ATOM      4  C   UNL     1      -7.558   2.614 -13.879  0.00  0.00    +0.166 C 
ATOM      5  H   UNL     1      -9.313   3.584 -14.178  0.00  0.00    +0.163 HD
ATOM      6  H   UNL     1      -7.615   0.620 -13.380  0.00  0.00    +0.159 HD
ATOM      7  H   UNL     1      -9.161   1.356 -13.574  0.00  0.00    +0.159 HD
ATOM      8  H   UNL     1      -5.712   3.506 -14.079  0.00  0.00    +0.159 HD
ATOM      9  H   UNL     1      -5.666   1.837 -13.666  0.00  0.00    +0.159 HD
ENDROOT
BRANCH   1  10
ATOM     10  C   UNL     1      -7.758   5.019 -14.425  0.00  0.00    +0.151 C 
BRANCH  10  11
ATOM     11  C   UNL     1      -7.804   5.832 -13.160  0.00  0.00    -0.028 A 
ATOM     12  C   UNL     1      -9.028   6.098 -12.529  0.00  0.00    +0.005 A 
ATOM     13  C   UNL     1      -6.627   6.336 -12.586  0.00  0.00    +0.005 A 
ATOM     14  C   UNL     1      -9.069   6.828 -11.338  0.00  0.00    +0.000 A 
ATOM     15  C   UNL     1      -6.672   7.065 -11.398  0.00  0.00    +0.000 A 
ATOM     16  C   UNL     1      -7.893   7.308 -10.773  0.00  0.00    +0.000 A 
ENDBRANCH  10  11
ENDBRANCH   1  10
TORSDOF 2
ENDMDL
MODEL 2
REMARK VINA RESULT:    -5.196      1.706      2.646
REMARK INTER + INTRA:          -5.986
REMARK INTER:                  -5.862
REMARK INTRA:                  -0.124
REMARK UNBOUND:                -0.182
REMARK  Name = 1550473
REMARK  2 active torsions:
REMARK  status: ('A' for Active; 'I' for Inactive)
REMARK    1  A    between atoms: N_1  and  C_4
REMARK    2  A    between atoms: C_4  and  C_5
REMARK                            x       y       z     vdW  Elec       q    Type
REMARK                         _______ _______ _______ _____ _____    ______ ____
ROOT
ATOM      1  N   UNL     1      -6.431   3.162 -13.998  0.00  0.00    -0.354 N 
ATOM      2  N   UNL     1      -7.977   1.521 -13.468  0.00  0.00    -0.372 N 
ATOM      3  N   UNL     1      -8.069   2.504 -15.539  0.00  0.00    -0.372 N 
ATOM      4  C   UNL     1      -7.484   2.407 -14.341  0.00  0.00    +0.166 C 
ATOM      5  H   UNL     1      -6.052   3.062 -13.063  0.00  0.00    +0.163 HD
ATOM      6  H   UNL     1      -8.768   0.935 -13.700  0.00  0.00    +0.159 HD
ATOM      7  H   UNL     1      -7.567   1.391 -12.551  0.00  0.00    +0.159 HD
ATOM      8  H   UNL     1      -7.748   3.158 -16.241  0.00  0.00    +0.159 HD
ATOM      9  H   UNL     1      -8.869   1.935 -15.786  0.00  0.00    +0.159 HD
ENDROOT
BRANCH   1  10
ATOM     10  C   UNL     1      -5.784   4.119 -14.894  0.00  0.00    +0.151 C 
BRANCH  10  11
ATOM     11  C   UNL     1      -5.908   5.499 -14.311  0.00  0.00    -0.028 A 
ATOM     12  C   UNL     1      -5.190   6.571 -14.861  0.00  0.00    +0.005 A 
ATOM     13  C   UNL     1      -6.746   5.743 -13.212  0.00  0.00    +0.005 A 
ATOM     14  C   UNL     1      -5.327   7.860 -14.339  0.00  0.00    +0.000 A 
ATOM     15  C   UNL     1      -6.880   7.031 -12.693  0.00  0.00    +0.000 A 
ATOM     16  C   UNL     1      -6.172   8.089 -13.258  0.00  0.00    +0.000 A 
ENDBRANCH  10  11
ENDBRANCH   1  10
TORSDOF 2
ENDMDL
MODEL 3
REMARK VINA RESULT:    -5.129      2.839      3.427
REMARK INTER + INTRA:          -5.911
REMARK INTER:                  -5.737
REMARK INTRA:                  -0.174
REMARK UNBOUND:                -0.182
REMARK  Name = 1550473
REMARK  2 active torsions:
REMARK  status: ('A' for Active; 'I' for Inactive)
REMARK    1  A    between atoms: N_1  and  C_4
REMARK    2  A    between atoms: C_4  and  C_5
REMARK                            x       y       z     vdW  Elec       q    Type
REMARK                         _______ _______ _______ _____ _____    ______ ____
ROOT
ATOM      1  N   UNL     1      -8.300   2.753 -15.356  0.00  0.00    -0.354 N 
ATOM      2  N   UNL     1      -8.289   1.641 -13.325  0.00  0.00    -0.372 N 
ATOM      3  N   UNL     1      -6.314   2.473 -14.144  0.00  0.00    -0.372 N 
ATOM      4  C   UNL     1      -7.632   2.297 -14.288  0.00  0.00    +0.166 C 
ATOM      5  H   UNL     1      -9.293   2.561 -15.420  0.00  0.00    +0.163 HD
ATOM      6  H   UNL     1      -7.812   1.287 -12.506  0.00  0.00    +0.159 HD
ATOM      7  H   UNL     1      -9.290   1.490 -13.370  0.00  0.00    +0.159 HD
ATOM      8  H   UNL     1      -5.759   2.955 -14.839  0.00  0.00    +0.159 HD
ATOM      9  H   UNL     1      -5.817   2.117 -13.337  0.00  0.00    +0.159 HD
ENDROOT
BRANCH   1  10
ATOM     10  C   UNL     1      -7.688   3.527 -16.435  0.00  0.00    +0.151 C 
BRANCH  10  11
ATOM     11  C   UNL     1      -8.140   4.957 -16.331  0.00  0.00    -0.028 A 
ATOM     12  C   UNL     1      -9.277   5.397 -17.024  0.00  0.00    +0.005 A 
ATOM     13  C   UNL     1      -7.438   5.877 -15.537  0.00  0.00    +0.005 A 
ATOM     14  C   UNL     1      -9.714   6.719 -16.904  0.00  0.00    +0.000 A 
ATOM     15  C   UNL     1      -7.877   7.196 -15.420  0.00  0.00    +0.000 A 
ATOM     16  C   UNL     1      -9.016   7.615 -16.102  0.00  0.00    +0.000 A 
ENDBRANCH  10  11
ENDBRANCH   1  10
TORSDOF 2
ENDMDL
MODEL 4
REMARK VINA RESULT:    -5.104      3.342      5.254
REMARK INTER + INTRA:          -5.883
REMARK INTER:                  -5.861
REMARK INTRA:                  -0.022
REMARK UNBOUND:                -0.182
REMARK  Name = 1550473
REMARK  2 active torsions:
REMARK  status: ('A' for Active; 'I' for Inactive)
REMARK    1  A    between atoms: N_1  and  C_4
REMARK    2  A    between atoms: C_4  and  C_5
REMARK                            x       y       z     vdW  Elec       q    Type
REMARK                         _______ _______ _______ _____ _____    ______ ____
ROOT
ATOM      1  N   UNL     1      -6.310   5.260 -14.038  0.00  0.00    -0.354 N 
ATOM      2  N   UNL     1      -5.250   7.269 -14.492  0.00  0.00    -0.372 N 
ATOM      3  N   UNL     1      -4.162   5.306 -14.972  0.00  0.00    -0.372 N 
ATOM      4  C   UNL     1      -5.246   5.930 -14.498  0.00  0.00    +0.166 C 
ATOM      5  H   UNL     1      -7.089   5.791 -13.664  0.00  0.00    +0.163 HD
ATOM      6  H   UNL     1      -4.462   7.801 -14.836  0.00  0.00    +0.159 HD
ATOM      7  H   UNL     1      -6.048   7.797 -14.160  0.00  0.00    +0.159 HD
ATOM      8  H   UNL     1      -4.093   4.298 -14.999  0.00  0.00    +0.159 HD
ATOM      9  H   UNL     1      -3.359   5.822 -15.310  0.00  0.00    +0.159 HD
ENDROOT
BRANCH   1  10
ATOM     10  C   UNL     1      -6.428   3.803 -14.051  0.00  0.00    +0.151 C 
BRANCH  10  11
ATOM     11  C   UNL     1      -7.349   3.394 -15.168  0.00  0.00    -0.028 A 
ATOM     12  C   UNL     1      -7.610   4.270 -16.232  0.00  0.00    +0.005 A 
ATOM     13  C   UNL     1      -7.958   2.131 -15.171  0.00  0.00    +0.005 A 
ATOM     14  C   UNL     1      -8.441   3.880 -17.284  0.00  0.00    +0.000 A 
ATOM     15  C   UNL     1      -8.788   1.745 -16.223  0.00  0.00    +0.000 A 
ATOM     16  C   UNL     1      -9.028   2.619 -17.281  0.00  0.00    +0.000 A 
ENDBRANCH  10  11
ENDBRANCH   1  10
TORSDOF 2
ENDMDL
MODEL 5
REMARK VINA RESULT:    -5.066      2.673      5.071
REMARK INTER + INTRA:          -5.841
REMARK INTER:                  -5.727
REMARK INTRA:                  -0.113
REMARK UNBOUND:                -0.182
REMARK  Name = 1550473
REMARK  2 active torsions:
REMARK  status: ('A' for Active; 'I' for Inactive)
REMARK    1  A    between atoms: N_1  and  C_4
REMARK    2  A    between atoms: C_4  and  C_5
REMARK                            x       y       z     vdW  Elec       q    Type
REMARK                         _______ _______ _______ _____ _____    ______ ____
ROOT
ATOM      1  N   UNL     1      -6.252   5.568 -13.255  0.00  0.00    -0.354 N 
ATOM      2  N   UNL     1      -6.810   7.127 -11.635  0.00  0.00    -0.372 N 
ATOM      3  N   UNL     1      -6.052   7.866 -13.671  0.00  0.00    -0.372 N 
ATOM      4  C   UNL     1      -6.367   6.845 -12.866  0.00  0.00    +0.166 C 
ATOM      5  H   UNL     1      -6.478   4.840 -12.588  0.00  0.00    +0.163 HD
ATOM      6  H   UNL     1      -6.910   8.081 -11.315  0.00  0.00    +0.159 HD
ATOM      7  H   UNL     1      -7.079   6.397 -10.986  0.00  0.00    +0.159 HD
ATOM      8  H   UNL     1      -5.706   7.721 -14.610  0.00  0.00    +0.159 HD
ATOM      9  H   UNL     1      -6.134   8.827 -13.364  0.00  0.00    +0.159 HD
ENDROOT
BRANCH   1  10
ATOM     10  C   UNL     1      -5.831   5.156 -14.593  0.00  0.00    +0.151 C 
BRANCH  10  11
ATOM     11  C   UNL     1      -6.723   4.042 -15.067  0.00  0.00    -0.028 A 
ATOM     12  C   UNL     1      -6.828   2.852 -14.332  0.00  0.00    +0.005 A 
ATOM     13  C   UNL     1      -7.470   4.172 -16.248  0.00  0.00    +0.005 A 
ATOM     14  C   UNL     1      -7.680   1.829 -14.756  0.00  0.00    +0.000 A 
ATOM     15  C   UNL     1      -8.318   3.148 -16.668  0.00  0.00    +0.000 A 
ATOM     16  C   UNL     1      -8.425   1.977 -15.921  0.00  0.00    +0.000 A 
ENDBRANCH  10  11
ENDBRANCH   1  10
TORSDOF 2
ENDMDL
MODEL 6
REMARK VINA RESULT:    -5.017     11.843     13.120
REMARK INTER + INTRA:          -5.786
REMARK INTER:                  -5.700
REMARK INTRA:                  -0.085
REMARK UNBOUND:                -0.182
REMARK  Name = 1550473
REMARK  2 active torsions:
REMARK  status: ('A' for Active; 'I' for Inactive)
REMARK    1  A    between atoms: N_1  and  C_4
REMARK    2  A    between atoms: C_4  and  C_5
REMARK                            x       y       z     vdW  Elec       q    Type
REMARK                         _______ _______ _______ _____ _____    ______ ____
ROOT
ATOM      1  N   UNL     1       3.578   4.175 -15.064  0.00  0.00    -0.354 N 
ATOM      2  N   UNL     1       3.029   6.310 -14.355  0.00  0.00    -0.372 N 
ATOM      3  N   UNL     1       5.187   5.877 -15.002  0.00  0.00    -0.372 N 
ATOM      4  C   UNL     1       3.938   5.440 -14.812  0.00  0.00    +0.166 C 
ATOM      5  H   UNL     1       2.622   3.899 -14.871  0.00  0.00    +0.163 HD
ATOM      6  H   UNL     1       3.270   7.272 -14.159  0.00  0.00    +0.159 HD
ATOM      7  H   UNL     1       2.064   6.043 -14.206  0.00  0.00    +0.159 HD
ATOM      8  H   UNL     1       5.922   5.269 -15.339  0.00  0.00    +0.159 HD
ATOM      9  H   UNL     1       5.451   6.834 -14.800  0.00  0.00    +0.159 HD
ENDROOT
BRANCH   1  10
ATOM     10  C   UNL     1       4.478   3.163 -15.615  0.00  0.00    +0.151 C 
BRANCH  10  11
ATOM     11  C   UNL     1       4.051   2.838 -17.019  0.00  0.00    -0.028 A 
ATOM     12  C   UNL     1       3.097   3.630 -17.675  0.00  0.00    +0.005 A 
ATOM     13  C   UNL     1       4.601   1.743 -17.703  0.00  0.00    +0.005 A 
ATOM     14  C   UNL     1       2.722   3.346 -18.990  0.00  0.00    +0.000 A 
ATOM     15  C   UNL     1       4.224   1.462 -19.016  0.00  0.00    +0.000 A 
ATOM     16  C   UNL     1       3.286   2.265 -19.660  0.00  0.00    +0.000 A 
ENDBRANCH  10  11
ENDBRANCH   1  10
TORSDOF 2
ENDMDL
MODEL 7
REMARK VINA RESULT:    -4.705      4.010      5.445
REMARK INTER + INTRA:          -5.437
REMARK INTER:                  -5.316
REMARK INTRA:                  -0.121
REMARK UNBOUND:                -0.182
REMARK  Name = 1550473
REMARK  2 active torsions:
REMARK  status: ('A' for Active; 'I' for Inactive)
REMARK    1  A    between atoms: N_1  and  C_4
REMARK    2  A    between atoms: C_4  and  C_5
REMARK                            x       y       z     vdW  Elec       q    Type
REMARK                         _______ _______ _______ _____ _____    ______ ____
ROOT
ATOM      1  N   UNL     1      -9.193   2.820 -18.241  0.00  0.00    -0.354 N 
ATOM      2  N   UNL     1      -9.710   3.324 -20.442  0.00  0.00    -0.372 N 
ATOM      3  N   UNL     1     -10.432   1.331 -19.561  0.00  0.00    -0.372 N 
ATOM      4  C   UNL     1      -9.776   2.485 -19.400  0.00  0.00    +0.166 C 
ATOM      5  H   UNL     1      -8.686   3.696 -18.192  0.00  0.00    +0.163 HD
ATOM      6  H   UNL     1     -10.143   3.100 -21.328  0.00  0.00    +0.159 HD
ATOM      7  H   UNL     1      -9.242   4.219 -20.376  0.00  0.00    +0.159 HD
ATOM      8  H   UNL     1     -10.512   0.653 -18.816  0.00  0.00    +0.159 HD
ATOM      9  H   UNL     1     -10.861   1.084 -20.444  0.00  0.00    +0.159 HD
ENDROOT
BRANCH   1  10
ATOM     10  C   UNL     1      -9.253   2.002 -17.031  0.00  0.00    +0.151 C 
BRANCH  10  11
ATOM     11  C   UNL     1      -8.276   2.544 -16.024  0.00  0.00    -0.028 A 
ATOM     12  C   UNL     1      -7.749   3.836 -16.167  0.00  0.00    +0.005 A 
ATOM     13  C   UNL     1      -7.877   1.773 -14.921  0.00  0.00    +0.005 A 
ATOM     14  C   UNL     1      -6.865   4.351 -15.216  0.00  0.00    +0.000 A 
ATOM     15  C   UNL     1      -6.994   2.290 -13.974  0.00  0.00    +0.000 A 
ATOM     16  C   UNL     1      -6.489   3.580 -14.121  0.00  0.00    +0.000 A 
ENDBRANCH  10  11
ENDBRANCH   1  10
TORSDOF 2
ENDMDL
MODEL 8
REMARK VINA RESULT:    -4.674     25.683     26.944
REMARK INTER + INTRA:          -5.403
REMARK INTER:                  -5.264
REMARK INTRA:                  -0.139
REMARK UNBOUND:                -0.182
REMARK  Name = 1550473
REMARK  2 active torsions:
REMARK  status: ('A' for Active; 'I' for Inactive)
REMARK    1  A    between atoms: N_1  and  C_4
REMARK    2  A    between atoms: C_4  and  C_5
REMARK                            x       y       z     vdW  Elec       q    Type
REMARK                         _______ _______ _______ _____ _____    ______ ____
ROOT
ATOM      1  N   UNL     1      16.518   1.707  -3.071  0.00  0.00    -0.354 N 
ATOM      2  N   UNL     1      15.494   2.493  -4.995  0.00  0.00    -0.372 N 
ATOM      3  N   UNL     1      15.444   3.790  -3.103  0.00  0.00    -0.372 N 
ATOM      4  C   UNL     1      15.824   2.660  -3.709  0.00  0.00    +0.166 C 
ATOM      5  H   UNL     1      16.750   0.860  -3.578  0.00  0.00    +0.163 HD
ATOM      6  H   UNL     1      14.974   3.196  -5.503  0.00  0.00    +0.159 HD
ATOM      7  H   UNL     1      15.767   1.666  -5.512  0.00  0.00    +0.159 HD
ATOM      8  H   UNL     1      15.657   3.974  -2.132  0.00  0.00    +0.159 HD
ATOM      9  H   UNL     1      14.913   4.500  -3.591  0.00  0.00    +0.159 HD
ENDROOT
BRANCH   1  10
ATOM     10  C   UNL     1      16.973   1.815  -1.687  0.00  0.00    +0.151 C 
BRANCH  10  11
ATOM     11  C   UNL     1      16.513   0.605  -0.922  0.00  0.00    -0.028 A 
ATOM     12  C   UNL     1      15.534  -0.245  -1.457  0.00  0.00    +0.005 A 
ATOM     13  C   UNL     1      17.056   0.299   0.336  0.00  0.00    +0.005 A 
ATOM     14  C   UNL     1      15.128  -1.386  -0.761  0.00  0.00    +0.000 A 
ATOM     15  C   UNL     1      16.646  -0.840   1.028  0.00  0.00    +0.000 A 
ATOM     16  C   UNL     1      15.684  -1.684   0.479  0.00  0.00    +0.000 A 
ENDBRANCH  10  11
ENDBRANCH   1  10
TORSDOF 2
ENDMDL
MODEL 9
REMARK VINA RESULT:    -4.653      2.371      3.771
REMARK INTER + INTRA:          -5.379
REMARK INTER:                  -5.223
REMARK INTRA:                  -0.157
REMARK UNBOUND:                -0.182
REMARK  Name = 1550473
REMARK  2 active torsions:
REMARK  status: ('A' for Active; 'I' for Inactive)
REMARK    1  A    between atoms: N_1  and  C_4
REMARK    2  A    between atoms: C_4  and  C_5
REMARK                            x       y       z     vdW  Elec       q    Type
REMARK                         _______ _______ _______ _____ _____    ______ ____
ROOT
ATOM      1  N   UNL     1      -9.786   4.313 -14.950  0.00  0.00    -0.354 N 
ATOM      2  N   UNL     1     -11.839   5.379 -14.839  0.00  0.00    -0.372 N 
ATOM      3  N   UNL     1     -11.129   4.149 -13.037  0.00  0.00    -0.372 N 
ATOM      4  C   UNL     1     -10.904   4.605 -14.274  0.00  0.00    +0.166 C 
ATOM      5  H   UNL     1      -9.689   4.665 -15.896  0.00  0.00    +0.163 HD
ATOM      6  H   UNL     1     -12.691   5.619 -14.352  0.00  0.00    +0.159 HD
ATOM      7  H   UNL     1     -11.719   5.767 -15.767  0.00  0.00    +0.159 HD
ATOM      8  H   UNL     1     -10.465   3.556 -12.556  0.00  0.00    +0.159 HD
ATOM      9  H   UNL     1     -11.981   4.369 -12.537  0.00  0.00    +0.159 HD
ENDROOT
BRANCH   1  10
ATOM     10  C   UNL     1      -8.683   3.524 -14.405  0.00  0.00    +0.151 C 
BRANCH  10  11
ATOM     11  C   UNL     1      -7.471   4.403 -14.267  0.00  0.00    -0.028 A 
ATOM     12  C   UNL     1      -6.352   4.208 -15.091  0.00  0.00    +0.005 A 
ATOM     13  C   UNL     1      -7.436   5.436 -13.318  0.00  0.00    +0.005 A 
ATOM     14  C   UNL     1      -5.238   5.044 -14.983  0.00  0.00    +0.000 A 
ATOM     15  C   UNL     1      -6.321   6.268 -13.213  0.00  0.00    +0.000 A 
ATOM     16  C   UNL     1      -5.223   6.073 -14.048  0.00  0.00    +0.000 A 
ENDBRANCH  10  11
ENDBRANCH   1  10
TORSDOF 2
ENDMDL
