MODEL 1
REMARK VINA RESULT:    -5.904      0.000      0.000
REMARK INTER + INTRA:          -6.772
REMARK INTER:                  -6.595
REMARK INTRA:                  -0.177
REMARK UNBOUND:                -0.177
REMARK  Name = 1550473
REMARK  2 active torsions:
REMARK  status: ('A' for Active; 'I' for Inactive)
REMARK    1  A    between atoms: N_1  and  C_4
REMARK    2  A    between atoms: C_4  and  C_5
REMARK                            x       y       z     vdW  Elec       q    Type
REMARK                         _______ _______ _______ _____ _____    ______ ____
ROOT
ATOM      1  N   UNL     1      -0.914  -1.072  -7.248  0.00  0.00    -0.354 N 
ATOM      2  N   UNL     1      -0.767   1.121  -6.519  0.00  0.00    -0.372 N 
ATOM      3  N   UNL     1      -1.853   0.678  -8.491  0.00  0.00    -0.372 N 
ATOM      4  C   UNL     1      -1.180   0.229  -7.427  0.00  0.00    +0.166 C 
ATOM      5  H   UNL     1      -0.373  -1.345  -6.435  0.00  0.00    +0.163 HD
ATOM      6  H   UNL     1      -0.957   2.109  -6.625  0.00  0.00    +0.159 HD
ATOM      7  H   UNL     1      -0.267   0.841  -5.684  0.00  0.00    +0.159 HD
ATOM      8  H   UNL     1      -2.187   0.056  -9.215  0.00  0.00    +0.159 HD
ATOM      9  H   UNL     1      -2.043   1.664  -8.621  0.00  0.00    +0.159 HD
ENDROOT
BRANCH   1  10
ATOM     10  C   UNL     1      -1.365  -2.131  -8.149  0.00  0.00    +0.151 C 
BRANCH  10  11
ATOM     11  C   UNL     1      -0.244  -2.491  -9.085  0.00  0.00    -0.028 A 
ATOM     12  C   UNL     1      -0.256  -2.046 -10.415  0.00  0.00    +0.005 A 
ATOM     13  C   UNL     1       0.836  -3.271  -8.645  0.00  0.00    +0.005 A 
ATOM     14  C   UNL     1       0.800  -2.355 -11.276  0.00  0.00    +0.000 A 
ATOM     15  C   UNL     1       1.888  -3.578  -9.508  0.00  0.00    +0.000 A 
ATOM     16  C   UNL     1       1.871  -3.118 -10.823  0.00  0.00    +0.000 A 
ENDBRANCH  10  11
ENDBRANCH   1  10
TORSDOF 2
ENDMDL
MODEL 2
REMARK VINA RESULT:    -5.717      1.282      2.335
REMARK INTER + INTRA:          -6.563
REMARK INTER:                  -6.431
REMARK INTRA:                  -0.131
REMARK UNBOUND:                -0.177
REMARK  Name = 1550473
REMARK  2 active torsions:
REMARK  status: ('A' for Active; 'I' for Inactive)
REMARK    1  A    between atoms: N_1  and  C_4
REMARK    2  A    between atoms: C_4  and  C_5
REMARK                            x       y       z     vdW  Elec       q    Type
REMARK                         _______ _______ _______ _____ _____    ______ ____
ROOT
ATOM      1  N   UNL     1      -0.731  -1.287  -9.654  0.00  0.00    -0.354 N 
ATOM      2  N   UNL     1      -1.278   0.581  -8.398  0.00  0.00    -0.372 N 
ATOM      3  N   UNL     1      -1.708  -1.501  -7.535  0.00  0.00    -0.372 N 
ATOM      4  C   UNL     1      -1.237  -0.750  -8.536  0.00  0.00    +0.166 C 
ATOM      5  H   UNL     1      -0.418  -0.663 -10.389  0.00  0.00    +0.163 HD
ATOM      6  H   UNL     1      -1.650   1.015  -7.564  0.00  0.00    +0.159 HD
ATOM      7  H   UNL     1      -0.921   1.201  -9.115  0.00  0.00    +0.159 HD
ATOM      8  H   UNL     1      -1.711  -2.511  -7.579  0.00  0.00    +0.159 HD
ATOM      9  H   UNL     1      -2.096  -1.085  -6.697  0.00  0.00    +0.159 HD
ENDROOT
BRANCH   1  10
ATOM     10  C   UNL     1      -0.592  -2.725  -9.880  0.00  0.00    +0.151 C 
BRANCH  10  11
ATOM     11  C   UNL     1       0.844  -3.034 -10.206  0.00  0.00    -0.028 A 
ATOM     12  C   UNL     1       1.697  -3.564  -9.228  0.00  0.00    +0.005 A 
ATOM     13  C   UNL     1       1.355  -2.803 -11.492  0.00  0.00    +0.005 A 
ATOM     14  C   UNL     1       3.023  -3.880  -9.538  0.00  0.00    +0.000 A 
ATOM     15  C   UNL     1       2.678  -3.118 -11.798  0.00  0.00    +0.000 A 
ATOM     16  C   UNL     1       3.511  -3.659 -10.821  0.00  0.00    +0.000 A 
ENDBRANCH  10  11
ENDBRANCH   1  10
TORSDOF 2
ENDMDL
MODEL 3
REMARK VINA RESULT:    -5.296      4.754      6.154
REMARK INTER + INTRA:          -6.093
REMARK INTER:                  -5.935
REMARK INTRA:                  -0.158
REMARK UNBOUND:                -0.177
REMARK  Name = 1550473
REMARK  2 active torsions:
REMARK  status: ('A' for Active; 'I' for Inactive)
REMARK    1  A    between atoms: N_1  and  C_4
REMARK    2  A    between atoms: C_4  and  C_5
REMARK                            x       y       z     vdW  Elec       q    Type
REMARK                         _______ _______ _______ _____ _____    ______ ____
ROOT
ATOM      1  N   UNL     1       3.047  -3.852 -12.652  0.00  0.00    -0.354 N 
ATOM      2  N   UNL     1       3.270  -5.373 -14.385  0.00  0.00    -0.372 N 
ATOM      3  N   UNL     1       1.233  -5.162 -13.350  0.00  0.00    -0.372 N 
ATOM      4  C   UNL     1       2.512  -4.786 -13.450  0.00  0.00    +0.166 C 
ATOM      5  H   UNL     1       4.031  -3.634 -12.759  0.00  0.00    +0.163 HD
ATOM      6  H   UNL     1       2.893  -6.078 -15.004  0.00  0.00    +0.159 HD
ATOM      7  H   UNL     1       4.241  -5.120 -14.520  0.00  0.00    +0.159 HD
ATOM      8  H   UNL     1       0.610  -4.762 -12.661  0.00  0.00    +0.159 HD
ATOM      9  H   UNL     1       0.841  -5.875 -13.952  0.00  0.00    +0.159 HD
ENDROOT
BRANCH   1  10
ATOM     10  C   UNL     1       2.295  -3.115 -11.639  0.00  0.00    +0.151 C 
BRANCH  10  11
ATOM     11  C   UNL     1       2.647  -3.652 -10.279  0.00  0.00    -0.028 A 
ATOM     12  C   UNL     1       3.911  -4.210 -10.039  0.00  0.00    +0.005 A 
ATOM     13  C   UNL     1       1.722  -3.601  -9.225  0.00  0.00    +0.005 A 
ATOM     14  C   UNL     1       4.248  -4.682  -8.768  0.00  0.00    +0.000 A 
ATOM     15  C   UNL     1       2.062  -4.074  -7.957  0.00  0.00    +0.000 A 
ATOM     16  C   UNL     1       3.326  -4.613  -7.729  0.00  0.00    +0.000 A 
ENDBRANCH  10  11
ENDBRANCH   1  10
TORSDOF 2
ENDMDL
MODEL 4
REMARK VINA RESULT:    -5.042     17.443     19.337
REMARK INTER + INTRA:          -5.809
REMARK INTER:                  -5.682
REMARK INTRA:                  -0.127
REMARK UNBOUND:                -0.177
REMARK  Name = 1550473
REMARK  2 active torsions:
REMARK  status: ('A' for Active; 'I' for Inactive)
REMARK    1  A    between atoms: N_1  and  C_4
REMARK    2  A    between atoms: C_4  and  C_5
REMARK                            x       y       z     vdW  Elec       q    Type
REMARK                         _______ _______ _______ _____ _____    ______ ____
ROOT
ATOM      1  N   UNL     1      -3.981   7.067   9.529  0.00  0.00    -0.354 N 
ATOM      2  N   UNL     1      -3.874   9.132  10.573  0.00  0.00    -0.372 N 
ATOM      3  N   UNL     1      -5.516   7.656  11.199  0.00  0.00    -0.372 N 
ATOM      4  C   UNL     1      -4.460   7.937  10.428  0.00  0.00    +0.166 C 
ATOM      5  H   UNL     1      -3.197   7.352   8.954  0.00  0.00    +0.163 HD
ATOM      6  H   UNL     1      -4.211   9.808  11.245  0.00  0.00    +0.159 HD
ATOM      7  H   UNL     1      -3.062   9.396  10.029  0.00  0.00    +0.159 HD
ATOM      8  H   UNL     1      -6.007   6.774  11.135  0.00  0.00    +0.159 HD
ATOM      9  H   UNL     1      -5.876   8.324  11.870  0.00  0.00    +0.159 HD
ENDROOT
BRANCH   1  10
ATOM     10  C   UNL     1      -4.513   5.720   9.331  0.00  0.00    +0.151 C 
BRANCH  10  11
ATOM     11  C   UNL     1      -4.511   5.402   7.861  0.00  0.00    -0.028 A 
ATOM     12  C   UNL     1      -5.209   6.216   6.956  0.00  0.00    +0.005 A 
ATOM     13  C   UNL     1      -3.809   4.293   7.366  0.00  0.00    +0.005 A 
ATOM     14  C   UNL     1      -5.183   5.938   5.587  0.00  0.00    +0.000 A 
ATOM     15  C   UNL     1      -3.786   4.019   5.999  0.00  0.00    +0.000 A 
ATOM     16  C   UNL     1      -4.471   4.843   5.109  0.00  0.00    +0.000 A 
ENDBRANCH  10  11
ENDBRANCH   1  10
TORSDOF 2
ENDMDL
MODEL 5
REMARK VINA RESULT:    -4.817     15.868     16.914
REMARK INTER + INTRA:          -5.558
REMARK INTER:                  -5.422
REMARK INTRA:                  -0.136
REMARK UNBOUND:                -0.177
REMARK  Name = 1550473
REMARK  2 active torsions:
REMARK  status: ('A' for Active; 'I' for Inactive)
REMARK    1  A    between atoms: N_1  and  C_4
REMARK    2  A    between atoms: C_4  and  C_5
REMARK                            x       y       z     vdW  Elec       q    Type
REMARK                         _______ _______ _______ _____ _____    ______ ____
ROOT
ATOM      1  N   UNL     1       7.171   4.630   6.181  0.00  0.00    -0.354 N 
ATOM      2  N   UNL     1       7.513   6.834   5.556  0.00  0.00    -0.372 N 
ATOM      3  N   UNL     1       5.445   6.208   6.330  0.00  0.00    -0.372 N 
ATOM      4  C   UNL     1       6.705   5.877   6.027  0.00  0.00    +0.166 C 
ATOM      5  H   UNL     1       8.127   4.436   5.904  0.00  0.00    +0.163 HD
ATOM      6  H   UNL     1       7.190   7.784   5.433  0.00  0.00    +0.159 HD
ATOM      7  H   UNL     1       8.481   6.648   5.324  0.00  0.00    +0.159 HD
ATOM      8  H   UNL     1       4.784   5.531   6.684  0.00  0.00    +0.159 HD
ATOM      9  H   UNL     1       5.100   7.151   6.202  0.00  0.00    +0.159 HD
ENDROOT
BRANCH   1  10
ATOM     10  C   UNL     1       6.389   3.527   6.736  0.00  0.00    +0.151 C 
BRANCH  10  11
ATOM     11  C   UNL     1       6.697   2.271   5.968  0.00  0.00    -0.028 A 
ATOM     12  C   UNL     1       6.539   1.013   6.568  0.00  0.00    +0.005 A 
ATOM     13  C   UNL     1       7.142   2.332   4.639  0.00  0.00    +0.005 A 
ATOM     14  C   UNL     1       6.796  -0.154   5.846  0.00  0.00    +0.000 A 
ATOM     15  C   UNL     1       7.398   1.164   3.921  0.00  0.00    +0.000 A 
ATOM     16  C   UNL     1       7.223  -0.079   4.524  0.00  0.00    +0.000 A 
ENDBRANCH  10  11
ENDBRANCH   1  10
TORSDOF 2
ENDMDL
MODEL 6
REMARK VINA RESULT:    -4.636      4.541      5.656
REMARK INTER + INTRA:          -5.356
REMARK INTER:                  -5.215
REMARK INTRA:                  -0.141
REMARK UNBOUND:                -0.177
REMARK  Name = 1550473
REMARK  2 active torsions:
REMARK  status: ('A' for Active; 'I' for Inactive)
REMARK    1  A    between atoms: N_1  and  C_4
REMARK    2  A    between atoms: C_4  and  C_5
REMARK                            x       y       z     vdW  Elec       q    Type
REMARK                         _______ _______ _______ _____ _____    ______ ____
ROOT
ATOM      1  N   UNL     1      -0.620  -4.256 -13.209  0.00  0.00    -0.354 N 
ATOM      2  N   UNL     1      -1.276  -5.099 -15.264  0.00  0.00    -0.372 N 
ATOM      3  N   UNL     1      -2.028  -6.123 -13.353  0.00  0.00    -0.372 N 
ATOM      4  C   UNL     1      -1.305  -5.156 -13.927  0.00  0.00    +0.166 C 
ATOM      5  H   UNL     1      -0.067  -3.566 -13.704  0.00  0.00    +0.163 HD
ATOM      6  H   UNL     1      -1.786  -5.762 -15.832  0.00  0.00    +0.159 HD
ATOM      7  H   UNL     1      -0.760  -4.380 -15.755  0.00  0.00    +0.159 HD
ATOM      8  H   UNL     1      -2.087  -6.224 -12.348  0.00  0.00    +0.159 HD
ATOM      9  H   UNL     1      -2.536  -6.804 -13.905  0.00  0.00    +0.159 HD
ENDROOT
BRANCH   1  10
ATOM     10  C   UNL     1      -0.628  -4.197 -11.748  0.00  0.00    +0.151 C 
BRANCH  10  11
ATOM     11  C   UNL     1       0.782  -4.026 -11.255  0.00  0.00    -0.028 A 
ATOM     12  C   UNL     1       1.840  -3.875 -12.164  0.00  0.00    +0.005 A 
ATOM     13  C   UNL     1       1.066  -4.008  -9.881  0.00  0.00    +0.005 A 
ATOM     14  C   UNL     1       3.146  -3.686 -11.706  0.00  0.00    +0.000 A 
ATOM     15  C   UNL     1       2.372  -3.820  -9.428  0.00  0.00    +0.000 A 
ATOM     16  C   UNL     1       3.411  -3.657 -10.341  0.00  0.00    +0.000 A 
ENDBRANCH  10  11
ENDBRANCH   1  10
TORSDOF 2
ENDMDL
MODEL 7
REMARK VINA RESULT:    -4.620      9.580     10.601
REMARK INTER + INTRA:          -5.337
REMARK INTER:                  -5.237
REMARK INTRA:                  -0.100
REMARK UNBOUND:                -0.177
REMARK  Name = 1550473
REMARK  2 active torsions:
REMARK  status: ('A' for Active; 'I' for Inactive)
REMARK    1  A    between atoms: N_1  and  C_4
REMARK    2  A    between atoms: C_4  and  C_5
REMARK                            x       y       z     vdW  Elec       q    Type
REMARK                         _______ _______ _______ _____ _____    ______ ____
ROOT
ATOM      1  N   UNL     1      -4.583  -8.757  -4.130  0.00  0.00    -0.354 N 
ATOM      2  N   UNL     1      -2.787 -10.044  -3.436  0.00  0.00    -0.372 N 
ATOM      3  N   UNL     1      -3.565  -8.388  -2.052  0.00  0.00    -0.372 N 
ATOM      4  C   UNL     1      -3.657  -9.053  -3.209  0.00  0.00    +0.166 C 
ATOM      5  H   UNL     1      -4.582  -9.279  -4.999  0.00  0.00    +0.163 HD
ATOM      6  H   UNL     1      -2.080 -10.293  -2.758  0.00  0.00    +0.159 HD
ATOM      7  H   UNL     1      -2.817 -10.595  -4.286  0.00  0.00    +0.159 HD
ATOM      8  H   UNL     1      -4.187  -7.625  -1.822  0.00  0.00    +0.159 HD
ATOM      9  H   UNL     1      -2.855  -8.614  -1.366  0.00  0.00    +0.159 HD
ENDROOT
BRANCH   1  10
ATOM     10  C   UNL     1      -5.611  -7.732  -3.957  0.00  0.00    +0.151 C 
BRANCH  10  11
ATOM     11  C   UNL     1      -6.640  -7.879  -5.043  0.00  0.00    -0.028 A 
ATOM     12  C   UNL     1      -7.458  -9.017  -5.099  0.00  0.00    +0.005 A 
ATOM     13  C   UNL     1      -6.806  -6.882  -6.016  0.00  0.00    +0.005 A 
ATOM     14  C   UNL     1      -8.435  -9.140  -6.090  0.00  0.00    +0.000 A 
ATOM     15  C   UNL     1      -7.782  -7.009  -7.005  0.00  0.00    +0.000 A 
ATOM     16  C   UNL     1      -8.598  -8.137  -7.040  0.00  0.00    +0.000 A 
ENDBRANCH  10  11
ENDBRANCH   1  10
TORSDOF 2
ENDMDL
MODEL 8
REMARK VINA RESULT:    -4.551      2.361      2.995
REMARK INTER + INTRA:          -5.261
REMARK INTER:                  -5.115
REMARK INTRA:                  -0.146
REMARK UNBOUND:                -0.177
REMARK  Name = 1550473
REMARK  2 active torsions:
REMARK  status: ('A' for Active; 'I' for Inactive)
REMARK    1  A    between atoms: N_1  and  C_4
REMARK    2  A    between atoms: C_4  and  C_5
REMARK                            x       y       z     vdW  Elec       q    Type
REMARK                         _______ _______ _______ _____ _____    ______ ____
ROOT
ATOM      1  N   UNL     1      -1.030  -4.178  -7.507  0.00  0.00    -0.354 N 
ATOM      2  N   UNL     1      -3.146  -5.021  -7.091  0.00  0.00    -0.372 N 
ATOM      3  N   UNL     1      -2.677  -2.856  -6.493  0.00  0.00    -0.372 N 
ATOM      4  C   UNL     1      -2.271  -4.010  -7.032  0.00  0.00    +0.166 C 
ATOM      5  H   UNL     1      -0.774  -5.087  -7.876  0.00  0.00    +0.163 HD
ATOM      6  H   UNL     1      -4.091  -4.922  -6.743  0.00  0.00    +0.159 HD
ATOM      7  H   UNL     1      -2.903  -5.914  -7.501  0.00  0.00    +0.159 HD
ATOM      8  H   UNL     1      -2.063  -2.056  -6.414  0.00  0.00    +0.159 HD
ATOM      9  H   UNL     1      -3.615  -2.741  -6.129  0.00  0.00    +0.159 HD
ENDROOT
BRANCH   1  10
ATOM     10  C   UNL     1      -0.017  -3.125  -7.540  0.00  0.00    +0.151 C 
BRANCH  10  11
ATOM     11  C   UNL     1       0.457  -2.942  -8.955  0.00  0.00    -0.028 A 
ATOM     12  C   UNL     1      -0.333  -2.254  -9.887  0.00  0.00    +0.005 A 
ATOM     13  C   UNL     1       1.698  -3.450  -9.369  0.00  0.00    +0.005 A 
ATOM     14  C   UNL     1       0.120  -2.058 -11.194  0.00  0.00    +0.000 A 
ATOM     15  C   UNL     1       2.146  -3.253 -10.675  0.00  0.00    +0.000 A 
ATOM     16  C   UNL     1       1.358  -2.555 -11.587  0.00  0.00    +0.000 A 
ENDBRANCH  10  11
ENDBRANCH   1  10
TORSDOF 2
ENDMDL
MODEL 9
REMARK VINA RESULT:    -4.477     18.059     19.297
REMARK INTER + INTRA:          -5.178
REMARK INTER:                  -5.073
REMARK INTRA:                  -0.105
REMARK UNBOUND:                -0.177
REMARK  Name = 1550473
REMARK  2 active torsions:
REMARK  status: ('A' for Active; 'I' for Inactive)
REMARK    1  A    between atoms: N_1  and  C_4
REMARK    2  A    between atoms: C_4  and  C_5
REMARK                            x       y       z     vdW  Elec       q    Type
REMARK                         _______ _______ _______ _____ _____    ______ ____
ROOT
ATOM      1  N   UNL     1      -7.050  -8.392 -24.364  0.00  0.00    -0.354 N 
ATOM      2  N   UNL     1      -5.042  -7.361 -23.846  0.00  0.00    -0.372 N 
ATOM      3  N   UNL     1      -5.848  -7.206 -25.989  0.00  0.00    -0.372 N 
ATOM      4  C   UNL     1      -5.993  -7.659 -24.739  0.00  0.00    +0.166 C 
ATOM      5  H   UNL     1      -7.086  -8.731 -23.409  0.00  0.00    +0.163 HD
ATOM      6  H   UNL     1      -4.235  -6.807 -24.099  0.00  0.00    +0.159 HD
ATOM      7  H   UNL     1      -5.104  -7.662 -22.881  0.00  0.00    +0.159 HD
ATOM      8  H   UNL     1      -6.528  -7.402 -26.711  0.00  0.00    +0.159 HD
ATOM      9  H   UNL     1      -5.041  -6.660 -26.264  0.00  0.00    +0.159 HD
ENDROOT
BRANCH   1  10
ATOM     10  C   UNL     1      -8.167  -8.727 -25.245  0.00  0.00    +0.151 C 
BRANCH  10  11
ATOM     11  C   UNL     1      -9.442  -8.716 -24.448  0.00  0.00    -0.028 A 
ATOM     12  C   UNL     1      -9.630  -9.619 -23.392  0.00  0.00    +0.005 A 
ATOM     13  C   UNL     1     -10.464  -7.800 -24.740  0.00  0.00    +0.005 A 
ATOM     14  C   UNL     1     -10.802  -9.589 -22.632  0.00  0.00    +0.000 A 
ATOM     15  C   UNL     1     -11.633  -7.773 -23.979  0.00  0.00    +0.000 A 
ATOM     16  C   UNL     1     -11.800  -8.666 -22.924  0.00  0.00    +0.000 A 
ENDBRANCH  10  11
ENDBRANCH   1  10
TORSDOF 2
ENDMDL
