MODEL 1
REMARK VINA RESULT:    -6.198      0.000      0.000
REMARK INTER + INTRA:          -7.044
REMARK INTER:                  -6.922
REMARK INTRA:                  -0.122
REMARK UNBOUND:                -0.122
REMARK  Name = 1550473
REMARK  2 active torsions:
REMARK  status: ('A' for Active; 'I' for Inactive)
REMARK    1  A    between atoms: N_1  and  C_4
REMARK    2  A    between atoms: C_4  and  C_5
REMARK                            x       y       z     vdW  Elec       q    Type
REMARK                         _______ _______ _______ _____ _____    ______ ____
ROOT
ATOM      1  N   UNL     1       6.200  -1.133 -16.010  0.00  0.00    -0.354 N 
ATOM      2  N   UNL     1       7.290   0.177 -14.443  0.00  0.00    -0.372 N 
ATOM      3  N   UNL     1       6.200   1.204 -16.181  0.00  0.00    -0.372 N 
ATOM      4  C   UNL     1       6.555   0.076 -15.557  0.00  0.00    +0.166 C 
ATOM      5  H   UNL     1       6.526  -1.951 -15.508  0.00  0.00    +0.163 HD
ATOM      6  H   UNL     1       7.571   1.076 -14.074  0.00  0.00    +0.159 HD
ATOM      7  H   UNL     1       7.577  -0.640 -13.917  0.00  0.00    +0.159 HD
ATOM      8  H   UNL     1       5.651   1.196 -17.030  0.00  0.00    +0.159 HD
ATOM      9  H   UNL     1       6.481   2.113 -15.835  0.00  0.00    +0.159 HD
ENDROOT
BRANCH   1  10
ATOM     10  C   UNL     1       5.355  -1.350 -17.184  0.00  0.00    +0.151 C 
BRANCH  10  11
ATOM     11  C   UNL     1       5.715  -2.670 -17.810  0.00  0.00    -0.028 A 
ATOM     12  C   UNL     1       5.514  -2.885 -19.181  0.00  0.00    +0.005 A 
ATOM     13  C   UNL     1       6.263  -3.706 -17.039  0.00  0.00    +0.005 A 
ATOM     14  C   UNL     1       5.876  -4.100 -19.769  0.00  0.00    +0.000 A 
ATOM     15  C   UNL     1       6.622  -4.917 -17.629  0.00  0.00    +0.000 A 
ATOM     16  C   UNL     1       6.431  -5.113 -18.995  0.00  0.00    +0.000 A 
ENDBRANCH  10  11
ENDBRANCH   1  10
TORSDOF 2
ENDMDL
MODEL 2
REMARK VINA RESULT:    -5.924      1.551      2.318
REMARK INTER + INTRA:          -6.738
REMARK INTER:                  -6.575
REMARK INTRA:                  -0.163
REMARK UNBOUND:                -0.122
REMARK  Name = 1550473
REMARK  2 active torsions:
REMARK  status: ('A' for Active; 'I' for Inactive)
REMARK    1  A    between atoms: N_1  and  C_4
REMARK    2  A    between atoms: C_4  and  C_5
REMARK                            x       y       z     vdW  Elec       q    Type
REMARK                         _______ _______ _______ _____ _____    ______ ____
ROOT
ATOM      1  N   UNL     1       4.717  -1.042 -17.730  0.00  0.00    -0.354 N 
ATOM      2  N   UNL     1       5.611   0.881 -16.797  0.00  0.00    -0.372 N 
ATOM      3  N   UNL     1       5.898   0.500 -19.042  0.00  0.00    -0.372 N 
ATOM      4  C   UNL     1       5.404   0.101 -17.865  0.00  0.00    +0.166 C 
ATOM      5  H   UNL     1       4.395  -1.303 -16.805  0.00  0.00    +0.163 HD
ATOM      6  H   UNL     1       6.122   1.750 -16.869  0.00  0.00    +0.159 HD
ATOM      7  H   UNL     1       5.248   0.640 -15.883  0.00  0.00    +0.159 HD
ATOM      8  H   UNL     1       5.781  -0.047 -19.885  0.00  0.00    +0.159 HD
ATOM      9  H   UNL     1       6.422   1.361 -19.132  0.00  0.00    +0.159 HD
ENDROOT
BRANCH   1  10
ATOM     10  C   UNL     1       4.390  -1.936 -18.840  0.00  0.00    +0.151 C 
BRANCH  10  11
ATOM     11  C   UNL     1       5.351  -3.093 -18.837  0.00  0.00    -0.028 A 
ATOM     12  C   UNL     1       5.818  -3.629 -17.628  0.00  0.00    +0.005 A 
ATOM     13  C   UNL     1       5.794  -3.661 -20.041  0.00  0.00    +0.005 A 
ATOM     14  C   UNL     1       6.686  -4.723 -17.625  0.00  0.00    +0.000 A 
ATOM     15  C   UNL     1       6.663  -4.753 -20.034  0.00  0.00    +0.000 A 
ATOM     16  C   UNL     1       7.106  -5.285 -18.826  0.00  0.00    +0.000 A 
ENDBRANCH  10  11
ENDBRANCH   1  10
TORSDOF 2
ENDMDL
MODEL 3
REMARK VINA RESULT:    -5.847      2.425      3.524
REMARK INTER + INTRA:          -6.653
REMARK INTER:                  -6.568
REMARK INTRA:                  -0.085
REMARK UNBOUND:                -0.122
REMARK  Name = 1550473
REMARK  2 active torsions:
REMARK  status: ('A' for Active; 'I' for Inactive)
REMARK    1  A    between atoms: N_1  and  C_4
REMARK    2  A    between atoms: C_4  and  C_5
REMARK                            x       y       z     vdW  Elec       q    Type
REMARK                         _______ _______ _______ _____ _____    ______ ____
ROOT
ATOM      1  N   UNL     1       5.087  -0.307 -18.594  0.00  0.00    -0.354 N 
ATOM      2  N   UNL     1       2.946   0.288 -17.943  0.00  0.00    -0.372 N 
ATOM      3  N   UNL     1       3.332  -1.858 -18.658  0.00  0.00    -0.372 N 
ATOM      4  C   UNL     1       3.802  -0.632 -18.403  0.00  0.00    +0.166 C 
ATOM      5  H   UNL     1       5.375   0.648 -18.410  0.00  0.00    +0.163 HD
ATOM      6  H   UNL     1       1.971   0.071 -17.786  0.00  0.00    +0.159 HD
ATOM      7  H   UNL     1       3.245   1.229 -17.717  0.00  0.00    +0.159 HD
ATOM      8  H   UNL     1       3.925  -2.596 -19.013  0.00  0.00    +0.159 HD
ATOM      9  H   UNL     1       2.356  -2.091 -18.519  0.00  0.00    +0.159 HD
ENDROOT
BRANCH   1  10
ATOM     10  C   UNL     1       6.112  -1.249 -19.041  0.00  0.00    +0.151 C 
BRANCH  10  11
ATOM     11  C   UNL     1       6.662  -1.980 -17.847  0.00  0.00    -0.028 A 
ATOM     12  C   UNL     1       6.326  -3.321 -17.616  0.00  0.00    +0.005 A 
ATOM     13  C   UNL     1       7.525  -1.337 -16.946  0.00  0.00    +0.005 A 
ATOM     14  C   UNL     1       6.861  -4.009 -16.523  0.00  0.00    +0.000 A 
ATOM     15  C   UNL     1       8.056  -2.026 -15.856  0.00  0.00    +0.000 A 
ATOM     16  C   UNL     1       7.725  -3.363 -15.646  0.00  0.00    +0.000 A 
ENDBRANCH  10  11
ENDBRANCH   1  10
TORSDOF 2
ENDMDL
MODEL 4
REMARK VINA RESULT:    -5.594     14.610     15.788
REMARK INTER + INTRA:          -6.370
REMARK INTER:                  -6.266
REMARK INTRA:                  -0.103
REMARK UNBOUND:                -0.122
REMARK  Name = 1550473
REMARK  2 active torsions:
REMARK  status: ('A' for Active; 'I' for Inactive)
REMARK    1  A    between atoms: N_1  and  C_4
REMARK    2  A    between atoms: C_4  and  C_5
REMARK                            x       y       z     vdW  Elec       q    Type
REMARK                         _______ _______ _______ _____ _____    ______ ____
ROOT
ATOM      1  N   UNL     1      -6.310   0.070 -11.463  0.00  0.00    -0.354 N 
ATOM      2  N   UNL     1      -4.842  -1.710 -11.665  0.00  0.00    -0.372 N 
ATOM      3  N   UNL     1      -6.086  -1.511  -9.748  0.00  0.00    -0.372 N 
ATOM      4  C   UNL     1      -5.756  -1.039 -10.955  0.00  0.00    +0.166 C 
ATOM      5  H   UNL     1      -5.994   0.392 -12.371  0.00  0.00    +0.163 HD
ATOM      6  H   UNL     1      -4.410  -2.552 -11.309  0.00  0.00    +0.159 HD
ATOM      7  H   UNL     1      -4.562  -1.411 -12.591  0.00  0.00    +0.159 HD
ATOM      8  H   UNL     1      -6.766  -1.047  -9.159  0.00  0.00    +0.159 HD
ATOM      9  H   UNL     1      -5.656  -2.345  -9.369  0.00  0.00    +0.159 HD
ENDROOT
BRANCH   1  10
ATOM     10  C   UNL     1      -7.353   0.844 -10.794  0.00  0.00    +0.151 C 
BRANCH  10  11
ATOM     11  C   UNL     1      -8.325   1.352 -11.823  0.00  0.00    -0.028 A 
ATOM     12  C   UNL     1      -9.597   0.773 -11.948  0.00  0.00    +0.005 A 
ATOM     13  C   UNL     1      -7.982   2.415 -12.673  0.00  0.00    +0.005 A 
ATOM     14  C   UNL     1     -10.510   1.264 -12.884  0.00  0.00    +0.000 A 
ATOM     15  C   UNL     1      -8.897   2.901 -13.606  0.00  0.00    +0.000 A 
ATOM     16  C   UNL     1     -10.162   2.327 -13.710  0.00  0.00    +0.000 A 
ENDBRANCH  10  11
ENDBRANCH   1  10
TORSDOF 2
ENDMDL
MODEL 5
REMARK VINA RESULT:    -5.295     16.247     17.053
REMARK INTER + INTRA:          -6.036
REMARK INTER:                  -5.894
REMARK INTRA:                  -0.142
REMARK UNBOUND:                -0.122
REMARK  Name = 1550473
REMARK  2 active torsions:
REMARK  status: ('A' for Active; 'I' for Inactive)
REMARK    1  A    between atoms: N_1  and  C_4
REMARK    2  A    between atoms: C_4  and  C_5
REMARK                            x       y       z     vdW  Elec       q    Type
REMARK                         _______ _______ _______ _____ _____    ______ ____
ROOT
ATOM      1  N   UNL     1      14.430  -7.740  -3.633  0.00  0.00    -0.354 N 
ATOM      2  N   UNL     1      13.737  -5.530  -3.583  0.00  0.00    -0.372 N 
ATOM      3  N   UNL     1      15.671  -6.111  -2.493  0.00  0.00    -0.372 N 
ATOM      4  C   UNL     1      14.620  -6.475  -3.235  0.00  0.00    +0.166 C 
ATOM      5  H   UNL     1      13.597  -7.956  -4.168  0.00  0.00    +0.163 HD
ATOM      6  H   UNL     1      13.856  -4.567  -3.300  0.00  0.00    +0.159 HD
ATOM      7  H   UNL     1      12.930  -5.741  -4.156  0.00  0.00    +0.159 HD
ATOM      8  H   UNL     1      16.370  -6.777  -2.192  0.00  0.00    +0.159 HD
ATOM      9  H   UNL     1      15.801  -5.154  -2.190  0.00  0.00    +0.159 HD
ENDROOT
BRANCH   1  10
ATOM     10  C   UNL     1      15.360  -8.833  -3.353  0.00  0.00    +0.151 C 
BRANCH  10  11
ATOM     11  C   UNL     1      15.828  -9.424  -4.654  0.00  0.00    -0.028 A 
ATOM     12  C   UNL     1      15.725 -10.803  -4.887  0.00  0.00    +0.005 A 
ATOM     13  C   UNL     1      16.370  -8.610  -5.660  0.00  0.00    +0.005 A 
ATOM     14  C   UNL     1      16.132 -11.349  -6.107  0.00  0.00    +0.000 A 
ATOM     15  C   UNL     1      16.777  -9.159  -6.877  0.00  0.00    +0.000 A 
ATOM     16  C   UNL     1      16.655 -10.528  -7.101  0.00  0.00    +0.000 A 
ENDBRANCH  10  11
ENDBRANCH   1  10
TORSDOF 2
ENDMDL
MODEL 6
REMARK VINA RESULT:    -5.252      2.947      4.817
REMARK INTER + INTRA:          -5.988
REMARK INTER:                  -5.845
REMARK INTRA:                  -0.143
REMARK UNBOUND:                -0.122
REMARK  Name = 1550473
REMARK  2 active torsions:
REMARK  status: ('A' for Active; 'I' for Inactive)
REMARK    1  A    between atoms: N_1  and  C_4
REMARK    2  A    between atoms: C_4  and  C_5
REMARK                            x       y       z     vdW  Elec       q    Type
REMARK                         _______ _______ _______ _____ _____    ______ ____
ROOT
ATOM      1  N   UNL     1       5.107  -3.012 -18.955  0.00  0.00    -0.354 N 
ATOM      2  N   UNL     1       6.250  -4.505 -20.308  0.00  0.00    -0.372 N 
ATOM      3  N   UNL     1       6.350  -2.265 -20.796  0.00  0.00    -0.372 N 
ATOM      4  C   UNL     1       5.895  -3.249 -20.012  0.00  0.00    +0.166 C 
ATOM      5  H   UNL     1       4.771  -3.804 -18.419  0.00  0.00    +0.163 HD
ATOM      6  H   UNL     1       6.846  -4.714 -21.097  0.00  0.00    +0.159 HD
ATOM      7  H   UNL     1       5.950  -5.290 -19.743  0.00  0.00    +0.159 HD
ATOM      8  H   UNL     1       6.114  -1.296 -20.630  0.00  0.00    +0.159 HD
ATOM      9  H   UNL     1       6.939  -2.456 -21.597  0.00  0.00    +0.159 HD
ENDROOT
BRANCH   1  10
ATOM     10  C   UNL     1       4.707  -1.676 -18.516  0.00  0.00    +0.151 C 
BRANCH  10  11
ATOM     11  C   UNL     1       5.573  -1.260 -17.359  0.00  0.00    -0.028 A 
ATOM     12  C   UNL     1       6.169  -2.224 -16.532  0.00  0.00    +0.005 A 
ATOM     13  C   UNL     1       5.807   0.097 -17.088  0.00  0.00    +0.005 A 
ATOM     14  C   UNL     1       6.997  -1.838 -15.476  0.00  0.00    +0.000 A 
ATOM     15  C   UNL     1       6.634   0.478 -16.032  0.00  0.00    +0.000 A 
ATOM     16  C   UNL     1       7.231  -0.490 -15.228  0.00  0.00    +0.000 A 
ENDBRANCH  10  11
ENDBRANCH   1  10
TORSDOF 2
ENDMDL
MODEL 7
REMARK VINA RESULT:    -5.103     27.235     28.269
REMARK INTER + INTRA:          -5.821
REMARK INTER:                  -5.699
REMARK INTRA:                  -0.122
REMARK UNBOUND:                -0.122
REMARK  Name = 1550473
REMARK  2 active torsions:
REMARK  status: ('A' for Active; 'I' for Inactive)
REMARK    1  A    between atoms: N_1  and  C_4
REMARK    2  A    between atoms: C_4  and  C_5
REMARK                            x       y       z     vdW  Elec       q    Type
REMARK                         _______ _______ _______ _____ _____    ______ ____
ROOT
ATOM      1  N   UNL     1      -2.770 -22.465  -1.207  0.00  0.00    -0.354 N 
ATOM      2  N   UNL     1      -2.019 -21.130   0.530  0.00  0.00    -0.372 N 
ATOM      3  N   UNL     1      -1.968 -23.411   0.781  0.00  0.00    -0.372 N 
ATOM      4  C   UNL     1      -2.257 -22.347   0.025  0.00  0.00    +0.166 C 
ATOM      5  H   UNL     1      -2.996 -21.619  -1.718  0.00  0.00    +0.163 HD
ATOM      6  H   UNL     1      -1.629 -21.010   1.455  0.00  0.00    +0.159 HD
ATOM      7  H   UNL     1      -2.202 -20.287  -0.000  0.00  0.00    +0.159 HD
ATOM      8  H   UNL     1      -2.129 -24.356   0.460  0.00  0.00    +0.159 HD
ATOM      9  H   UNL     1      -1.588 -23.310   1.714  0.00  0.00    +0.159 HD
ENDROOT
BRANCH   1  10
ATOM     10  C   UNL     1      -3.017 -23.744  -1.871  0.00  0.00    +0.151 C 
BRANCH  10  11
ATOM     11  C   UNL     1      -4.433 -23.770  -2.375  0.00  0.00    -0.028 A 
ATOM     12  C   UNL     1      -4.853 -22.873  -3.368  0.00  0.00    +0.005 A 
ATOM     13  C   UNL     1      -5.360 -24.695  -1.868  0.00  0.00    +0.005 A 
ATOM     14  C   UNL     1      -6.160 -22.917  -3.858  0.00  0.00    +0.000 A 
ATOM     15  C   UNL     1      -6.664 -24.735  -2.359  0.00  0.00    +0.000 A 
ATOM     16  C   UNL     1      -7.064 -23.848  -3.356  0.00  0.00    +0.000 A 
ENDBRANCH  10  11
ENDBRANCH   1  10
TORSDOF 2
ENDMDL
MODEL 8
REMARK VINA RESULT:    -5.025     16.267     17.276
REMARK INTER + INTRA:          -5.734
REMARK INTER:                  -5.610
REMARK INTRA:                  -0.124
REMARK UNBOUND:                -0.122
REMARK  Name = 1550473
REMARK  2 active torsions:
REMARK  status: ('A' for Active; 'I' for Inactive)
REMARK    1  A    between atoms: N_1  and  C_4
REMARK    2  A    between atoms: C_4  and  C_5
REMARK                            x       y       z     vdW  Elec       q    Type
REMARK                         _______ _______ _______ _____ _____    ______ ____
ROOT
ATOM      1  N   UNL     1     -10.893  -0.266 -13.214  0.00  0.00    -0.354 N 
ATOM      2  N   UNL     1     -12.791  -1.540 -13.584  0.00  0.00    -0.372 N 
ATOM      3  N   UNL     1     -12.999   0.472 -12.501  0.00  0.00    -0.372 N 
ATOM      4  C   UNL     1     -12.217  -0.434 -13.096  0.00  0.00    +0.166 C 
ATOM      5  H   UNL     1     -10.351  -1.004 -13.649  0.00  0.00    +0.163 HD
ATOM      6  H   UNL     1     -13.788  -1.693 -13.512  0.00  0.00    +0.159 HD
ATOM      7  H   UNL     1     -12.254  -2.254 -14.059  0.00  0.00    +0.159 HD
ATOM      8  H   UNL     1     -12.627   1.326 -12.106  0.00  0.00    +0.159 HD
ATOM      9  H   UNL     1     -13.998   0.332 -12.409  0.00  0.00    +0.159 HD
ENDROOT
BRANCH   1  10
ATOM     10  C   UNL     1     -10.177   0.927 -12.765  0.00  0.00    +0.151 C 
BRANCH  10  11
ATOM     11  C   UNL     1      -8.949   0.505 -12.005  0.00  0.00    -0.028 A 
ATOM     12  C   UNL     1      -8.137  -0.533 -12.484  0.00  0.00    +0.005 A 
ATOM     13  C   UNL     1      -8.589   1.143 -10.808  0.00  0.00    +0.005 A 
ATOM     14  C   UNL     1      -6.980  -0.905 -11.795  0.00  0.00    +0.000 A 
ATOM     15  C   UNL     1      -7.434   0.769 -10.123  0.00  0.00    +0.000 A 
ATOM     16  C   UNL     1      -6.628  -0.254 -10.618  0.00  0.00    +0.000 A 
ENDBRANCH  10  11
ENDBRANCH   1  10
TORSDOF 2
ENDMDL
MODEL 9
REMARK VINA RESULT:    -4.779      3.879      4.795
REMARK INTER + INTRA:          -5.460
REMARK INTER:                  -5.281
REMARK INTRA:                  -0.179
REMARK UNBOUND:                -0.122
REMARK  Name = 1550473
REMARK  2 active torsions:
REMARK  status: ('A' for Active; 'I' for Inactive)
REMARK    1  A    between atoms: N_1  and  C_4
REMARK    2  A    between atoms: C_4  and  C_5
REMARK                            x       y       z     vdW  Elec       q    Type
REMARK                         _______ _______ _______ _____ _____    ______ ____
ROOT
ATOM      1  N   UNL     1      10.301  -0.664 -19.023  0.00  0.00    -0.354 N 
ATOM      2  N   UNL     1      11.937   0.975 -18.953  0.00  0.00    -0.372 N 
ATOM      3  N   UNL     1       9.802   1.563 -19.554  0.00  0.00    -0.372 N 
ATOM      4  C   UNL     1      10.667   0.616 -19.178  0.00  0.00    +0.166 C 
ATOM      5  H   UNL     1      11.012  -1.339 -18.766  0.00  0.00    +0.163 HD
ATOM      6  H   UNL     1      12.241   1.933 -19.059  0.00  0.00    +0.159 HD
ATOM      7  H   UNL     1      12.634   0.306 -18.652  0.00  0.00    +0.159 HD
ATOM      8  H   UNL     1       8.830   1.356 -19.744  0.00  0.00    +0.159 HD
ATOM      9  H   UNL     1      10.090   2.526 -19.676  0.00  0.00    +0.159 HD
ENDROOT
BRANCH   1  10
ATOM     10  C   UNL     1       8.933  -1.149 -19.190  0.00  0.00    +0.151 C 
BRANCH  10  11
ATOM     11  C   UNL     1       8.267  -1.217 -17.843  0.00  0.00    -0.028 A 
ATOM     12  C   UNL     1       8.536  -2.281 -16.969  0.00  0.00    +0.005 A 
ATOM     13  C   UNL     1       7.372  -0.218 -17.433  0.00  0.00    +0.005 A 
ATOM     14  C   UNL     1       7.941  -2.329 -15.706  0.00  0.00    +0.000 A 
ATOM     15  C   UNL     1       6.779  -0.270 -16.171  0.00  0.00    +0.000 A 
ATOM     16  C   UNL     1       7.066  -1.324 -15.307  0.00  0.00    +0.000 A 
ENDBRANCH  10  11
ENDBRANCH   1  10
TORSDOF 2
ENDMDL
