MODEL 1
REMARK VINA RESULT:    -5.817      0.000      0.000
REMARK INTER + INTRA:          -6.592
REMARK INTER:                  -6.497
REMARK INTRA:                  -0.095
REMARK UNBOUND:                -0.095
REMARK  Name = 1550473
REMARK  2 active torsions:
REMARK  status: ('A' for Active; 'I' for Inactive)
REMARK    1  A    between atoms: N_1  and  C_4
REMARK    2  A    between atoms: C_4  and  C_5
REMARK                            x       y       z     vdW  Elec       q    Type
REMARK                         _______ _______ _______ _____ _____    ______ ____
ROOT
ATOM      1  N   UNL     1       3.058  -1.376  -0.387  0.00  0.00    -0.354 N 
ATOM      2  N   UNL     1       3.748  -3.586  -0.322  0.00  0.00    -0.372 N 
ATOM      3  N   UNL     1       4.211  -2.334  -2.188  0.00  0.00    -0.372 N 
ATOM      4  C   UNL     1       3.669  -2.417  -0.969  0.00  0.00    +0.166 C 
ATOM      5  H   UNL     1       2.641  -1.513   0.527  0.00  0.00    +0.163 HD
ATOM      6  H   UNL     1       4.206  -4.388  -0.735  0.00  0.00    +0.159 HD
ATOM      7  H   UNL     1       3.371  -3.707   0.610  0.00  0.00    +0.159 HD
ATOM      8  H   UNL     1       4.179  -1.481  -2.731  0.00  0.00    +0.159 HD
ATOM      9  H   UNL     1       4.663  -3.129  -2.623  0.00  0.00    +0.159 HD
ENDROOT
BRANCH   1  10
ATOM     10  C   UNL     1       2.965  -0.045  -0.983  0.00  0.00    +0.151 C 
BRANCH  10  11
ATOM     11  C   UNL     1       2.222   0.864  -0.042  0.00  0.00    -0.028 A 
ATOM     12  C   UNL     1       0.930   1.310  -0.354  0.00  0.00    +0.005 A 
ATOM     13  C   UNL     1       2.804   1.277   1.166  0.00  0.00    +0.005 A 
ATOM     14  C   UNL     1       0.228   2.129   0.533  0.00  0.00    +0.000 A 
ATOM     15  C   UNL     1       2.101   2.096   2.049  0.00  0.00    +0.000 A 
ATOM     16  C   UNL     1       0.812   2.520   1.734  0.00  0.00    +0.000 A 
ENDBRANCH  10  11
ENDBRANCH   1  10
TORSDOF 2
ENDMDL
MODEL 2
REMARK VINA RESULT:    -5.687      2.820      3.742
REMARK INTER + INTRA:          -6.448
REMARK INTER:                  -6.267
REMARK INTRA:                  -0.180
REMARK UNBOUND:                -0.095
REMARK  Name = 1550473
REMARK  2 active torsions:
REMARK  status: ('A' for Active; 'I' for Inactive)
REMARK    1  A    between atoms: N_1  and  C_4
REMARK    2  A    between atoms: C_4  and  C_5
REMARK                            x       y       z     vdW  Elec       q    Type
REMARK                         _______ _______ _______ _____ _____    ______ ____
ROOT
ATOM      1  N   UNL     1       4.244   2.001  -1.081  0.00  0.00    -0.354 N 
ATOM      2  N   UNL     1       5.385   3.660  -2.225  0.00  0.00    -0.372 N 
ATOM      3  N   UNL     1       3.591   2.649  -3.236  0.00  0.00    -0.372 N 
ATOM      4  C   UNL     1       4.397   2.758  -2.176  0.00  0.00    +0.166 C 
ATOM      5  H   UNL     1       4.907   2.111  -0.323  0.00  0.00    +0.163 HD
ATOM      6  H   UNL     1       5.523   4.248  -3.036  0.00  0.00    +0.159 HD
ATOM      7  H   UNL     1       6.018   3.800  -1.447  0.00  0.00    +0.159 HD
ATOM      8  H   UNL     1       2.830   1.983  -3.264  0.00  0.00    +0.159 HD
ATOM      9  H   UNL     1       3.720   3.220  -4.062  0.00  0.00    +0.159 HD
ENDROOT
BRANCH   1  10
ATOM     10  C   UNL     1       3.168   1.027  -0.905  0.00  0.00    +0.151 C 
BRANCH  10  11
ATOM     11  C   UNL     1       2.118   1.614  -0.002  0.00  0.00    -0.028 A 
ATOM     12  C   UNL     1       2.392   1.840   1.355  0.00  0.00    +0.005 A 
ATOM     13  C   UNL     1       0.849   1.950  -0.498  0.00  0.00    +0.005 A 
ATOM     14  C   UNL     1       1.427   2.413   2.188  0.00  0.00    +0.000 A 
ATOM     15  C   UNL     1      -0.112   2.521   0.337  0.00  0.00    +0.000 A 
ATOM     16  C   UNL     1       0.179   2.754   1.679  0.00  0.00    +0.000 A 
ENDBRANCH  10  11
ENDBRANCH   1  10
TORSDOF 2
ENDMDL
MODEL 3
REMARK VINA RESULT:    -5.586      4.468      5.569
REMARK INTER + INTRA:          -6.334
REMARK INTER:                  -6.252
REMARK INTRA:                  -0.081
REMARK UNBOUND:                -0.095
REMARK  Name = 1550473
REMARK  2 active torsions:
REMARK  status: ('A' for Active; 'I' for Inactive)
REMARK    1  A    between atoms: N_1  and  C_4
REMARK    2  A    between atoms: C_4  and  C_5
REMARK                            x       y       z     vdW  Elec       q    Type
REMARK                         _______ _______ _______ _____ _____    ______ ____
ROOT
ATOM      1  N   UNL     1       3.605   3.658  -1.333  0.00  0.00    -0.354 N 
ATOM      2  N   UNL     1       5.715   4.145  -2.154  0.00  0.00    -0.372 N 
ATOM      3  N   UNL     1       4.072   5.739  -2.305  0.00  0.00    -0.372 N 
ATOM      4  C   UNL     1       4.449   4.513  -1.926  0.00  0.00    +0.166 C 
ATOM      5  H   UNL     1       3.944   2.733  -1.098  0.00  0.00    +0.163 HD
ATOM      6  H   UNL     1       6.376   4.770  -2.597  0.00  0.00    +0.159 HD
ATOM      7  H   UNL     1       6.064   3.236  -1.876  0.00  0.00    +0.159 HD
ATOM      8  H   UNL     1       3.128   6.076  -2.167  0.00  0.00    +0.159 HD
ATOM      9  H   UNL     1       4.715   6.375  -2.760  0.00  0.00    +0.159 HD
ENDROOT
BRANCH   1  10
ATOM     10  C   UNL     1       2.220   3.981  -0.992  0.00  0.00    +0.151 C 
BRANCH  10  11
ATOM     11  C   UNL     1       1.299   3.190  -1.879  0.00  0.00    -0.028 A 
ATOM     12  C   UNL     1       1.782   2.586  -3.049  0.00  0.00    +0.005 A 
ATOM     13  C   UNL     1      -0.058   3.037  -1.553  0.00  0.00    +0.005 A 
ATOM     14  C   UNL     1       0.933   1.827  -3.858  0.00  0.00    +0.000 A 
ATOM     15  C   UNL     1      -0.902   2.279  -2.363  0.00  0.00    +0.000 A 
ATOM     16  C   UNL     1      -0.406   1.672  -3.514  0.00  0.00    +0.000 A 
ENDBRANCH  10  11
ENDBRANCH   1  10
TORSDOF 2
ENDMDL
MODEL 4
REMARK VINA RESULT:    -5.586      3.678      4.569
REMARK INTER + INTRA:          -6.334
REMARK INTER:                  -6.155
REMARK INTRA:                  -0.179
REMARK UNBOUND:                -0.095
REMARK  Name = 1550473
REMARK  2 active torsions:
REMARK  status: ('A' for Active; 'I' for Inactive)
REMARK    1  A    between atoms: N_1  and  C_4
REMARK    2  A    between atoms: C_4  and  C_5
REMARK                            x       y       z     vdW  Elec       q    Type
REMARK                         _______ _______ _______ _____ _____    ______ ____
ROOT
ATOM      1  N   UNL     1       4.339   2.909  -1.797  0.00  0.00    -0.354 N 
ATOM      2  N   UNL     1       5.915   4.595  -1.993  0.00  0.00    -0.372 N 
ATOM      3  N   UNL     1       3.696   5.113  -2.268  0.00  0.00    -0.372 N 
ATOM      4  C   UNL     1       4.637   4.196  -2.019  0.00  0.00    +0.166 C 
ATOM      5  H   UNL     1       5.101   2.258  -1.644  0.00  0.00    +0.163 HD
ATOM      6  H   UNL     1       6.170   5.561  -2.153  0.00  0.00    +0.159 HD
ATOM      7  H   UNL     1       6.670   3.951  -1.794  0.00  0.00    +0.159 HD
ATOM      8  H   UNL     1       2.714   4.875  -2.307  0.00  0.00    +0.159 HD
ATOM      9  H   UNL     1       3.933   6.081  -2.442  0.00  0.00    +0.159 HD
ENDROOT
BRANCH   1  10
ATOM     10  C   UNL     1       2.977   2.381  -1.750  0.00  0.00    +0.151 C 
BRANCH  10  11
ATOM     11  C   UNL     1       2.523   2.320  -0.318  0.00  0.00    -0.028 A 
ATOM     12  C   UNL     1       2.972   1.296   0.528  0.00  0.00    +0.005 A 
ATOM     13  C   UNL     1       1.647   3.287   0.200  0.00  0.00    +0.005 A 
ATOM     14  C   UNL     1       2.574   1.256   1.867  0.00  0.00    +0.000 A 
ATOM     15  C   UNL     1       1.252   3.243   1.537  0.00  0.00    +0.000 A 
ATOM     16  C   UNL     1       1.717   2.229   2.371  0.00  0.00    +0.000 A 
ENDBRANCH  10  11
ENDBRANCH   1  10
TORSDOF 2
ENDMDL
MODEL 5
REMARK VINA RESULT:    -5.568      2.846      3.960
REMARK INTER + INTRA:          -6.314
REMARK INTER:                  -6.150
REMARK INTRA:                  -0.164
REMARK UNBOUND:                -0.095
REMARK  Name = 1550473
REMARK  2 active torsions:
REMARK  status: ('A' for Active; 'I' for Inactive)
REMARK    1  A    between atoms: N_1  and  C_4
REMARK    2  A    between atoms: C_4  and  C_5
REMARK                            x       y       z     vdW  Elec       q    Type
REMARK                         _______ _______ _______ _____ _____    ______ ____
ROOT
ATOM      1  N   UNL     1       0.292   0.835   0.748  0.00  0.00    -0.354 N 
ATOM      2  N   UNL     1       1.020  -1.257   1.426  0.00  0.00    -0.372 N 
ATOM      3  N   UNL     1       2.390   0.554   1.755  0.00  0.00    -0.372 N 
ATOM      4  C   UNL     1       1.232   0.059   1.306  0.00  0.00    +0.166 C 
ATOM      5  H   UNL     1      -0.551   0.394   0.400  0.00  0.00    +0.163 HD
ATOM      6  H   UNL     1       1.709  -1.867   1.846  0.00  0.00    +0.159 HD
ATOM      7  H   UNL     1       0.156  -1.688   1.120  0.00  0.00    +0.159 HD
ATOM      8  H   UNL     1       2.614   1.538   1.688  0.00  0.00    +0.159 HD
ATOM      9  H   UNL     1       3.097  -0.042   2.167  0.00  0.00    +0.159 HD
ENDROOT
BRANCH   1  10
ATOM     10  C   UNL     1       0.402   2.286   0.618  0.00  0.00    +0.151 C 
BRANCH  10  11
ATOM     11  C   UNL     1       0.867   2.622  -0.772  0.00  0.00    -0.028 A 
ATOM     12  C   UNL     1       0.387   1.902  -1.876  0.00  0.00    +0.005 A 
ATOM     13  C   UNL     1       1.783   3.662  -0.993  0.00  0.00    +0.005 A 
ATOM     14  C   UNL     1       0.795   2.233  -3.171  0.00  0.00    +0.000 A 
ATOM     15  C   UNL     1       2.189   3.988  -2.286  0.00  0.00    +0.000 A 
ATOM     16  C   UNL     1       1.693   3.275  -3.375  0.00  0.00    +0.000 A 
ENDBRANCH  10  11
ENDBRANCH   1  10
TORSDOF 2
ENDMDL
MODEL 6
REMARK VINA RESULT:    -5.514      2.259      2.739
REMARK INTER + INTRA:          -6.254
REMARK INTER:                  -6.078
REMARK INTRA:                  -0.176
REMARK UNBOUND:                -0.095
REMARK  Name = 1550473
REMARK  2 active torsions:
REMARK  status: ('A' for Active; 'I' for Inactive)
REMARK    1  A    between atoms: N_1  and  C_4
REMARK    2  A    between atoms: C_4  and  C_5
REMARK                            x       y       z     vdW  Elec       q    Type
REMARK                         _______ _______ _______ _____ _____    ______ ____
ROOT
ATOM      1  N   UNL     1       3.426   0.582  -1.896  0.00  0.00    -0.354 N 
ATOM      2  N   UNL     1       3.888  -1.269  -0.582  0.00  0.00    -0.372 N 
ATOM      3  N   UNL     1       4.817   0.752  -0.018  0.00  0.00    -0.372 N 
ATOM      4  C   UNL     1       4.042   0.036  -0.839  0.00  0.00    +0.166 C 
ATOM      5  H   UNL     1       2.877  -0.021  -2.498  0.00  0.00    +0.163 HD
ATOM      6  H   UNL     1       4.337  -1.708   0.210  0.00  0.00    +0.159 HD
ATOM      7  H   UNL     1       3.301  -1.860  -1.159  0.00  0.00    +0.159 HD
ATOM      8  H   UNL     1       4.979   1.740  -0.160  0.00  0.00    +0.159 HD
ATOM      9  H   UNL     1       5.285   0.328   0.774  0.00  0.00    +0.159 HD
ENDROOT
BRANCH   1  10
ATOM     10  C   UNL     1       3.486   2.003  -2.233  0.00  0.00    +0.151 C 
BRANCH  10  11
ATOM     11  C   UNL     1       2.278   2.694  -1.663  0.00  0.00    -0.028 A 
ATOM     12  C   UNL     1       0.990   2.199  -1.914  0.00  0.00    +0.005 A 
ATOM     13  C   UNL     1       2.416   3.842  -0.866  0.00  0.00    +0.005 A 
ATOM     14  C   UNL     1      -0.130   2.824  -1.360  0.00  0.00    +0.000 A 
ATOM     15  C   UNL     1       1.295   4.462  -0.316  0.00  0.00    +0.000 A 
ATOM     16  C   UNL     1       0.022   3.952  -0.561  0.00  0.00    +0.000 A 
ENDBRANCH  10  11
ENDBRANCH   1  10
TORSDOF 2
ENDMDL
MODEL 7
REMARK VINA RESULT:    -5.441      2.518      3.142
REMARK INTER + INTRA:          -6.172
REMARK INTER:                  -6.031
REMARK INTRA:                  -0.141
REMARK UNBOUND:                -0.095
REMARK  Name = 1550473
REMARK  2 active torsions:
REMARK  status: ('A' for Active; 'I' for Inactive)
REMARK    1  A    between atoms: N_1  and  C_4
REMARK    2  A    between atoms: C_4  and  C_5
REMARK                            x       y       z     vdW  Elec       q    Type
REMARK                         _______ _______ _______ _____ _____    ______ ____
ROOT
ATOM      1  N   UNL     1       1.960   0.261   0.395  0.00  0.00    -0.354 N 
ATOM      2  N   UNL     1       0.826  -1.443   1.479  0.00  0.00    -0.372 N 
ATOM      3  N   UNL     1       1.907   0.144   2.735  0.00  0.00    -0.372 N 
ATOM      4  C   UNL     1       1.573  -0.333   1.531  0.00  0.00    +0.166 C 
ATOM      5  H   UNL     1       1.699  -0.167  -0.486  0.00  0.00    +0.163 HD
ATOM      6  H   UNL     1       0.516  -1.911   2.319  0.00  0.00    +0.159 HD
ATOM      7  H   UNL     1       0.528  -1.843   0.597  0.00  0.00    +0.159 HD
ATOM      8  H   UNL     1       2.474   0.974   2.843  0.00  0.00    +0.159 HD
ATOM      9  H   UNL     1       1.616  -0.318   3.588  0.00  0.00    +0.159 HD
ENDROOT
BRANCH   1  10
ATOM     10  C   UNL     1       2.730   1.503   0.343  0.00  0.00    +0.151 C 
BRANCH  10  11
ATOM     11  C   UNL     1       1.783   2.670   0.388  0.00  0.00    -0.028 A 
ATOM     12  C   UNL     1       0.852   2.872  -0.641  0.00  0.00    +0.005 A 
ATOM     13  C   UNL     1       1.808   3.575   1.461  0.00  0.00    +0.005 A 
ATOM     14  C   UNL     1      -0.047   3.939  -0.585  0.00  0.00    +0.000 A 
ATOM     15  C   UNL     1       0.908   4.640   1.513  0.00  0.00    +0.000 A 
ATOM     16  C   UNL     1      -0.021   4.820   0.491  0.00  0.00    +0.000 A 
ENDBRANCH  10  11
ENDBRANCH   1  10
TORSDOF 2
ENDMDL
MODEL 8
REMARK VINA RESULT:    -5.182      4.202      5.369
REMARK INTER + INTRA:          -5.883
REMARK INTER:                  -5.709
REMARK INTRA:                  -0.174
REMARK UNBOUND:                -0.095
REMARK  Name = 1550473
REMARK  2 active torsions:
REMARK  status: ('A' for Active; 'I' for Inactive)
REMARK    1  A    between atoms: N_1  and  C_4
REMARK    2  A    between atoms: C_4  and  C_5
REMARK                            x       y       z     vdW  Elec       q    Type
REMARK                         _______ _______ _______ _____ _____    ______ ____
ROOT
ATOM      1  N   UNL     1       0.454   3.383   0.820  0.00  0.00    -0.354 N 
ATOM      2  N   UNL     1       1.120   2.100   2.630  0.00  0.00    -0.372 N 
ATOM      3  N   UNL     1       2.722   3.130   1.350  0.00  0.00    -0.372 N 
ATOM      4  C   UNL     1       1.430   2.880   1.587  0.00  0.00    +0.166 C 
ATOM      5  H   UNL     1      -0.504   3.131   1.034  0.00  0.00    +0.163 HD
ATOM      6  H   UNL     1       1.836   1.709   3.228  0.00  0.00    +0.159 HD
ATOM      7  H   UNL     1       0.160   1.887   2.869  0.00  0.00    +0.159 HD
ATOM      8  H   UNL     1       3.023   3.706   0.575  0.00  0.00    +0.159 HD
ATOM      9  H   UNL     1       3.453   2.739   1.931  0.00  0.00    +0.159 HD
ENDROOT
BRANCH   1  10
ATOM     10  C   UNL     1       0.682   4.286  -0.306  0.00  0.00    +0.151 C 
BRANCH  10  11
ATOM     11  C   UNL     1       0.631   3.498  -1.586  0.00  0.00    -0.028 A 
ATOM     12  C   UNL     1       1.661   3.608  -2.531  0.00  0.00    +0.005 A 
ATOM     13  C   UNL     1      -0.442   2.635  -1.857  0.00  0.00    +0.005 A 
ATOM     14  C   UNL     1       1.630   2.854  -3.707  0.00  0.00    +0.000 A 
ATOM     15  C   UNL     1      -0.470   1.884  -3.032  0.00  0.00    +0.000 A 
ATOM     16  C   UNL     1       0.567   1.992  -3.955  0.00  0.00    +0.000 A 
ENDBRANCH  10  11
ENDBRANCH   1  10
TORSDOF 2
ENDMDL
MODEL 9
REMARK VINA RESULT:    -5.098      4.054      4.685
REMARK INTER + INTRA:          -5.790
REMARK INTER:                  -5.689
REMARK INTRA:                  -0.101
REMARK UNBOUND:                -0.095
REMARK  Name = 1550473
REMARK  2 active torsions:
REMARK  status: ('A' for Active; 'I' for Inactive)
REMARK    1  A    between atoms: N_1  and  C_4
REMARK    2  A    between atoms: C_4  and  C_5
REMARK                            x       y       z     vdW  Elec       q    Type
REMARK                         _______ _______ _______ _____ _____    ______ ____
ROOT
ATOM      1  N   UNL     1       0.067   2.055  -2.823  0.00  0.00    -0.354 N 
ATOM      2  N   UNL     1       0.524   1.690  -5.064  0.00  0.00    -0.372 N 
ATOM      3  N   UNL     1      -1.519   1.059  -4.232  0.00  0.00    -0.372 N 
ATOM      4  C   UNL     1      -0.315   1.603  -4.025  0.00  0.00    +0.166 C 
ATOM      5  H   UNL     1       1.004   2.429  -2.725  0.00  0.00    +0.163 HD
ATOM      6  H   UNL     1       0.262   1.360  -5.984  0.00  0.00    +0.159 HD
ATOM      7  H   UNL     1       1.443   2.106  -4.974  0.00  0.00    +0.159 HD
ATOM      8  H   UNL     1      -2.197   0.959  -3.487  0.00  0.00    +0.159 HD
ATOM      9  H   UNL     1      -1.795   0.713  -5.142  0.00  0.00    +0.159 HD
ENDROOT
BRANCH   1  10
ATOM     10  C   UNL     1      -0.791   2.056  -1.639  0.00  0.00    +0.151 C 
BRANCH  10  11
ATOM     11  C   UNL     1      -0.084   2.771  -0.521  0.00  0.00    -0.028 A 
ATOM     12  C   UNL     1       0.237   2.095   0.666  0.00  0.00    +0.005 A 
ATOM     13  C   UNL     1       0.273   4.122  -0.644  0.00  0.00    +0.005 A 
ATOM     14  C   UNL     1       0.921   2.751   1.693  0.00  0.00    +0.000 A 
ATOM     15  C   UNL     1       0.955   4.773   0.384  0.00  0.00    +0.000 A 
ATOM     16  C   UNL     1       1.280   4.086   1.551  0.00  0.00    +0.000 A 
ENDBRANCH  10  11
ENDBRANCH   1  10
TORSDOF 2
ENDMDL
