MODEL 1
REMARK VINA RESULT:    -5.042      0.000      0.000
REMARK INTER + INTRA:          -5.747
REMARK INTER:                  -5.632
REMARK INTRA:                  -0.115
REMARK UNBOUND:                -0.115
REMARK  Name = 1550473
REMARK  2 active torsions:
REMARK  status: ('A' for Active; 'I' for Inactive)
REMARK    1  A    between atoms: N_1  and  C_4
REMARK    2  A    between atoms: C_4  and  C_5
REMARK                            x       y       z     vdW  Elec       q    Type
REMARK                         _______ _______ _______ _____ _____    ______ ____
ROOT
ATOM      1  N   UNL     1     -10.284  -7.381  -0.950  0.00  0.00    -0.354 N 
ATOM      2  N   UNL     1     -11.222  -5.528  -1.976  0.00  0.00    -0.372 N 
ATOM      3  N   UNL     1     -10.298  -7.172  -3.284  0.00  0.00    -0.372 N 
ATOM      4  C   UNL     1     -10.594  -6.707  -2.066  0.00  0.00    +0.166 C 
ATOM      5  H   UNL     1     -10.508  -6.960  -0.056  0.00  0.00    +0.163 HD
ATOM      6  H   UNL     1     -11.471  -4.999  -2.801  0.00  0.00    +0.159 HD
ATOM      7  H   UNL     1     -11.486  -5.132  -1.083  0.00  0.00    +0.159 HD
ATOM      8  H   UNL     1      -9.819  -8.052  -3.420  0.00  0.00    +0.159 HD
ATOM      9  H   UNL     1     -10.529  -6.651  -4.121  0.00  0.00    +0.159 HD
ENDROOT
BRANCH   1  10
ATOM     10  C   UNL     1      -9.648  -8.697  -0.940  0.00  0.00    +0.151 C 
BRANCH  10  11
ATOM     11  C   UNL     1      -8.904  -8.873   0.354  0.00  0.00    -0.028 A 
ATOM     12  C   UNL     1      -9.140  -9.993   1.165  0.00  0.00    +0.005 A 
ATOM     13  C   UNL     1      -7.956  -7.926   0.773  0.00  0.00    +0.005 A 
ATOM     14  C   UNL     1      -8.426 -10.172   2.353  0.00  0.00    +0.000 A 
ATOM     15  C   UNL     1      -7.247  -8.108   1.960  0.00  0.00    +0.000 A 
ATOM     16  C   UNL     1      -7.480  -9.233   2.748  0.00  0.00    +0.000 A 
ENDBRANCH  10  11
ENDBRANCH   1  10
TORSDOF 2
ENDMDL
MODEL 2
REMARK VINA RESULT:    -4.694      8.162      8.742
REMARK INTER + INTRA:          -5.358
REMARK INTER:                  -5.222
REMARK INTRA:                  -0.137
REMARK UNBOUND:                -0.115
REMARK  Name = 1550473
REMARK  2 active torsions:
REMARK  status: ('A' for Active; 'I' for Inactive)
REMARK    1  A    between atoms: N_1  and  C_4
REMARK    2  A    between atoms: C_4  and  C_5
REMARK                            x       y       z     vdW  Elec       q    Type
REMARK                         _______ _______ _______ _____ _____    ______ ____
ROOT
ATOM      1  N   UNL     1     -14.129  -4.075   5.940  0.00  0.00    -0.354 N 
ATOM      2  N   UNL     1     -16.271  -3.763   6.762  0.00  0.00    -0.372 N 
ATOM      3  N   UNL     1     -15.677  -2.738   4.797  0.00  0.00    -0.372 N 
ATOM      4  C   UNL     1     -15.345  -3.525   5.825  0.00  0.00    +0.166 C 
ATOM      5  H   UNL     1     -13.930  -4.638   6.759  0.00  0.00    +0.163 HD
ATOM      6  H   UNL     1     -17.199  -3.365   6.701  0.00  0.00    +0.159 HD
ATOM      7  H   UNL     1     -16.084  -4.363   7.556  0.00  0.00    +0.159 HD
ATOM      8  H   UNL     1     -15.022  -2.515   4.060  0.00  0.00    +0.159 HD
ATOM      9  H   UNL     1     -16.597  -2.320   4.724  0.00  0.00    +0.159 HD
ENDROOT
BRANCH   1  10
ATOM     10  C   UNL     1     -13.066  -3.923   4.947  0.00  0.00    +0.151 C 
BRANCH  10  11
ATOM     11  C   UNL     1     -11.769  -3.645   5.655  0.00  0.00    -0.028 A 
ATOM     12  C   UNL     1     -10.665  -3.145   4.949  0.00  0.00    +0.005 A 
ATOM     13  C   UNL     1     -11.639  -3.874   7.034  0.00  0.00    +0.005 A 
ATOM     14  C   UNL     1      -9.469  -2.858   5.611  0.00  0.00    +0.000 A 
ATOM     15  C   UNL     1     -10.442  -3.587   7.691  0.00  0.00    +0.000 A 
ATOM     16  C   UNL     1      -9.359  -3.077   6.981  0.00  0.00    +0.000 A 
ENDBRANCH  10  11
ENDBRANCH   1  10
TORSDOF 2
ENDMDL
MODEL 3
REMARK VINA RESULT:    -4.673     24.668     25.874
REMARK INTER + INTRA:          -5.334
REMARK INTER:                  -5.201
REMARK INTRA:                  -0.133
REMARK UNBOUND:                -0.115
REMARK  Name = 1550473
REMARK  2 active torsions:
REMARK  status: ('A' for Active; 'I' for Inactive)
REMARK    1  A    between atoms: N_1  and  C_4
REMARK    2  A    between atoms: C_4  and  C_5
REMARK                            x       y       z     vdW  Elec       q    Type
REMARK                         _______ _______ _______ _____ _____    ______ ____
ROOT
ATOM      1  N   UNL     1      -3.095  14.727   8.358  0.00  0.00    -0.354 N 
ATOM      2  N   UNL     1      -4.376  13.793   6.669  0.00  0.00    -0.372 N 
ATOM      3  N   UNL     1      -3.566  15.923   6.398  0.00  0.00    -0.372 N 
ATOM      4  C   UNL     1      -3.670  14.823   7.152  0.00  0.00    +0.166 C 
ATOM      5  H   UNL     1      -3.236  13.877   8.892  0.00  0.00    +0.163 HD
ATOM      6  H   UNL     1      -4.819  13.835   5.761  0.00  0.00    +0.159 HD
ATOM      7  H   UNL     1      -4.477  12.928   7.186  0.00  0.00    +0.159 HD
ATOM      8  H   UNL     1      -3.053  16.737   6.708  0.00  0.00    +0.159 HD
ATOM      9  H   UNL     1      -4.012  15.989   5.492  0.00  0.00    +0.159 HD
ENDROOT
BRANCH   1  10
ATOM     10  C   UNL     1      -2.261  15.770   8.951  0.00  0.00    +0.151 C 
BRANCH  10  11
ATOM     11  C   UNL     1      -1.015  15.143   9.513  0.00  0.00    -0.028 A 
ATOM     12  C   UNL     1       0.156  15.899   9.666  0.00  0.00    +0.005 A 
ATOM     13  C   UNL     1      -1.001  13.794   9.900  0.00  0.00    +0.005 A 
ATOM     14  C   UNL     1       1.305  15.325  10.215  0.00  0.00    +0.000 A 
ATOM     15  C   UNL     1       0.148  13.225  10.448  0.00  0.00    +0.000 A 
ATOM     16  C   UNL     1       1.300  13.991  10.608  0.00  0.00    +0.000 A 
ENDBRANCH  10  11
ENDBRANCH   1  10
TORSDOF 2
ENDMDL
MODEL 4
REMARK VINA RESULT:    -4.549      7.813      9.476
REMARK INTER + INTRA:          -5.196
REMARK INTER:                  -5.042
REMARK INTRA:                  -0.154
REMARK UNBOUND:                -0.115
REMARK  Name = 1550473
REMARK  2 active torsions:
REMARK  status: ('A' for Active; 'I' for Inactive)
REMARK    1  A    between atoms: N_1  and  C_4
REMARK    2  A    between atoms: C_4  and  C_5
REMARK                            x       y       z     vdW  Elec       q    Type
REMARK                         _______ _______ _______ _____ _____    ______ ____
ROOT
ATOM      1  N   UNL     1     -13.122   1.428   2.493  0.00  0.00    -0.354 N 
ATOM      2  N   UNL     1     -15.203   1.575   3.500  0.00  0.00    -0.372 N 
ATOM      3  N   UNL     1     -15.031   1.969   1.246  0.00  0.00    -0.372 N 
ATOM      4  C   UNL     1     -14.439   1.657   2.404  0.00  0.00    +0.166 C 
ATOM      5  H   UNL     1     -12.730   1.226   3.406  0.00  0.00    +0.163 HD
ATOM      6  H   UNL     1     -16.200   1.739   3.462  0.00  0.00    +0.159 HD
ATOM      7  H   UNL     1     -14.816   1.327   4.402  0.00  0.00    +0.159 HD
ATOM      8  H   UNL     1     -14.509   2.053   0.383  0.00  0.00    +0.159 HD
ATOM      9  H   UNL     1     -16.026   2.148   1.190  0.00  0.00    +0.159 HD
ENDROOT
BRANCH   1  10
ATOM     10  C   UNL     1     -12.211   1.440   1.351  0.00  0.00    +0.151 C 
BRANCH  10  11
ATOM     11  C   UNL     1     -11.841   0.024   1.002  0.00  0.00    -0.028 A 
ATOM     12  C   UNL     1     -11.859  -0.978   1.983  0.00  0.00    +0.005 A 
ATOM     13  C   UNL     1     -11.479  -0.322  -0.308  0.00  0.00    +0.005 A 
ATOM     14  C   UNL     1     -11.545  -2.299   1.654  0.00  0.00    +0.000 A 
ATOM     15  C   UNL     1     -11.166  -1.642  -0.633  0.00  0.00    +0.000 A 
ATOM     16  C   UNL     1     -11.201  -2.630   0.348  0.00  0.00    +0.000 A 
ENDBRANCH  10  11
ENDBRANCH   1  10
TORSDOF 2
ENDMDL
MODEL 5
REMARK VINA RESULT:    -4.529     25.398     26.311
REMARK INTER + INTRA:          -5.173
REMARK INTER:                  -5.008
REMARK INTRA:                  -0.165
REMARK UNBOUND:                -0.115
REMARK  Name = 1550473
REMARK  2 active torsions:
REMARK  status: ('A' for Active; 'I' for Inactive)
REMARK    1  A    between atoms: N_1  and  C_4
REMARK    2  A    between atoms: C_4  and  C_5
REMARK                            x       y       z     vdW  Elec       q    Type
REMARK                         _______ _______ _______ _____ _____    ______ ____
ROOT
ATOM      1  N   UNL     1      12.259   6.930  -5.243  0.00  0.00    -0.354 N 
ATOM      2  N   UNL     1      12.354   6.944  -2.929  0.00  0.00    -0.372 N 
ATOM      3  N   UNL     1      12.098   8.935  -4.040  0.00  0.00    -0.372 N 
ATOM      4  C   UNL     1      12.236   7.606  -4.087  0.00  0.00    +0.166 C 
ATOM      5  H   UNL     1      12.397   5.927  -5.212  0.00  0.00    +0.163 HD
ATOM      6  H   UNL     1      12.338   7.426  -2.041  0.00  0.00    +0.159 HD
ATOM      7  H   UNL     1      12.446   5.936  -2.899  0.00  0.00    +0.159 HD
ATOM      8  H   UNL     1      12.011   9.494  -4.879  0.00  0.00    +0.159 HD
ATOM      9  H   UNL     1      12.091   9.437  -3.161  0.00  0.00    +0.159 HD
ENDROOT
BRANCH   1  10
ATOM     10  C   UNL     1      12.084   7.550  -6.556  0.00  0.00    +0.151 C 
BRANCH  10  11
ATOM     11  C   UNL     1      10.703   7.241  -7.065  0.00  0.00    -0.028 A 
ATOM     12  C   UNL     1      10.183   5.942  -6.969  0.00  0.00    +0.005 A 
ATOM     13  C   UNL     1       9.908   8.244  -7.640  0.00  0.00    +0.005 A 
ATOM     14  C   UNL     1       8.889   5.661  -7.415  0.00  0.00    +0.000 A 
ATOM     15  C   UNL     1       8.617   7.960  -8.084  0.00  0.00    +0.000 A 
ATOM     16  C   UNL     1       8.107   6.669  -7.969  0.00  0.00    +0.000 A 
ENDBRANCH  10  11
ENDBRANCH   1  10
TORSDOF 2
ENDMDL
MODEL 6
REMARK VINA RESULT:    -4.489     19.277     20.205
REMARK INTER + INTRA:          -5.129
REMARK INTER:                  -4.983
REMARK INTRA:                  -0.146
REMARK UNBOUND:                -0.115
REMARK  Name = 1550473
REMARK  2 active torsions:
REMARK  status: ('A' for Active; 'I' for Inactive)
REMARK    1  A    between atoms: N_1  and  C_4
REMARK    2  A    between atoms: C_4  and  C_5
REMARK                            x       y       z     vdW  Elec       q    Type
REMARK                         _______ _______ _______ _____ _____    ______ ____
ROOT
ATOM      1  N   UNL     1       6.905  -6.389  -9.466  0.00  0.00    -0.354 N 
ATOM      2  N   UNL     1       7.757  -8.132  -8.201  0.00  0.00    -0.372 N 
ATOM      3  N   UNL     1       9.191  -6.515  -8.970  0.00  0.00    -0.372 N 
ATOM      4  C   UNL     1       7.948  -6.999  -8.888  0.00  0.00    +0.166 C 
ATOM      5  H   UNL     1       5.992  -6.823  -9.393  0.00  0.00    +0.163 HD
ATOM      6  H   UNL     1       8.524  -8.613  -7.751  0.00  0.00    +0.159 HD
ATOM      7  H   UNL     1       6.836  -8.539  -8.091  0.00  0.00    +0.159 HD
ATOM      8  H   UNL     1       9.403  -5.667  -9.478  0.00  0.00    +0.159 HD
ATOM      9  H   UNL     1       9.974  -6.988  -8.536  0.00  0.00    +0.159 HD
ENDROOT
BRANCH   1  10
ATOM     10  C   UNL     1       6.997  -5.123 -10.191  0.00  0.00    +0.151 C 
BRANCH  10  11
ATOM     11  C   UNL     1       6.381  -5.291 -11.553  0.00  0.00    -0.028 A 
ATOM     12  C   UNL     1       5.337  -4.452 -11.970  0.00  0.00    +0.005 A 
ATOM     13  C   UNL     1       6.841  -6.283 -12.432  0.00  0.00    +0.005 A 
ATOM     14  C   UNL     1       4.785  -4.587 -13.246  0.00  0.00    +0.000 A 
ATOM     15  C   UNL     1       6.286  -6.415 -13.705  0.00  0.00    +0.000 A 
ATOM     16  C   UNL     1       5.261  -5.566 -14.113  0.00  0.00    +0.000 A 
ENDBRANCH  10  11
ENDBRANCH   1  10
TORSDOF 2
ENDMDL
MODEL 7
REMARK VINA RESULT:    -4.431     12.258     13.743
REMARK INTER + INTRA:          -5.064
REMARK INTER:                  -4.932
REMARK INTRA:                  -0.132
REMARK UNBOUND:                -0.115
REMARK  Name = 1550473
REMARK  2 active torsions:
REMARK  status: ('A' for Active; 'I' for Inactive)
REMARK    1  A    between atoms: N_1  and  C_4
REMARK    2  A    between atoms: C_4  and  C_5
REMARK                            x       y       z     vdW  Elec       q    Type
REMARK                         _______ _______ _______ _____ _____    ______ ____
ROOT
ATOM      1  N   UNL     1      -8.017 -12.308 -11.254  0.00  0.00    -0.354 N 
ATOM      2  N   UNL     1      -9.085 -11.049  -9.629  0.00  0.00    -0.372 N 
ATOM      3  N   UNL     1      -9.875 -10.980 -11.783  0.00  0.00    -0.372 N 
ATOM      4  C   UNL     1      -8.987 -11.453 -10.901  0.00  0.00    +0.166 C 
ATOM      5  H   UNL     1      -7.357 -12.606 -10.545  0.00  0.00    +0.163 HD
ATOM      6  H   UNL     1      -9.808 -10.407  -9.333  0.00  0.00    +0.159 HD
ATOM      7  H   UNL     1      -8.452 -11.384  -8.913  0.00  0.00    +0.159 HD
ATOM      8  H   UNL     1      -9.851 -11.242 -12.759  0.00  0.00    +0.159 HD
ATOM      9  H   UNL     1     -10.599 -10.328 -11.508  0.00  0.00    +0.159 HD
ENDROOT
BRANCH   1  10
ATOM     10  C   UNL     1      -7.856 -12.851 -12.601  0.00  0.00    +0.151 C 
BRANCH  10  11
ATOM     11  C   UNL     1      -6.431 -12.659 -13.041  0.00  0.00    -0.028 A 
ATOM     12  C   UNL     1      -6.135 -12.318 -14.369  0.00  0.00    +0.005 A 
ATOM     13  C   UNL     1      -5.372 -12.812 -12.133  0.00  0.00    +0.005 A 
ATOM     14  C   UNL     1      -4.814 -12.110 -14.771  0.00  0.00    +0.000 A 
ATOM     15  C   UNL     1      -4.053 -12.604 -12.539  0.00  0.00    +0.000 A 
ATOM     16  C   UNL     1      -3.775 -12.251 -13.857  0.00  0.00    +0.000 A 
ENDBRANCH  10  11
ENDBRANCH   1  10
TORSDOF 2
ENDMDL
MODEL 8
REMARK VINA RESULT:    -4.414     22.673     23.797
REMARK INTER + INTRA:          -5.045
REMARK INTER:                  -4.934
REMARK INTRA:                  -0.111
REMARK UNBOUND:                -0.115
REMARK  Name = 1550473
REMARK  2 active torsions:
REMARK  status: ('A' for Active; 'I' for Inactive)
REMARK    1  A    between atoms: N_1  and  C_4
REMARK    2  A    between atoms: C_4  and  C_5
REMARK                            x       y       z     vdW  Elec       q    Type
REMARK                         _______ _______ _______ _____ _____    ______ ____
ROOT
ATOM      1  N   UNL     1      -3.261  13.876   9.876  0.00  0.00    -0.354 N 
ATOM      2  N   UNL     1      -1.185  14.250  10.833  0.00  0.00    -0.372 N 
ATOM      3  N   UNL     1      -1.553  14.939   8.675  0.00  0.00    -0.372 N 
ATOM      4  C   UNL     1      -2.013  14.353   9.786  0.00  0.00    +0.166 C 
ATOM      5  H   UNL     1      -3.540  13.416  10.736  0.00  0.00    +0.163 HD
ATOM      6  H   UNL     1      -0.239  14.604  10.795  0.00  0.00    +0.159 HD
ATOM      7  H   UNL     1      -1.481  13.831  11.706  0.00  0.00    +0.159 HD
ATOM      8  H   UNL     1      -2.125  15.042   7.848  0.00  0.00    +0.159 HD
ATOM      9  H   UNL     1      -0.605  15.289   8.614  0.00  0.00    +0.159 HD
ENDROOT
BRANCH   1  10
ATOM     10  C   UNL     1      -4.258  13.986   8.813  0.00  0.00    +0.151 C 
BRANCH  10  11
ATOM     11  C   UNL     1      -5.157  12.781   8.855  0.00  0.00    -0.028 A 
ATOM     12  C   UNL     1      -5.704  12.343  10.070  0.00  0.00    +0.005 A 
ATOM     13  C   UNL     1      -5.471  12.077   7.683  0.00  0.00    +0.005 A 
ATOM     14  C   UNL     1      -6.563  11.242  10.106  0.00  0.00    +0.000 A 
ATOM     15  C   UNL     1      -6.328  10.978   7.722  0.00  0.00    +0.000 A 
ATOM     16  C   UNL     1      -6.876  10.562   8.934  0.00  0.00    +0.000 A 
ENDBRANCH  10  11
ENDBRANCH   1  10
TORSDOF 2
ENDMDL
MODEL 9
REMARK VINA RESULT:    -4.343      8.628      8.990
REMARK INTER + INTRA:          -4.966
REMARK INTER:                  -4.846
REMARK INTRA:                  -0.121
REMARK UNBOUND:                -0.115
REMARK  Name = 1550473
REMARK  2 active torsions:
REMARK  status: ('A' for Active; 'I' for Inactive)
REMARK    1  A    between atoms: N_1  and  C_4
REMARK    2  A    between atoms: C_4  and  C_5
REMARK                            x       y       z     vdW  Elec       q    Type
REMARK                         _______ _______ _______ _____ _____    ______ ____
ROOT
ATOM      1  N   UNL     1     -16.343  -5.480   5.445  0.00  0.00    -0.354 N 
ATOM      2  N   UNL     1     -18.329  -5.840   6.579  0.00  0.00    -0.372 N 
ATOM      3  N   UNL     1     -17.363  -7.590   5.451  0.00  0.00    -0.372 N 
ATOM      4  C   UNL     1     -17.332  -6.303   5.816  0.00  0.00    +0.166 C 
ATOM      5  H   UNL     1     -16.393  -4.508   5.729  0.00  0.00    +0.163 HD
ATOM      6  H   UNL     1     -19.088  -6.439   6.878  0.00  0.00    +0.159 HD
ATOM      7  H   UNL     1     -18.353  -4.880   6.900  0.00  0.00    +0.159 HD
ATOM      8  H   UNL     1     -16.643  -7.999   4.871  0.00  0.00    +0.159 HD
ATOM      9  H   UNL     1     -18.119  -8.202   5.731  0.00  0.00    +0.159 HD
ENDROOT
BRANCH   1  10
ATOM     10  C   UNL     1     -15.182  -5.897   4.660  0.00  0.00    +0.151 C 
BRANCH  10  11
ATOM     11  C   UNL     1     -13.982  -5.104   5.097  0.00  0.00    -0.028 A 
ATOM     12  C   UNL     1     -13.258  -4.339   4.171  0.00  0.00    +0.005 A 
ATOM     13  C   UNL     1     -13.567  -5.107   6.438  0.00  0.00    +0.005 A 
ATOM     14  C   UNL     1     -12.161  -3.578   4.582  0.00  0.00    +0.000 A 
ATOM     15  C   UNL     1     -12.471  -4.347   6.844  0.00  0.00    +0.000 A 
ATOM     16  C   UNL     1     -11.770  -3.581   5.917  0.00  0.00    +0.000 A 
ENDBRANCH  10  11
ENDBRANCH   1  10
TORSDOF 2
ENDMDL
