MODEL 1
REMARK VINA RESULT:    -6.324      0.000      0.000
REMARK INTER + INTRA:          -7.223
REMARK INTER:                  -7.063
REMARK INTRA:                  -0.159
REMARK UNBOUND:                -0.159
REMARK  Name = 1550473
REMARK  2 active torsions:
REMARK  status: ('A' for Active; 'I' for Inactive)
REMARK    1  A    between atoms: N_1  and  C_4
REMARK    2  A    between atoms: C_4  and  C_5
REMARK                            x       y       z     vdW  Elec       q    Type
REMARK                         _______ _______ _______ _____ _____    ______ ____
ROOT
ATOM      1  N   UNL     1      12.137   7.140  15.678  0.00  0.00    -0.354 N 
ATOM      2  N   UNL     1      11.561   9.343  16.103  0.00  0.00    -0.372 N 
ATOM      3  N   UNL     1      11.830   8.667  13.927  0.00  0.00    -0.372 N 
ATOM      4  C   UNL     1      11.847   8.369  15.230  0.00  0.00    +0.166 C 
ATOM      5  H   UNL     1      12.163   6.986  16.679  0.00  0.00    +0.163 HD
ATOM      6  H   UNL     1      11.334  10.279  15.795  0.00  0.00    +0.159 HD
ATOM      7  H   UNL     1      11.542   9.175  17.101  0.00  0.00    +0.159 HD
ATOM      8  H   UNL     1      12.043   7.979  13.217  0.00  0.00    +0.159 HD
ATOM      9  H   UNL     1      11.617   9.601  13.599  0.00  0.00    +0.159 HD
ENDROOT
BRANCH   1  10
ATOM     10  C   UNL     1      12.410   5.997  14.809  0.00  0.00    +0.151 C 
BRANCH  10  11
ATOM     11  C   UNL     1      13.892   5.744  14.781  0.00  0.00    -0.028 A 
ATOM     12  C   UNL     1      14.722   6.470  13.914  0.00  0.00    +0.005 A 
ATOM     13  C   UNL     1      14.474   4.784  15.623  0.00  0.00    +0.005 A 
ATOM     14  C   UNL     1      16.103   6.257  13.908  0.00  0.00    +0.000 A 
ATOM     15  C   UNL     1      15.853   4.574  15.614  0.00  0.00    +0.000 A 
ATOM     16  C   UNL     1      16.667   5.312  14.759  0.00  0.00    +0.000 A 
ENDBRANCH  10  11
ENDBRANCH   1  10
TORSDOF 2
ENDMDL
MODEL 2
REMARK VINA RESULT:    -5.142     11.286     11.926
REMARK INTER + INTRA:          -5.903
REMARK INTER:                  -5.811
REMARK INTRA:                  -0.091
REMARK UNBOUND:                -0.159
REMARK  Name = 1550473
REMARK  2 active torsions:
REMARK  status: ('A' for Active; 'I' for Inactive)
REMARK    1  A    between atoms: N_1  and  C_4
REMARK    2  A    between atoms: C_4  and  C_5
REMARK                            x       y       z     vdW  Elec       q    Type
REMARK                         _______ _______ _______ _____ _____    ______ ____
ROOT
ATOM      1  N   UNL     1       7.042   0.691  23.590  0.00  0.00    -0.354 N 
ATOM      2  N   UNL     1       5.885   0.895  25.586  0.00  0.00    -0.372 N 
ATOM      3  N   UNL     1       7.822   2.091  25.300  0.00  0.00    -0.372 N 
ATOM      4  C   UNL     1       6.926   1.226  24.813  0.00  0.00    +0.166 C 
ATOM      5  H   UNL     1       6.346   0.018  23.291  0.00  0.00    +0.163 HD
ATOM      6  H   UNL     1       5.769   1.285  26.512  0.00  0.00    +0.159 HD
ATOM      7  H   UNL     1       5.166   0.257  25.267  0.00  0.00    +0.159 HD
ATOM      8  H   UNL     1       8.633   2.377  24.769  0.00  0.00    +0.159 HD
ATOM      9  H   UNL     1       7.729   2.483  26.228  0.00  0.00    +0.159 HD
ENDROOT
BRANCH   1  10
ATOM     10  C   UNL     1       8.109   1.026  22.649  0.00  0.00    +0.151 C 
BRANCH  10  11
ATOM     11  C   UNL     1       8.018   0.113  21.458  0.00  0.00    -0.028 A 
ATOM     12  C   UNL     1       8.716  -1.104  21.438  0.00  0.00    +0.005 A 
ATOM     13  C   UNL     1       7.231   0.455  20.347  0.00  0.00    +0.005 A 
ATOM     14  C   UNL     1       8.608  -1.967  20.345  0.00  0.00    +0.000 A 
ATOM     15  C   UNL     1       7.127  -0.408  19.257  0.00  0.00    +0.000 A 
ATOM     16  C   UNL     1       7.813  -1.620  19.257  0.00  0.00    +0.000 A 
ENDBRANCH  10  11
ENDBRANCH   1  10
TORSDOF 2
ENDMDL
MODEL 3
REMARK VINA RESULT:    -5.002     16.540     17.143
REMARK INTER + INTRA:          -5.746
REMARK INTER:                  -5.614
REMARK INTRA:                  -0.133
REMARK UNBOUND:                -0.159
REMARK  Name = 1550473
REMARK  2 active torsions:
REMARK  status: ('A' for Active; 'I' for Inactive)
REMARK    1  A    between atoms: N_1  and  C_4
REMARK    2  A    between atoms: C_4  and  C_5
REMARK                            x       y       z     vdW  Elec       q    Type
REMARK                         _______ _______ _______ _____ _____    ______ ____
ROOT
ATOM      1  N   UNL     1       0.328   3.763   3.514  0.00  0.00    -0.354 N 
ATOM      2  N   UNL     1      -0.047   5.348   5.159  0.00  0.00    -0.372 N 
ATOM      3  N   UNL     1       1.808   5.553   3.824  0.00  0.00    -0.372 N 
ATOM      4  C   UNL     1       0.701   4.878   4.154  0.00  0.00    +0.166 C 
ATOM      5  H   UNL     1      -0.506   3.281   3.832  0.00  0.00    +0.163 HD
ATOM      6  H   UNL     1       0.207   6.190   5.659  0.00  0.00    +0.159 HD
ATOM      7  H   UNL     1      -0.904   4.891   5.445  0.00  0.00    +0.159 HD
ATOM      8  H   UNL     1       2.418   5.247   3.078  0.00  0.00    +0.159 HD
ATOM      9  H   UNL     1       2.085   6.391   4.320  0.00  0.00    +0.159 HD
ENDROOT
BRANCH   1  10
ATOM     10  C   UNL     1       1.043   3.197   2.371  0.00  0.00    +0.151 C 
BRANCH  10  11
ATOM     11  C   UNL     1       1.881   2.040   2.839  0.00  0.00    -0.028 A 
ATOM     12  C   UNL     1       1.574   1.378   4.038  0.00  0.00    +0.005 A 
ATOM     13  C   UNL     1       2.978   1.595   2.086  0.00  0.00    +0.005 A 
ATOM     14  C   UNL     1       2.334   0.284   4.458  0.00  0.00    +0.000 A 
ATOM     15  C   UNL     1       3.735   0.503   2.510  0.00  0.00    +0.000 A 
ATOM     16  C   UNL     1       3.411  -0.154   3.695  0.00  0.00    +0.000 A 
ENDBRANCH  10  11
ENDBRANCH   1  10
TORSDOF 2
ENDMDL
MODEL 4
REMARK VINA RESULT:    -4.992     16.712     17.928
REMARK INTER + INTRA:          -5.735
REMARK INTER:                  -5.613
REMARK INTRA:                  -0.122
REMARK UNBOUND:                -0.159
REMARK  Name = 1550473
REMARK  2 active torsions:
REMARK  status: ('A' for Active; 'I' for Inactive)
REMARK    1  A    between atoms: N_1  and  C_4
REMARK    2  A    between atoms: C_4  and  C_5
REMARK                            x       y       z     vdW  Elec       q    Type
REMARK                         _______ _______ _______ _____ _____    ______ ____
ROOT
ATOM      1  N   UNL     1       1.520   2.898   1.814  0.00  0.00    -0.354 N 
ATOM      2  N   UNL     1       0.017   4.312   2.866  0.00  0.00    -0.372 N 
ATOM      3  N   UNL     1       1.909   3.668   3.994  0.00  0.00    -0.372 N 
ATOM      4  C   UNL     1       1.160   3.617   2.887  0.00  0.00    +0.166 C 
ATOM      5  H   UNL     1       0.894   2.876   1.018  0.00  0.00    +0.163 HD
ATOM      6  H   UNL     1      -0.279   4.866   3.658  0.00  0.00    +0.159 HD
ATOM      7  H   UNL     1      -0.584   4.325   2.051  0.00  0.00    +0.159 HD
ATOM      8  H   UNL     1       2.780   3.161   4.075  0.00  0.00    +0.159 HD
ATOM      9  H   UNL     1       1.623   4.207   4.801  0.00  0.00    +0.159 HD
ENDROOT
BRANCH   1  10
ATOM     10  C   UNL     1       2.771   2.149   1.715  0.00  0.00    +0.151 C 
BRANCH  10  11
ATOM     11  C   UNL     1       2.572   0.780   2.304  0.00  0.00    -0.028 A 
ATOM     12  C   UNL     1       1.627  -0.101   1.756  0.00  0.00    +0.005 A 
ATOM     13  C   UNL     1       3.329   0.354   3.407  0.00  0.00    +0.005 A 
ATOM     14  C   UNL     1       1.463  -1.383   2.285  0.00  0.00    +0.000 A 
ATOM     15  C   UNL     1       3.161  -0.927   3.932  0.00  0.00    +0.000 A 
ATOM     16  C   UNL     1       2.230  -1.796   3.369  0.00  0.00    +0.000 A 
ENDBRANCH  10  11
ENDBRANCH   1  10
TORSDOF 2
ENDMDL
MODEL 5
REMARK VINA RESULT:    -4.973     14.873     16.326
REMARK INTER + INTRA:          -5.714
REMARK INTER:                  -5.552
REMARK INTRA:                  -0.162
REMARK UNBOUND:                -0.159
REMARK  Name = 1550473
REMARK  2 active torsions:
REMARK  status: ('A' for Active; 'I' for Inactive)
REMARK    1  A    between atoms: N_1  and  C_4
REMARK    2  A    between atoms: C_4  and  C_5
REMARK                            x       y       z     vdW  Elec       q    Type
REMARK                         _______ _______ _______ _____ _____    ______ ____
ROOT
ATOM      1  N   UNL     1       0.357   5.088   8.887  0.00  0.00    -0.354 N 
ATOM      2  N   UNL     1       0.419   6.071  10.983  0.00  0.00    -0.372 N 
ATOM      3  N   UNL     1      -1.578   5.259  10.198  0.00  0.00    -0.372 N 
ATOM      4  C   UNL     1      -0.271   5.466  10.009  0.00  0.00    +0.166 C 
ATOM      5  H   UNL     1       1.343   5.300   8.792  0.00  0.00    +0.163 HD
ATOM      6  H   UNL     1      -0.026   6.364  11.842  0.00  0.00    +0.159 HD
ATOM      7  H   UNL     1       1.415   6.240  10.905  0.00  0.00    +0.159 HD
ATOM      8  H   UNL     1      -2.157   4.813   9.498  0.00  0.00    +0.159 HD
ATOM      9  H   UNL     1      -2.045   5.556  11.046  0.00  0.00    +0.159 HD
ENDROOT
BRANCH   1  10
ATOM     10  C   UNL     1      -0.292   4.374   7.788  0.00  0.00    +0.151 C 
BRANCH  10  11
ATOM     11  C   UNL     1      -0.224   5.218   6.546  0.00  0.00    -0.028 A 
ATOM     12  C   UNL     1      -1.011   6.373   6.426  0.00  0.00    +0.005 A 
ATOM     13  C   UNL     1       0.630   4.872   5.487  0.00  0.00    +0.005 A 
ATOM     14  C   UNL     1      -0.926   7.174   5.285  0.00  0.00    +0.000 A 
ATOM     15  C   UNL     1       0.711   5.675   4.349  0.00  0.00    +0.000 A 
ATOM     16  C   UNL     1      -0.065   6.827   4.249  0.00  0.00    +0.000 A 
ENDBRANCH  10  11
ENDBRANCH   1  10
TORSDOF 2
ENDMDL
MODEL 6
REMARK VINA RESULT:    -4.832     17.849     18.999
REMARK INTER + INTRA:          -5.556
REMARK INTER:                  -5.378
REMARK INTRA:                  -0.178
REMARK UNBOUND:                -0.159
REMARK  Name = 1550473
REMARK  2 active torsions:
REMARK  status: ('A' for Active; 'I' for Inactive)
REMARK    1  A    between atoms: N_1  and  C_4
REMARK    2  A    between atoms: C_4  and  C_5
REMARK                            x       y       z     vdW  Elec       q    Type
REMARK                         _______ _______ _______ _____ _____    ______ ____
ROOT
ATOM      1  N   UNL     1       0.733   2.616   1.794  0.00  0.00    -0.354 N 
ATOM      2  N   UNL     1      -0.073   4.019   3.451  0.00  0.00    -0.372 N 
ATOM      3  N   UNL     1       2.048   3.167   3.654  0.00  0.00    -0.372 N 
ATOM      4  C   UNL     1       0.910   3.257   2.957  0.00  0.00    +0.166 C 
ATOM      5  H   UNL     1      -0.164   2.701   1.329  0.00  0.00    +0.163 HD
ATOM      6  H   UNL     1       0.033   4.518   4.324  0.00  0.00    +0.159 HD
ATOM      7  H   UNL     1      -0.951   4.139   2.961  0.00  0.00    +0.159 HD
ATOM      8  H   UNL     1       2.826   2.603   3.338  0.00  0.00    +0.159 HD
ATOM      9  H   UNL     1       2.169   3.649   4.536  0.00  0.00    +0.159 HD
ENDROOT
BRANCH   1  10
ATOM     10  C   UNL     1       1.760   1.804   1.143  0.00  0.00    +0.151 C 
BRANCH  10  11
ATOM     11  C   UNL     1       2.375   2.597   0.023  0.00  0.00    -0.028 A 
ATOM     12  C   UNL     1       3.526   3.368   0.245  0.00  0.00    +0.005 A 
ATOM     13  C   UNL     1       1.816   2.577  -1.264  0.00  0.00    +0.005 A 
ATOM     14  C   UNL     1       4.115   4.081  -0.802  0.00  0.00    +0.000 A 
ATOM     15  C   UNL     1       2.407   3.291  -2.306  0.00  0.00    +0.000 A 
ATOM     16  C   UNL     1       3.558   4.041  -2.075  0.00  0.00    +0.000 A 
ENDBRANCH  10  11
ENDBRANCH   1  10
TORSDOF 2
ENDMDL
MODEL 7
REMARK VINA RESULT:    -4.692     16.447     16.936
REMARK INTER + INTRA:          -5.400
REMARK INTER:                  -5.264
REMARK INTRA:                  -0.136
REMARK UNBOUND:                -0.159
REMARK  Name = 1550473
REMARK  2 active torsions:
REMARK  status: ('A' for Active; 'I' for Inactive)
REMARK    1  A    between atoms: N_1  and  C_4
REMARK    2  A    between atoms: C_4  and  C_5
REMARK                            x       y       z     vdW  Elec       q    Type
REMARK                         _______ _______ _______ _____ _____    ______ ____
ROOT
ATOM      1  N   UNL     1       0.295   3.074   4.219  0.00  0.00    -0.354 N 
ATOM      2  N   UNL     1       0.126   5.050   3.022  0.00  0.00    -0.372 N 
ATOM      3  N   UNL     1       1.180   5.074   5.060  0.00  0.00    -0.372 N 
ATOM      4  C   UNL     1       0.536   4.387   4.111  0.00  0.00    +0.166 C 
ATOM      5  H   UNL     1      -0.225   2.617   3.478  0.00  0.00    +0.163 HD
ATOM      6  H   UNL     1       0.296   6.040   2.911  0.00  0.00    +0.159 HD
ATOM      7  H   UNL     1      -0.353   4.581   2.262  0.00  0.00    +0.159 HD
ATOM      8  H   UNL     1       1.510   4.635   5.908  0.00  0.00    +0.159 HD
ATOM      9  H   UNL     1       1.349   6.069   4.972  0.00  0.00    +0.159 HD
ENDROOT
BRANCH   1  10
ATOM     10  C   UNL     1       0.746   2.250   5.338  0.00  0.00    +0.151 C 
BRANCH  10  11
ATOM     11  C   UNL     1       1.588   1.121   4.810  0.00  0.00    -0.028 A 
ATOM     12  C   UNL     1       2.599   1.367   3.869  0.00  0.00    +0.005 A 
ATOM     13  C   UNL     1       1.383  -0.196   5.249  0.00  0.00    +0.005 A 
ATOM     14  C   UNL     1       3.401   0.324   3.400  0.00  0.00    +0.000 A 
ATOM     15  C   UNL     1       2.186  -1.235   4.778  0.00  0.00    +0.000 A 
ATOM     16  C   UNL     1       3.196  -0.974   3.855  0.00  0.00    +0.000 A 
ENDBRANCH  10  11
ENDBRANCH   1  10
TORSDOF 2
ENDMDL
MODEL 8
REMARK VINA RESULT:    -4.642     12.035     12.786
REMARK INTER + INTRA:          -5.344
REMARK INTER:                  -5.231
REMARK INTRA:                  -0.113
REMARK UNBOUND:                -0.159
REMARK  Name = 1550473
REMARK  2 active torsions:
REMARK  status: ('A' for Active; 'I' for Inactive)
REMARK    1  A    between atoms: N_1  and  C_4
REMARK    2  A    between atoms: C_4  and  C_5
REMARK                            x       y       z     vdW  Elec       q    Type
REMARK                         _______ _______ _______ _____ _____    ______ ____
ROOT
ATOM      1  N   UNL     1       4.763  -1.365  21.929  0.00  0.00    -0.354 N 
ATOM      2  N   UNL     1       2.775  -1.651  23.082  0.00  0.00    -0.372 N 
ATOM      3  N   UNL     1       2.941   0.064  21.567  0.00  0.00    -0.372 N 
ATOM      4  C   UNL     1       3.505  -0.980  22.184  0.00  0.00    +0.166 C 
ATOM      5  H   UNL     1       5.142  -2.146  22.452  0.00  0.00    +0.163 HD
ATOM      6  H   UNL     1       1.822  -1.386  23.293  0.00  0.00    +0.159 HD
ATOM      7  H   UNL     1       3.141  -2.460  23.570  0.00  0.00    +0.159 HD
ATOM      8  H   UNL     1       3.441   0.616  20.883  0.00  0.00    +0.159 HD
ATOM      9  H   UNL     1       1.993   0.352  21.773  0.00  0.00    +0.159 HD
ENDROOT
BRANCH   1  10
ATOM     10  C   UNL     1       5.625  -0.735  20.930  0.00  0.00    +0.151 C 
BRANCH  10  11
ATOM     11  C   UNL     1       7.056  -0.843  21.378  0.00  0.00    -0.028 A 
ATOM     12  C   UNL     1       7.969  -1.631  20.663  0.00  0.00    +0.005 A 
ATOM     13  C   UNL     1       7.507  -0.154  22.514  0.00  0.00    +0.005 A 
ATOM     14  C   UNL     1       9.306  -1.707  21.061  0.00  0.00    +0.000 A 
ATOM     15  C   UNL     1       8.842  -0.233  22.910  0.00  0.00    +0.000 A 
ATOM     16  C   UNL     1       9.742  -1.008  22.182  0.00  0.00    +0.000 A 
ENDBRANCH  10  11
ENDBRANCH   1  10
TORSDOF 2
ENDMDL
MODEL 9
REMARK VINA RESULT:    -4.383     16.582     17.287
REMARK INTER + INTRA:          -5.055
REMARK INTER:                  -4.926
REMARK INTRA:                  -0.129
REMARK UNBOUND:                -0.159
REMARK  Name = 1550473
REMARK  2 active torsions:
REMARK  status: ('A' for Active; 'I' for Inactive)
REMARK    1  A    between atoms: N_1  and  C_4
REMARK    2  A    between atoms: C_4  and  C_5
REMARK                            x       y       z     vdW  Elec       q    Type
REMARK                         _______ _______ _______ _____ _____    ______ ____
ROOT
ATOM      1  N   UNL     1       0.150   5.333   5.078  0.00  0.00    -0.354 N 
ATOM      2  N   UNL     1      -0.001   6.388   3.022  0.00  0.00    -0.372 N 
ATOM      3  N   UNL     1      -0.846   7.445   4.875  0.00  0.00    -0.372 N 
ATOM      4  C   UNL     1      -0.233   6.384   4.340  0.00  0.00    +0.166 C 
ATOM      5  H   UNL     1       0.583   4.547   4.607  0.00  0.00    +0.163 HD
ATOM      6  H   UNL     1      -0.276   7.169   2.440  0.00  0.00    +0.159 HD
ATOM      7  H   UNL     1       0.473   5.621   2.561  0.00  0.00    +0.159 HD
ATOM      8  H   UNL     1      -1.055   7.501   5.863  0.00  0.00    +0.159 HD
ATOM      9  H   UNL     1      -1.139   8.230   4.307  0.00  0.00    +0.159 HD
ENDROOT
BRANCH   1  10
ATOM     10  C   UNL     1      -0.007   5.253   6.529  0.00  0.00    +0.151 C 
BRANCH  10  11
ATOM     11  C   UNL     1      -0.417   3.855   6.902  0.00  0.00    -0.028 A 
ATOM     12  C   UNL     1      -1.133   3.614   8.083  0.00  0.00    +0.005 A 
ATOM     13  C   UNL     1      -0.098   2.767   6.074  0.00  0.00    +0.005 A 
ATOM     14  C   UNL     1      -1.540   2.319   8.415  0.00  0.00    +0.000 A 
ATOM     15  C   UNL     1      -0.506   1.476   6.409  0.00  0.00    +0.000 A 
ATOM     16  C   UNL     1      -1.229   1.253   7.578  0.00  0.00    +0.000 A 
ENDBRANCH  10  11
ENDBRANCH   1  10
TORSDOF 2
ENDMDL
