MODEL 1
REMARK VINA RESULT:    -5.158      0.000      0.000
REMARK INTER + INTRA:          -5.924
REMARK INTER:                  -5.761
REMARK INTRA:                  -0.162
REMARK UNBOUND:                -0.162
REMARK  Name = 1550473
REMARK  2 active torsions:
REMARK  status: ('A' for Active; 'I' for Inactive)
REMARK    1  A    between atoms: N_1  and  C_4
REMARK    2  A    between atoms: C_4  and  C_5
REMARK                            x       y       z     vdW  Elec       q    Type
REMARK                         _______ _______ _______ _____ _____    ______ ____
ROOT
ATOM      1  N   UNL     1       4.303   8.656  -8.366  0.00  0.00    -0.354 N 
ATOM      2  N   UNL     1       5.489  10.446  -7.497  0.00  0.00    -0.372 N 
ATOM      3  N   UNL     1       6.570   8.446  -7.812  0.00  0.00    -0.372 N 
ATOM      4  C   UNL     1       5.448   9.169  -7.897  0.00  0.00    +0.166 C 
ATOM      5  H   UNL     1       3.480   9.248  -8.377  0.00  0.00    +0.163 HD
ATOM      6  H   UNL     1       6.340  10.861  -7.142  0.00  0.00    +0.159 HD
ATOM      7  H   UNL     1       4.677  11.048  -7.552  0.00  0.00    +0.159 HD
ATOM      8  H   UNL     1       6.604   7.475  -8.092  0.00  0.00    +0.159 HD
ATOM      9  H   UNL     1       7.429   8.841  -7.448  0.00  0.00    +0.159 HD
ENDROOT
BRANCH   1  10
ATOM     10  C   UNL     1       4.166   7.294  -8.878  0.00  0.00    +0.151 C 
BRANCH  10  11
ATOM     11  C   UNL     1       3.255   6.517  -7.968  0.00  0.00    -0.028 A 
ATOM     12  C   UNL     1       1.969   6.152  -8.391  0.00  0.00    +0.005 A 
ATOM     13  C   UNL     1       3.674   6.139  -6.683  0.00  0.00    +0.005 A 
ATOM     14  C   UNL     1       1.133   5.404  -7.557  0.00  0.00    +0.000 A 
ATOM     15  C   UNL     1       2.837   5.393  -5.854  0.00  0.00    +0.000 A 
ATOM     16  C   UNL     1       1.567   5.024  -6.292  0.00  0.00    +0.000 A 
ENDBRANCH  10  11
ENDBRANCH   1  10
TORSDOF 2
ENDMDL
MODEL 2
REMARK VINA RESULT:    -4.884      1.949      2.545
REMARK INTER + INTRA:          -5.618
REMARK INTER:                  -5.435
REMARK INTRA:                  -0.183
REMARK UNBOUND:                -0.162
REMARK  Name = 1550473
REMARK  2 active torsions:
REMARK  status: ('A' for Active; 'I' for Inactive)
REMARK    1  A    between atoms: N_1  and  C_4
REMARK    2  A    between atoms: C_4  and  C_5
REMARK                            x       y       z     vdW  Elec       q    Type
REMARK                         _______ _______ _______ _____ _____    ______ ____
ROOT
ATOM      1  N   UNL     1       5.299   6.260  -8.826  0.00  0.00    -0.354 N 
ATOM      2  N   UNL     1       7.154   5.616  -7.598  0.00  0.00    -0.372 N 
ATOM      3  N   UNL     1       5.686   7.122  -6.681  0.00  0.00    -0.372 N 
ATOM      4  C   UNL     1       6.033   6.339  -7.708  0.00  0.00    +0.166 C 
ATOM      5  H   UNL     1       5.633   5.671  -9.580  0.00  0.00    +0.163 HD
ATOM      6  H   UNL     1       7.727   5.652  -6.765  0.00  0.00    +0.159 HD
ATOM      7  H   UNL     1       7.461   4.992  -8.335  0.00  0.00    +0.159 HD
ATOM      8  H   UNL     1       4.855   7.697  -6.704  0.00  0.00    +0.159 HD
ATOM      9  H   UNL     1       6.253   7.181  -5.844  0.00  0.00    +0.159 HD
ENDROOT
BRANCH   1  10
ATOM     10  C   UNL     1       4.034   6.965  -9.024  0.00  0.00    +0.151 C 
BRANCH  10  11
ATOM     11  C   UNL     1       2.898   6.000  -8.825  0.00  0.00    -0.028 A 
ATOM     12  C   UNL     1       2.602   5.038  -9.802  0.00  0.00    +0.005 A 
ATOM     13  C   UNL     1       2.117   6.039  -7.660  0.00  0.00    +0.005 A 
ATOM     14  C   UNL     1       1.565   4.122  -9.605  0.00  0.00    +0.000 A 
ATOM     15  C   UNL     1       1.083   5.124  -7.467  0.00  0.00    +0.000 A 
ATOM     16  C   UNL     1       0.809   4.164  -8.438  0.00  0.00    +0.000 A 
ENDBRANCH  10  11
ENDBRANCH   1  10
TORSDOF 2
ENDMDL
MODEL 3
REMARK VINA RESULT:    -4.785      2.294      2.919
REMARK INTER + INTRA:          -5.507
REMARK INTER:                  -5.398
REMARK INTRA:                  -0.109
REMARK UNBOUND:                -0.162
REMARK  Name = 1550473
REMARK  2 active torsions:
REMARK  status: ('A' for Active; 'I' for Inactive)
REMARK    1  A    between atoms: N_1  and  C_4
REMARK    2  A    between atoms: C_4  and  C_5
REMARK                            x       y       z     vdW  Elec       q    Type
REMARK                         _______ _______ _______ _____ _____    ______ ____
ROOT
ATOM      1  N   UNL     1       5.686   5.676  -8.671  0.00  0.00    -0.354 N 
ATOM      2  N   UNL     1       7.500   4.616  -9.645  0.00  0.00    -0.372 N 
ATOM      3  N   UNL     1       7.799   5.725  -7.659  0.00  0.00    -0.372 N 
ATOM      4  C   UNL     1       6.985   5.347  -8.650  0.00  0.00    +0.166 C 
ATOM      5  H   UNL     1       5.129   5.385  -9.466  0.00  0.00    +0.163 HD
ATOM      6  H   UNL     1       8.476   4.350  -9.655  0.00  0.00    +0.159 HD
ATOM      7  H   UNL     1       6.931   4.287 -10.415  0.00  0.00    +0.159 HD
ATOM      8  H   UNL     1       7.474   6.283  -6.881  0.00  0.00    +0.159 HD
ATOM      9  H   UNL     1       8.781   5.478  -7.657  0.00  0.00    +0.159 HD
ENDROOT
BRANCH   1  10
ATOM     10  C   UNL     1       5.015   6.423  -7.609  0.00  0.00    +0.151 C 
BRANCH  10  11
ATOM     11  C   UNL     1       3.536   6.163  -7.685  0.00  0.00    -0.028 A 
ATOM     12  C   UNL     1       2.870   6.190  -8.919  0.00  0.00    +0.005 A 
ATOM     13  C   UNL     1       2.795   5.881  -6.526  0.00  0.00    +0.005 A 
ATOM     14  C   UNL     1       1.502   5.918  -8.993  0.00  0.00    +0.000 A 
ATOM     15  C   UNL     1       1.429   5.611  -6.605  0.00  0.00    +0.000 A 
ATOM     16  C   UNL     1       0.783   5.627  -7.839  0.00  0.00    +0.000 A 
ENDBRANCH  10  11
ENDBRANCH   1  10
TORSDOF 2
ENDMDL
MODEL 4
REMARK VINA RESULT:    -4.546     19.904     20.985
REMARK INTER + INTRA:          -5.240
REMARK INTER:                  -5.097
REMARK INTRA:                  -0.142
REMARK UNBOUND:                -0.162
REMARK  Name = 1550473
REMARK  2 active torsions:
REMARK  status: ('A' for Active; 'I' for Inactive)
REMARK    1  A    between atoms: N_1  and  C_4
REMARK    2  A    between atoms: C_4  and  C_5
REMARK                            x       y       z     vdW  Elec       q    Type
REMARK                         _______ _______ _______ _____ _____    ______ ____
ROOT
ATOM      1  N   UNL     1      10.028  12.237  10.754  0.00  0.00    -0.354 N 
ATOM      2  N   UNL     1       9.163  12.814   8.685  0.00  0.00    -0.372 N 
ATOM      3  N   UNL     1       7.814  11.723  10.186  0.00  0.00    -0.372 N 
ATOM      4  C   UNL     1       9.005  12.253   9.890  0.00  0.00    +0.166 C 
ATOM      5  H   UNL     1      10.915  12.629  10.458  0.00  0.00    +0.163 HD
ATOM      6  H   UNL     1       8.407  12.844   8.013  0.00  0.00    +0.159 HD
ATOM      7  H   UNL     1      10.036  13.246   8.408  0.00  0.00    +0.159 HD
ATOM      8  H   UNL     1       7.632  11.279  11.076  0.00  0.00    +0.159 HD
ATOM      9  H   UNL     1       7.049  11.732   9.523  0.00  0.00    +0.159 HD
ENDROOT
BRANCH   1  10
ATOM     10  C   UNL     1       9.945  11.698  12.110  0.00  0.00    +0.151 C 
BRANCH  10  11
ATOM     11  C   UNL     1      11.031  10.676  12.301  0.00  0.00    -0.028 A 
ATOM     12  C   UNL     1      12.198  10.725  11.524  0.00  0.00    +0.005 A 
ATOM     13  C   UNL     1      10.902   9.660  13.260  0.00  0.00    +0.005 A 
ATOM     14  C   UNL     1      13.221   9.793  11.721  0.00  0.00    +0.000 A 
ATOM     15  C   UNL     1      11.925   8.732  13.453  0.00  0.00    +0.000 A 
ATOM     16  C   UNL     1      13.085   8.800  12.685  0.00  0.00    +0.000 A 
ENDBRANCH  10  11
ENDBRANCH   1  10
TORSDOF 2
ENDMDL
MODEL 5
REMARK VINA RESULT:    -4.517     24.893     26.003
REMARK INTER + INTRA:          -5.208
REMARK INTER:                  -5.032
REMARK INTRA:                  -0.176
REMARK UNBOUND:                -0.162
REMARK  Name = 1550473
REMARK  2 active torsions:
REMARK  status: ('A' for Active; 'I' for Inactive)
REMARK    1  A    between atoms: N_1  and  C_4
REMARK    2  A    between atoms: C_4  and  C_5
REMARK                            x       y       z     vdW  Elec       q    Type
REMARK                         _______ _______ _______ _____ _____    ______ ____
ROOT
ATOM      1  N   UNL     1      -5.707  -4.820  14.291  0.00  0.00    -0.354 N 
ATOM      2  N   UNL     1      -3.474  -5.390  14.054  0.00  0.00    -0.372 N 
ATOM      3  N   UNL     1      -5.077  -6.961  13.576  0.00  0.00    -0.372 N 
ATOM      4  C   UNL     1      -4.768  -5.723  13.975  0.00  0.00    +0.166 C 
ATOM      5  H   UNL     1      -5.407  -3.908  14.615  0.00  0.00    +0.163 HD
ATOM      6  H   UNL     1      -2.744  -6.048  13.818  0.00  0.00    +0.159 HD
ATOM      7  H   UNL     1      -3.179  -4.463  14.334  0.00  0.00    +0.159 HD
ATOM      8  H   UNL     1      -6.035  -7.277  13.501  0.00  0.00    +0.159 HD
ATOM      9  H   UNL     1      -4.360  -7.638  13.347  0.00  0.00    +0.159 HD
ENDROOT
BRANCH   1  10
ATOM     10  C   UNL     1      -7.144  -5.065  14.187  0.00  0.00    +0.151 C 
BRANCH  10  11
ATOM     11  C   UNL     1      -7.682  -4.328  12.991  0.00  0.00    -0.028 A 
ATOM     12  C   UNL     1      -7.700  -4.938  11.728  0.00  0.00    +0.005 A 
ATOM     13  C   UNL     1      -8.182  -3.023  13.116  0.00  0.00    +0.005 A 
ATOM     14  C   UNL     1      -8.227  -4.266  10.623  0.00  0.00    +0.000 A 
ATOM     15  C   UNL     1      -8.707  -2.355  12.010  0.00  0.00    +0.000 A 
ATOM     16  C   UNL     1      -8.732  -2.977  10.764  0.00  0.00    +0.000 A 
ENDBRANCH  10  11
ENDBRANCH   1  10
TORSDOF 2
ENDMDL
MODEL 6
REMARK VINA RESULT:    -4.396     12.395     13.089
REMARK INTER + INTRA:          -5.072
REMARK INTER:                  -4.957
REMARK INTRA:                  -0.115
REMARK UNBOUND:                -0.162
REMARK  Name = 1550473
REMARK  2 active torsions:
REMARK  status: ('A' for Active; 'I' for Inactive)
REMARK    1  A    between atoms: N_1  and  C_4
REMARK    2  A    between atoms: C_4  and  C_5
REMARK                            x       y       z     vdW  Elec       q    Type
REMARK                         _______ _______ _______ _____ _____    ______ ____
ROOT
ATOM      1  N   UNL     1       8.522  -2.167 -11.648  0.00  0.00    -0.354 N 
ATOM      2  N   UNL     1       7.831  -2.166  -9.438  0.00  0.00    -0.372 N 
ATOM      3  N   UNL     1       6.819  -0.733 -10.917  0.00  0.00    -0.372 N 
ATOM      4  C   UNL     1       7.727  -1.687 -10.683  0.00  0.00    +0.166 C 
ATOM      5  H   UNL     1       9.210  -2.868 -11.400  0.00  0.00    +0.163 HD
ATOM      6  H   UNL     1       7.242  -1.825  -8.689  0.00  0.00    +0.159 HD
ATOM      7  H   UNL     1       8.488  -2.899  -9.202  0.00  0.00    +0.159 HD
ATOM      8  H   UNL     1       6.694  -0.325 -11.834  0.00  0.00    +0.159 HD
ATOM      9  H   UNL     1       6.228  -0.371 -10.179  0.00  0.00    +0.159 HD
ENDROOT
BRANCH   1  10
ATOM     10  C   UNL     1       8.452  -1.752 -13.048  0.00  0.00    +0.151 C 
BRANCH  10  11
ATOM     11  C   UNL     1       9.087  -2.810 -13.907  0.00  0.00    -0.028 A 
ATOM     12  C   UNL     1       8.617  -3.048 -15.207  0.00  0.00    +0.005 A 
ATOM     13  C   UNL     1      10.162  -3.574 -13.429  0.00  0.00    +0.005 A 
ATOM     14  C   UNL     1       9.226  -4.011 -16.016  0.00  0.00    +0.000 A 
ATOM     15  C   UNL     1      10.767  -4.535 -14.239  0.00  0.00    +0.000 A 
ATOM     16  C   UNL     1      10.300  -4.751 -15.534  0.00  0.00    +0.000 A 
ENDBRANCH  10  11
ENDBRANCH   1  10
TORSDOF 2
ENDMDL
MODEL 7
REMARK VINA RESULT:    -4.270      1.675      2.067
REMARK INTER + INTRA:          -4.932
REMARK INTER:                  -4.808
REMARK INTRA:                  -0.123
REMARK UNBOUND:                -0.162
REMARK  Name = 1550473
REMARK  2 active torsions:
REMARK  status: ('A' for Active; 'I' for Inactive)
REMARK    1  A    between atoms: N_1  and  C_4
REMARK    2  A    between atoms: C_4  and  C_5
REMARK                            x       y       z     vdW  Elec       q    Type
REMARK                         _______ _______ _______ _____ _____    ______ ____
ROOT
ATOM      1  N   UNL     1       4.776   9.946  -8.980  0.00  0.00    -0.354 N 
ATOM      2  N   UNL     1       5.511  12.141  -9.062  0.00  0.00    -0.372 N 
ATOM      3  N   UNL     1       6.804  10.502 -10.013  0.00  0.00    -0.372 N 
ATOM      4  C   UNL     1       5.694  10.847  -9.352  0.00  0.00    +0.166 C 
ATOM      5  H   UNL     1       3.971  10.269  -8.455  0.00  0.00    +0.163 HD
ATOM      6  H   UNL     1       6.185  12.844  -9.333  0.00  0.00    +0.159 HD
ATOM      7  H   UNL     1       4.683  12.466  -8.577  0.00  0.00    +0.159 HD
ATOM      8  H   UNL     1       7.005   9.541 -10.258  0.00  0.00    +0.159 HD
ATOM      9  H   UNL     1       7.497  11.189 -10.283  0.00  0.00    +0.159 HD
ENDROOT
BRANCH   1  10
ATOM     10  C   UNL     1       4.854   8.521  -9.294  0.00  0.00    +0.151 C 
BRANCH  10  11
ATOM     11  C   UNL     1       4.339   7.731  -8.123  0.00  0.00    -0.028 A 
ATOM     12  C   UNL     1       3.235   6.878  -8.270  0.00  0.00    +0.005 A 
ATOM     13  C   UNL     1       4.953   7.826  -6.865  0.00  0.00    +0.005 A 
ATOM     14  C   UNL     1       2.774   6.121  -7.190  0.00  0.00    +0.000 A 
ATOM     15  C   UNL     1       4.490   7.069  -5.789  0.00  0.00    +0.000 A 
ATOM     16  C   UNL     1       3.402   6.215  -5.952  0.00  0.00    +0.000 A 
ENDBRANCH  10  11
ENDBRANCH   1  10
TORSDOF 2
ENDMDL
MODEL 8
REMARK VINA RESULT:    -4.118     24.256     25.631
REMARK INTER + INTRA:          -4.762
REMARK INTER:                  -4.585
REMARK INTRA:                  -0.177
REMARK UNBOUND:                -0.162
REMARK  Name = 1550473
REMARK  2 active torsions:
REMARK  status: ('A' for Active; 'I' for Inactive)
REMARK    1  A    between atoms: N_1  and  C_4
REMARK    2  A    between atoms: C_4  and  C_5
REMARK                            x       y       z     vdW  Elec       q    Type
REMARK                         _______ _______ _______ _____ _____    ______ ____
ROOT
ATOM      1  N   UNL     1      -4.509 -10.544  10.985  0.00  0.00    -0.354 N 
ATOM      2  N   UNL     1      -2.278 -11.076  11.306  0.00  0.00    -0.372 N 
ATOM      3  N   UNL     1      -3.404 -12.030   9.549  0.00  0.00    -0.372 N 
ATOM      4  C   UNL     1      -3.412 -11.215  10.609  0.00  0.00    +0.166 C 
ATOM      5  H   UNL     1      -4.458  -9.966  11.816  0.00  0.00    +0.163 HD
ATOM      6  H   UNL     1      -1.433 -11.567  11.044  0.00  0.00    +0.159 HD
ATOM      7  H   UNL     1      -2.217 -10.462  12.109  0.00  0.00    +0.159 HD
ATOM      8  H   UNL     1      -4.229 -12.182   8.984  0.00  0.00    +0.159 HD
ATOM      9  H   UNL     1      -2.571 -12.538   9.278  0.00  0.00    +0.159 HD
ENDROOT
BRANCH   1  10
ATOM     10  C   UNL     1      -5.779 -10.584  10.263  0.00  0.00    +0.151 C 
BRANCH  10  11
ATOM     11  C   UNL     1      -5.845  -9.415   9.319  0.00  0.00    -0.028 A 
ATOM     12  C   UNL     1      -5.684  -9.605   7.939  0.00  0.00    +0.005 A 
ATOM     13  C   UNL     1      -6.073  -8.116   9.798  0.00  0.00    +0.005 A 
ATOM     14  C   UNL     1      -5.774  -8.524   7.058  0.00  0.00    +0.000 A 
ATOM     15  C   UNL     1      -6.162  -7.039   8.916  0.00  0.00    +0.000 A 
ATOM     16  C   UNL     1      -6.015  -7.244   7.546  0.00  0.00    +0.000 A 
ENDBRANCH  10  11
ENDBRANCH   1  10
TORSDOF 2
ENDMDL
MODEL 9
REMARK VINA RESULT:    -4.085      1.670      2.788
REMARK INTER + INTRA:          -4.724
REMARK INTER:                  -4.615
REMARK INTRA:                  -0.110
REMARK UNBOUND:                -0.162
REMARK  Name = 1550473
REMARK  2 active torsions:
REMARK  status: ('A' for Active; 'I' for Inactive)
REMARK    1  A    between atoms: N_1  and  C_4
REMARK    2  A    between atoms: C_4  and  C_5
REMARK                            x       y       z     vdW  Elec       q    Type
REMARK                         _______ _______ _______ _____ _____    ______ ____
ROOT
ATOM      1  N   UNL     1       7.006   8.223  -8.127  0.00  0.00    -0.354 N 
ATOM      2  N   UNL     1       9.298   8.557  -8.095  0.00  0.00    -0.372 N 
ATOM      3  N   UNL     1       7.980  10.022  -9.271  0.00  0.00    -0.372 N 
ATOM      4  C   UNL     1       8.079   8.934  -8.500  0.00  0.00    +0.166 C 
ATOM      5  H   UNL     1       7.151   7.391  -7.567  0.00  0.00    +0.163 HD
ATOM      6  H   UNL     1      10.125   9.075  -8.358  0.00  0.00    +0.159 HD
ATOM      7  H   UNL     1       9.435   7.751  -7.497  0.00  0.00    +0.159 HD
ATOM      8  H   UNL     1       7.089  10.355  -9.614  0.00  0.00    +0.159 HD
ATOM      9  H   UNL     1       8.798  10.547  -9.554  0.00  0.00    +0.159 HD
ENDROOT
BRANCH   1  10
ATOM     10  C   UNL     1       5.630   8.579  -8.468  0.00  0.00    +0.151 C 
BRANCH  10  11
ATOM     11  C   UNL     1       4.688   7.682  -7.713  0.00  0.00    -0.028 A 
ATOM     12  C   UNL     1       4.865   7.460  -6.340  0.00  0.00    +0.005 A 
ATOM     13  C   UNL     1       3.614   7.057  -8.364  0.00  0.00    +0.005 A 
ATOM     14  C   UNL     1       3.973   6.651  -5.632  0.00  0.00    +0.000 A 
ATOM     15  C   UNL     1       2.726   6.249  -7.654  0.00  0.00    +0.000 A 
ATOM     16  C   UNL     1       2.905   6.048  -6.287  0.00  0.00    +0.000 A 
ENDBRANCH  10  11
ENDBRANCH   1  10
TORSDOF 2
ENDMDL
