MODEL 1
REMARK VINA RESULT:    -6.683      0.000      0.000
REMARK INTER + INTRA:          -7.624
REMARK INTER:                  -7.465
REMARK INTRA:                  -0.159
REMARK UNBOUND:                -0.159
REMARK  Name = 1550473
REMARK  2 active torsions:
REMARK  status: ('A' for Active; 'I' for Inactive)
REMARK    1  A    between atoms: N_1  and  C_4
REMARK    2  A    between atoms: C_4  and  C_5
REMARK                            x       y       z     vdW  Elec       q    Type
REMARK                         _______ _______ _______ _____ _____    ______ ____
ROOT
ATOM      1  N   UNL     1      -2.381  -6.649  -3.054  0.00  0.00    -0.354 N 
ATOM      2  N   UNL     1      -0.923  -8.358  -3.616  0.00  0.00    -0.372 N 
ATOM      3  N   UNL     1      -1.158  -7.782  -1.407  0.00  0.00    -0.372 N 
ATOM      4  C   UNL     1      -1.496  -7.585  -2.686  0.00  0.00    +0.166 C 
ATOM      5  H   UNL     1      -2.572  -6.529  -4.042  0.00  0.00    +0.163 HD
ATOM      6  H   UNL     1      -0.254  -9.075  -3.368  0.00  0.00    +0.159 HD
ATOM      7  H   UNL     1      -1.150  -8.266  -4.599  0.00  0.00    +0.159 HD
ATOM      8  H   UNL     1      -1.551  -7.228  -0.658  0.00  0.00    +0.159 HD
ATOM      9  H   UNL     1      -0.482  -8.487  -1.140  0.00  0.00    +0.159 HD
ENDROOT
BRANCH   1  10
ATOM     10  C   UNL     1      -3.102  -5.791  -2.115  0.00  0.00    +0.151 C 
BRANCH  10  11
ATOM     11  C   UNL     1      -2.348  -4.501  -1.949  0.00  0.00    -0.028 A 
ATOM     12  C   UNL     1      -2.353  -3.537  -2.967  0.00  0.00    +0.005 A 
ATOM     13  C   UNL     1      -1.630  -4.235  -0.773  0.00  0.00    +0.005 A 
ATOM     14  C   UNL     1      -1.677  -2.325  -2.801  0.00  0.00    +0.000 A 
ATOM     15  C   UNL     1      -0.955  -3.025  -0.611  0.00  0.00    +0.000 A 
ATOM     16  C   UNL     1      -0.981  -2.069  -1.624  0.00  0.00    +0.000 A 
ENDBRANCH  10  11
ENDBRANCH   1  10
TORSDOF 2
ENDMDL
MODEL 2
REMARK VINA RESULT:    -6.580      7.097      7.715
REMARK INTER + INTRA:          -7.508
REMARK INTER:                  -7.394
REMARK INTRA:                  -0.114
REMARK UNBOUND:                -0.159
REMARK  Name = 1550473
REMARK  2 active torsions:
REMARK  status: ('A' for Active; 'I' for Inactive)
REMARK    1  A    between atoms: N_1  and  C_4
REMARK    2  A    between atoms: C_4  and  C_5
REMARK                            x       y       z     vdW  Elec       q    Type
REMARK                         _______ _______ _______ _____ _____    ______ ____
ROOT
ATOM      1  N   UNL     1       2.764  -5.070  -5.277  0.00  0.00    -0.354 N 
ATOM      2  N   UNL     1       1.335  -6.649  -4.366  0.00  0.00    -0.372 N 
ATOM      3  N   UNL     1       1.408  -4.552  -3.437  0.00  0.00    -0.372 N 
ATOM      4  C   UNL     1       1.845  -5.411  -4.364  0.00  0.00    +0.166 C 
ATOM      5  H   UNL     1       3.075  -5.776  -5.934  0.00  0.00    +0.163 HD
ATOM      6  H   UNL     1       0.638  -6.934  -3.691  0.00  0.00    +0.159 HD
ATOM      7  H   UNL     1       1.615  -7.339  -5.053  0.00  0.00    +0.159 HD
ATOM      8  H   UNL     1       1.758  -3.605  -3.378  0.00  0.00    +0.159 HD
ATOM      9  H   UNL     1       0.720  -4.822  -2.746  0.00  0.00    +0.159 HD
ENDROOT
BRANCH   1  10
ATOM     10  C   UNL     1       3.342  -3.733  -5.396  0.00  0.00    +0.151 C 
BRANCH  10  11
ATOM     11  C   UNL     1       4.308  -3.715  -6.548  0.00  0.00    -0.028 A 
ATOM     12  C   UNL     1       5.083  -4.846  -6.845  0.00  0.00    +0.005 A 
ATOM     13  C   UNL     1       4.448  -2.572  -7.351  0.00  0.00    +0.005 A 
ATOM     14  C   UNL     1       5.958  -4.840  -7.934  0.00  0.00    +0.000 A 
ATOM     15  C   UNL     1       5.324  -2.570  -8.436  0.00  0.00    +0.000 A 
ATOM     16  C   UNL     1       6.077  -3.705  -8.729  0.00  0.00    +0.000 A 
ENDBRANCH  10  11
ENDBRANCH   1  10
TORSDOF 2
ENDMDL
MODEL 3
REMARK VINA RESULT:    -6.305     20.268     21.852
REMARK INTER + INTRA:          -7.202
REMARK INTER:                  -7.038
REMARK INTRA:                  -0.164
REMARK UNBOUND:                -0.159
REMARK  Name = 1550473
REMARK  2 active torsions:
REMARK  status: ('A' for Active; 'I' for Inactive)
REMARK    1  A    between atoms: N_1  and  C_4
REMARK    2  A    between atoms: C_4  and  C_5
REMARK                            x       y       z     vdW  Elec       q    Type
REMARK                         _______ _______ _______ _____ _____    ______ ____
ROOT
ATOM      1  N   UNL     1       4.658  11.721 -11.346  0.00  0.00    -0.354 N 
ATOM      2  N   UNL     1       6.307  11.322  -9.770  0.00  0.00    -0.372 N 
ATOM      3  N   UNL     1       6.124   9.906 -11.566  0.00  0.00    -0.372 N 
ATOM      4  C   UNL     1       5.686  10.983 -10.906  0.00  0.00    +0.166 C 
ATOM      5  H   UNL     1       4.355  12.508 -10.784  0.00  0.00    +0.163 HD
ATOM      6  H   UNL     1       7.088  10.787  -9.415  0.00  0.00    +0.159 HD
ATOM      7  H   UNL     1       6.032  12.136  -9.234  0.00  0.00    +0.159 HD
ATOM      8  H   UNL     1       5.694   9.594 -12.426  0.00  0.00    +0.159 HD
ATOM      9  H   UNL     1       6.896   9.350 -11.220  0.00  0.00    +0.159 HD
ENDROOT
BRANCH   1  10
ATOM     10  C   UNL     1       3.947  11.469 -12.598  0.00  0.00    +0.151 C 
BRANCH  10  11
ATOM     11  C   UNL     1       4.365  12.495 -13.615  0.00  0.00    -0.028 A 
ATOM     12  C   UNL     1       4.505  13.842 -13.251  0.00  0.00    +0.005 A 
ATOM     13  C   UNL     1       4.629  12.125 -14.943  0.00  0.00    +0.005 A 
ATOM     14  C   UNL     1       4.922  14.791 -14.188  0.00  0.00    +0.000 A 
ATOM     15  C   UNL     1       5.045  13.075 -15.875  0.00  0.00    +0.000 A 
ATOM     16  C   UNL     1       5.194  14.407 -15.497  0.00  0.00    +0.000 A 
ENDBRANCH  10  11
ENDBRANCH   1  10
TORSDOF 2
ENDMDL
MODEL 4
REMARK VINA RESULT:    -6.216     21.866     23.429
REMARK INTER + INTRA:          -7.101
REMARK INTER:                  -6.993
REMARK INTRA:                  -0.108
REMARK UNBOUND:                -0.159
REMARK  Name = 1550473
REMARK  2 active torsions:
REMARK  status: ('A' for Active; 'I' for Inactive)
REMARK    1  A    between atoms: N_1  and  C_4
REMARK    2  A    between atoms: C_4  and  C_5
REMARK                            x       y       z     vdW  Elec       q    Type
REMARK                         _______ _______ _______ _____ _____    ______ ____
ROOT
ATOM      1  N   UNL     1       6.204  12.348 -13.326  0.00  0.00    -0.354 N 
ATOM      2  N   UNL     1       7.152  11.008 -11.692  0.00  0.00    -0.372 N 
ATOM      3  N   UNL     1       5.632  10.083 -13.142  0.00  0.00    -0.372 N 
ATOM      4  C   UNL     1       6.321  11.153 -12.732  0.00  0.00    +0.166 C 
ATOM      5  H   UNL     1       6.731  13.128 -12.948  0.00  0.00    +0.163 HD
ATOM      6  H   UNL     1       7.264  10.118 -11.226  0.00  0.00    +0.159 HD
ATOM      7  H   UNL     1       7.712  11.777 -11.346  0.00  0.00    +0.159 HD
ATOM      8  H   UNL     1       4.984  10.128 -13.917  0.00  0.00    +0.159 HD
ATOM      9  H   UNL     1       5.722   9.186 -12.680  0.00  0.00    +0.159 HD
ENDROOT
BRANCH   1  10
ATOM     10  C   UNL     1       5.368  12.600 -14.498  0.00  0.00    +0.151 C 
BRANCH  10  11
ATOM     11  C   UNL     1       5.170  14.083 -14.651  0.00  0.00    -0.028 A 
ATOM     12  C   UNL     1       4.610  14.838 -13.610  0.00  0.00    +0.005 A 
ATOM     13  C   UNL     1       5.546  14.740 -15.833  0.00  0.00    +0.005 A 
ATOM     14  C   UNL     1       4.454  16.220 -13.741  0.00  0.00    +0.000 A 
ATOM     15  C   UNL     1       5.387  16.120 -15.960  0.00  0.00    +0.000 A 
ATOM     16  C   UNL     1       4.844  16.860 -14.913  0.00  0.00    +0.000 A 
ENDBRANCH  10  11
ENDBRANCH   1  10
TORSDOF 2
ENDMDL
MODEL 5
REMARK VINA RESULT:    -6.189      1.515      2.350
REMARK INTER + INTRA:          -7.072
REMARK INTER:                  -6.968
REMARK INTRA:                  -0.104
REMARK UNBOUND:                -0.159
REMARK  Name = 1550473
REMARK  2 active torsions:
REMARK  status: ('A' for Active; 'I' for Inactive)
REMARK    1  A    between atoms: N_1  and  C_4
REMARK    2  A    between atoms: C_4  and  C_5
REMARK                            x       y       z     vdW  Elec       q    Type
REMARK                         _______ _______ _______ _____ _____    ______ ____
ROOT
ATOM      1  N   UNL     1      -3.297  -6.844  -2.345  0.00  0.00    -0.354 N 
ATOM      2  N   UNL     1      -5.114  -8.127  -2.991  0.00  0.00    -0.372 N 
ATOM      3  N   UNL     1      -3.004  -8.995  -3.230  0.00  0.00    -0.372 N 
ATOM      4  C   UNL     1      -3.791  -7.982  -2.852  0.00  0.00    +0.166 C 
ATOM      5  H   UNL     1      -3.945  -6.103  -2.106  0.00  0.00    +0.163 HD
ATOM      6  H   UNL     1      -5.516  -8.975  -3.367  0.00  0.00    +0.159 HD
ATOM      7  H   UNL     1      -5.762  -7.401  -2.708  0.00  0.00    +0.159 HD
ATOM      8  H   UNL     1      -1.996  -8.946  -3.157  0.00  0.00    +0.159 HD
ATOM      9  H   UNL     1      -3.387  -9.847  -3.620  0.00  0.00    +0.159 HD
ENDROOT
BRANCH   1  10
ATOM     10  C   UNL     1      -1.875  -6.607  -2.103  0.00  0.00    +0.151 C 
BRANCH  10  11
ATOM     11  C   UNL     1      -1.648  -5.133  -1.912  0.00  0.00    -0.028 A 
ATOM     12  C   UNL     1      -1.148  -4.640  -0.698  0.00  0.00    +0.005 A 
ATOM     13  C   UNL     1      -1.927  -4.223  -2.944  0.00  0.00    +0.005 A 
ATOM     14  C   UNL     1      -0.909  -3.274  -0.530  0.00  0.00    +0.000 A 
ATOM     15  C   UNL     1      -1.688  -2.860  -2.773  0.00  0.00    +0.000 A 
ATOM     16  C   UNL     1      -1.177  -2.386  -1.567  0.00  0.00    +0.000 A 
ENDBRANCH  10  11
ENDBRANCH   1  10
TORSDOF 2
ENDMDL
MODEL 6
REMARK VINA RESULT:    -6.019      6.102      6.604
REMARK INTER + INTRA:          -6.882
REMARK INTER:                  -6.776
REMARK INTRA:                  -0.105
REMARK UNBOUND:                -0.159
REMARK  Name = 1550473
REMARK  2 active torsions:
REMARK  status: ('A' for Active; 'I' for Inactive)
REMARK    1  A    between atoms: N_1  and  C_4
REMARK    2  A    between atoms: C_4  and  C_5
REMARK                            x       y       z     vdW  Elec       q    Type
REMARK                         _______ _______ _______ _____ _____    ______ ____
ROOT
ATOM      1  N   UNL     1       1.181  -4.594  -5.051  0.00  0.00    -0.354 N 
ATOM      2  N   UNL     1      -1.116  -4.895  -5.084  0.00  0.00    -0.372 N 
ATOM      3  N   UNL     1       0.189  -6.431  -3.987  0.00  0.00    -0.372 N 
ATOM      4  C   UNL     1       0.100  -5.307  -4.706  0.00  0.00    +0.166 C 
ATOM      5  H   UNL     1       1.049  -3.767  -5.623  0.00  0.00    +0.163 HD
ATOM      6  H   UNL     1      -1.949  -5.411  -4.836  0.00  0.00    +0.159 HD
ATOM      7  H   UNL     1      -1.248  -4.044  -5.617  0.00  0.00    +0.159 HD
ATOM      8  H   UNL     1       1.078  -6.799  -3.675  0.00  0.00    +0.159 HD
ATOM      9  H   UNL     1      -0.633  -6.967  -3.738  0.00  0.00    +0.159 HD
ENDROOT
BRANCH   1  10
ATOM     10  C   UNL     1       2.545  -4.927  -4.644  0.00  0.00    +0.151 C 
BRANCH  10  11
ATOM     11  C   UNL     1       3.500  -4.481  -5.717  0.00  0.00    -0.028 A 
ATOM     12  C   UNL     1       3.521  -3.145  -6.141  0.00  0.00    +0.005 A 
ATOM     13  C   UNL     1       4.390  -5.390  -6.309  0.00  0.00    +0.005 A 
ATOM     14  C   UNL     1       4.429  -2.724  -7.116  0.00  0.00    +0.000 A 
ATOM     15  C   UNL     1       5.294  -4.967  -7.283  0.00  0.00    +0.000 A 
ATOM     16  C   UNL     1       5.315  -3.633  -7.684  0.00  0.00    +0.000 A 
ENDBRANCH  10  11
ENDBRANCH   1  10
TORSDOF 2
ENDMDL
MODEL 7
REMARK VINA RESULT:    -5.786      4.328      4.882
REMARK INTER + INTRA:          -6.622
REMARK INTER:                  -6.450
REMARK INTRA:                  -0.171
REMARK UNBOUND:                -0.159
REMARK  Name = 1550473
REMARK  2 active torsions:
REMARK  status: ('A' for Active; 'I' for Inactive)
REMARK    1  A    between atoms: N_1  and  C_4
REMARK    2  A    between atoms: C_4  and  C_5
REMARK                            x       y       z     vdW  Elec       q    Type
REMARK                         _______ _______ _______ _____ _____    ______ ____
ROOT
ATOM      1  N   UNL     1       1.789  -4.012  -5.663  0.00  0.00    -0.354 N 
ATOM      2  N   UNL     1       3.361  -2.644  -6.674  0.00  0.00    -0.372 N 
ATOM      3  N   UNL     1       3.881  -3.641  -4.673  0.00  0.00    -0.372 N 
ATOM      4  C   UNL     1       3.001  -3.442  -5.661  0.00  0.00    +0.166 C 
ATOM      5  H   UNL     1       1.158  -3.798  -6.427  0.00  0.00    +0.163 HD
ATOM      6  H   UNL     1       4.271  -2.203  -6.701  0.00  0.00    +0.159 HD
ATOM      7  H   UNL     1       2.745  -2.468  -7.458  0.00  0.00    +0.159 HD
ATOM      8  H   UNL     1       3.668  -4.227  -3.877  0.00  0.00    +0.159 HD
ATOM      9  H   UNL     1       4.791  -3.198  -4.677  0.00  0.00    +0.159 HD
ENDROOT
BRANCH   1  10
ATOM     10  C   UNL     1       1.320  -4.940  -4.635  0.00  0.00    +0.151 C 
BRANCH  10  11
ATOM     11  C   UNL     1       0.220  -4.284  -3.847  0.00  0.00    -0.028 A 
ATOM     12  C   UNL     1       0.524  -3.388  -2.812  0.00  0.00    +0.005 A 
ATOM     13  C   UNL     1      -1.127  -4.550  -4.135  0.00  0.00    +0.005 A 
ATOM     14  C   UNL     1      -0.498  -2.755  -2.099  0.00  0.00    +0.000 A 
ATOM     15  C   UNL     1      -2.144  -3.917  -3.420  0.00  0.00    +0.000 A 
ATOM     16  C   UNL     1      -1.829  -3.018  -2.404  0.00  0.00    +0.000 A 
ENDBRANCH  10  11
ENDBRANCH   1  10
TORSDOF 2
ENDMDL
MODEL 8
REMARK VINA RESULT:    -5.708      4.198      5.044
REMARK INTER + INTRA:          -6.534
REMARK INTER:                  -6.396
REMARK INTRA:                  -0.138
REMARK UNBOUND:                -0.159
REMARK  Name = 1550473
REMARK  2 active torsions:
REMARK  status: ('A' for Active; 'I' for Inactive)
REMARK    1  A    between atoms: N_1  and  C_4
REMARK    2  A    between atoms: C_4  and  C_5
REMARK                            x       y       z     vdW  Elec       q    Type
REMARK                         _______ _______ _______ _____ _____    ______ ____
ROOT
ATOM      1  N   UNL     1       0.178  -4.087  -2.125  0.00  0.00    -0.354 N 
ATOM      2  N   UNL     1      -1.299  -5.341  -0.856  0.00  0.00    -0.372 N 
ATOM      3  N   UNL     1      -2.139  -3.817  -2.352  0.00  0.00    -0.372 N 
ATOM      4  C   UNL     1      -1.079  -4.405  -1.787  0.00  0.00    +0.166 C 
ATOM      5  H   UNL     1       0.938  -4.547  -1.638  0.00  0.00    +0.163 HD
ATOM      6  H   UNL     1      -2.237  -5.604  -0.583  0.00  0.00    +0.159 HD
ATOM      7  H   UNL     1      -0.538  -5.832  -0.404  0.00  0.00    +0.159 HD
ATOM      8  H   UNL     1      -2.040  -3.099  -3.058  0.00  0.00    +0.159 HD
ATOM      9  H   UNL     1      -3.085  -4.059  -2.084  0.00  0.00    +0.159 HD
ENDROOT
BRANCH   1  10
ATOM     10  C   UNL     1       0.526  -3.120  -3.165  0.00  0.00    +0.151 C 
BRANCH  10  11
ATOM     11  C   UNL     1       1.582  -3.715  -4.055  0.00  0.00    -0.028 A 
ATOM     12  C   UNL     1       1.646  -5.102  -4.256  0.00  0.00    +0.005 A 
ATOM     13  C   UNL     1       2.519  -2.897  -4.704  0.00  0.00    +0.005 A 
ATOM     14  C   UNL     1       2.608  -5.652  -5.106  0.00  0.00    +0.000 A 
ATOM     15  C   UNL     1       3.479  -3.450  -5.551  0.00  0.00    +0.000 A 
ATOM     16  C   UNL     1       3.521  -4.827  -5.754  0.00  0.00    +0.000 A 
ENDBRANCH  10  11
ENDBRANCH   1  10
TORSDOF 2
ENDMDL
MODEL 9
REMARK VINA RESULT:    -5.551     23.498     25.070
REMARK INTER + INTRA:          -6.359
REMARK INTER:                  -6.256
REMARK INTRA:                  -0.103
REMARK UNBOUND:                -0.159
REMARK  Name = 1550473
REMARK  2 active torsions:
REMARK  status: ('A' for Active; 'I' for Inactive)
REMARK    1  A    between atoms: N_1  and  C_4
REMARK    2  A    between atoms: C_4  and  C_5
REMARK                            x       y       z     vdW  Elec       q    Type
REMARK                         _______ _______ _______ _____ _____    ______ ____
ROOT
ATOM      1  N   UNL     1       5.536  13.920 -13.975  0.00  0.00    -0.354 N 
ATOM      2  N   UNL     1       6.460  11.933 -13.223  0.00  0.00    -0.372 N 
ATOM      3  N   UNL     1       4.530  12.700 -12.246  0.00  0.00    -0.372 N 
ATOM      4  C   UNL     1       5.500  12.864 -13.151  0.00  0.00    +0.166 C 
ATOM      5  H   UNL     1       6.315  14.002 -14.619  0.00  0.00    +0.163 HD
ATOM      6  H   UNL     1       6.457  11.124 -12.617  0.00  0.00    +0.159 HD
ATOM      7  H   UNL     1       7.212  11.995 -13.899  0.00  0.00    +0.159 HD
ATOM      8  H   UNL     1       3.780  13.369 -12.137  0.00  0.00    +0.159 HD
ATOM      9  H   UNL     1       4.517  11.902 -11.622  0.00  0.00    +0.159 HD
ENDROOT
BRANCH   1  10
ATOM     10  C   UNL     1       4.511  14.961 -14.014  0.00  0.00    +0.151 C 
BRANCH  10  11
ATOM     11  C   UNL     1       4.936  16.032 -14.981  0.00  0.00    -0.028 A 
ATOM     12  C   UNL     1       5.322  15.699 -16.288  0.00  0.00    +0.005 A 
ATOM     13  C   UNL     1       4.948  17.382 -14.599  0.00  0.00    +0.005 A 
ATOM     14  C   UNL     1       5.687  16.696 -17.196  0.00  0.00    +0.000 A 
ATOM     15  C   UNL     1       5.315  18.374 -15.508  0.00  0.00    +0.000 A 
ATOM     16  C   UNL     1       5.682  18.031 -16.807  0.00  0.00    +0.000 A 
ENDBRANCH  10  11
ENDBRANCH   1  10
TORSDOF 2
ENDMDL
