MODEL 1
REMARK VINA RESULT:    -5.232      0.000      0.000
REMARK INTER + INTRA:          -5.979
REMARK INTER:                  -5.844
REMARK INTRA:                  -0.136
REMARK UNBOUND:                -0.136
REMARK  Name = 1550473
REMARK  2 active torsions:
REMARK  status: ('A' for Active; 'I' for Inactive)
REMARK    1  A    between atoms: N_1  and  C_4
REMARK    2  A    between atoms: C_4  and  C_5
REMARK                            x       y       z     vdW  Elec       q    Type
REMARK                         _______ _______ _______ _____ _____    ______ ____
ROOT
ATOM      1  N   UNL     1       5.963   0.446  -3.714  0.00  0.00    -0.354 N 
ATOM      2  N   UNL     1       4.330   1.848  -2.857  0.00  0.00    -0.372 N 
ATOM      3  N   UNL     1       6.341   2.749  -3.498  0.00  0.00    -0.372 N 
ATOM      4  C   UNL     1       5.557   1.674  -3.362  0.00  0.00    +0.166 C 
ATOM      5  H   UNL     1       5.333  -0.332  -3.558  0.00  0.00    +0.163 HD
ATOM      6  H   UNL     1       3.995   2.763  -2.586  0.00  0.00    +0.159 HD
ATOM      7  H   UNL     1       3.686   1.075  -2.745  0.00  0.00    +0.159 HD
ATOM      8  H   UNL     1       7.280   2.684  -3.868  0.00  0.00    +0.159 HD
ATOM      9  H   UNL     1       6.028   3.671  -3.222  0.00  0.00    +0.159 HD
ENDROOT
BRANCH   1  10
ATOM     10  C   UNL     1       7.260   0.157  -4.323  0.00  0.00    +0.151 C 
BRANCH  10  11
ATOM     11  C   UNL     1       7.959  -0.898  -3.511  0.00  0.00    -0.028 A 
ATOM     12  C   UNL     1       8.842  -1.799  -4.124  0.00  0.00    +0.005 A 
ATOM     13  C   UNL     1       7.749  -0.997  -2.127  0.00  0.00    +0.005 A 
ATOM     14  C   UNL     1       9.515  -2.760  -3.365  0.00  0.00    +0.000 A 
ATOM     15  C   UNL     1       8.422  -1.958  -1.374  0.00  0.00    +0.000 A 
ATOM     16  C   UNL     1       9.307  -2.838  -1.992  0.00  0.00    +0.000 A 
ENDBRANCH  10  11
ENDBRANCH   1  10
TORSDOF 2
ENDMDL
MODEL 2
REMARK VINA RESULT:    -5.158     12.110     13.621
REMARK INTER + INTRA:          -5.897
REMARK INTER:                  -5.753
REMARK INTRA:                  -0.144
REMARK UNBOUND:                -0.136
REMARK  Name = 1550473
REMARK  2 active torsions:
REMARK  status: ('A' for Active; 'I' for Inactive)
REMARK    1  A    between atoms: N_1  and  C_4
REMARK    2  A    between atoms: C_4  and  C_5
REMARK                            x       y       z     vdW  Elec       q    Type
REMARK                         _______ _______ _______ _____ _____    ______ ____
ROOT
ATOM      1  N   UNL     1       8.582 -12.864  -0.705  0.00  0.00    -0.354 N 
ATOM      2  N   UNL     1      10.292 -11.858   0.491  0.00  0.00    -0.372 N 
ATOM      3  N   UNL     1       8.773 -10.530  -0.602  0.00  0.00    -0.372 N 
ATOM      4  C   UNL     1       9.203 -11.755  -0.281  0.00  0.00    +0.166 C 
ATOM      5  H   UNL     1       8.976 -13.763  -0.452  0.00  0.00    +0.163 HD
ATOM      6  H   UNL     1      10.779 -11.040   0.829  0.00  0.00    +0.159 HD
ATOM      7  H   UNL     1      10.656 -12.758   0.781  0.00  0.00    +0.159 HD
ATOM      8  H   UNL     1       7.961 -10.384  -1.187  0.00  0.00    +0.159 HD
ATOM      9  H   UNL     1       9.255  -9.699  -0.283  0.00  0.00    +0.159 HD
ENDROOT
BRANCH   1  10
ATOM     10  C   UNL     1       7.359 -12.860  -1.506  0.00  0.00    +0.151 C 
BRANCH  10  11
ATOM     11  C   UNL     1       6.262 -13.536  -0.730  0.00  0.00    -0.028 A 
ATOM     12  C   UNL     1       4.938 -13.502  -1.191  0.00  0.00    +0.005 A 
ATOM     13  C   UNL     1       6.542 -14.216   0.466  0.00  0.00    +0.005 A 
ATOM     14  C   UNL     1       3.924 -14.154  -0.486  0.00  0.00    +0.000 A 
ATOM     15  C   UNL     1       5.526 -14.866   1.167  0.00  0.00    +0.000 A 
ATOM     16  C   UNL     1       4.218 -14.837   0.690  0.00  0.00    +0.000 A 
ENDBRANCH  10  11
ENDBRANCH   1  10
TORSDOF 2
ENDMDL
MODEL 3
REMARK VINA RESULT:    -5.155      4.120      5.710
REMARK INTER + INTRA:          -5.893
REMARK INTER:                  -5.753
REMARK INTRA:                  -0.140
REMARK UNBOUND:                -0.136
REMARK  Name = 1550473
REMARK  2 active torsions:
REMARK  status: ('A' for Active; 'I' for Inactive)
REMARK    1  A    between atoms: N_1  and  C_4
REMARK    2  A    between atoms: C_4  and  C_5
REMARK                            x       y       z     vdW  Elec       q    Type
REMARK                         _______ _______ _______ _____ _____    ______ ____
ROOT
ATOM      1  N   UNL     1      10.618  -3.815  -4.130  0.00  0.00    -0.354 N 
ATOM      2  N   UNL     1      12.367  -4.049  -5.630  0.00  0.00    -0.372 N 
ATOM      3  N   UNL     1      12.835  -3.969  -3.385  0.00  0.00    -0.372 N 
ATOM      4  C   UNL     1      11.930  -3.943  -4.369  0.00  0.00    +0.166 C 
ATOM      5  H   UNL     1       9.986  -3.771  -4.921  0.00  0.00    +0.163 HD
ATOM      6  H   UNL     1      13.351  -4.150  -5.841  0.00  0.00    +0.159 HD
ATOM      7  H   UNL     1      11.729  -4.051  -6.416  0.00  0.00    +0.159 HD
ATOM      8  H   UNL     1      12.570  -3.887  -2.412  0.00  0.00    +0.159 HD
ATOM      9  H   UNL     1      13.825  -4.058  -3.577  0.00  0.00    +0.159 HD
ENDROOT
BRANCH   1  10
ATOM     10  C   UNL     1      10.034  -3.745  -2.791  0.00  0.00    +0.151 C 
BRANCH  10  11
ATOM     11  C   UNL     1       9.088  -2.578  -2.728  0.00  0.00    -0.028 A 
ATOM     12  C   UNL     1       8.593  -1.998  -3.905  0.00  0.00    +0.005 A 
ATOM     13  C   UNL     1       8.678  -2.051  -1.494  0.00  0.00    +0.005 A 
ATOM     14  C   UNL     1       7.691  -0.933  -3.847  0.00  0.00    +0.000 A 
ATOM     15  C   UNL     1       7.778  -0.987  -1.439  0.00  0.00    +0.000 A 
ATOM     16  C   UNL     1       7.283  -0.430  -2.616  0.00  0.00    +0.000 A 
ENDBRANCH  10  11
ENDBRANCH   1  10
TORSDOF 2
ENDMDL
MODEL 4
REMARK VINA RESULT:    -4.904     11.315     14.143
REMARK INTER + INTRA:          -5.613
REMARK INTER:                  -5.490
REMARK INTRA:                  -0.123
REMARK UNBOUND:                -0.136
REMARK  Name = 1550473
REMARK  2 active torsions:
REMARK  status: ('A' for Active; 'I' for Inactive)
REMARK    1  A    between atoms: N_1  and  C_4
REMARK    2  A    between atoms: C_4  and  C_5
REMARK                            x       y       z     vdW  Elec       q    Type
REMARK                         _______ _______ _______ _____ _____    ______ ____
ROOT
ATOM      1  N   UNL     1      -2.902   3.253  -7.701  0.00  0.00    -0.354 N 
ATOM      2  N   UNL     1      -1.825   1.244  -7.291  0.00  0.00    -0.372 N 
ATOM      3  N   UNL     1      -2.077   1.945  -9.462  0.00  0.00    -0.372 N 
ATOM      4  C   UNL     1      -2.275   2.160  -8.157  0.00  0.00    +0.166 C 
ATOM      5  H   UNL     1      -3.048   3.343  -6.702  0.00  0.00    +0.163 HD
ATOM      6  H   UNL     1      -1.345   0.412  -7.605  0.00  0.00    +0.159 HD
ATOM      7  H   UNL     1      -1.931   1.359  -6.291  0.00  0.00    +0.159 HD
ATOM      8  H   UNL     1      -2.398   2.595 -10.167  0.00  0.00    +0.159 HD
ATOM      9  H   UNL     1      -1.609   1.112  -9.796  0.00  0.00    +0.159 HD
ENDROOT
BRANCH   1  10
ATOM     10  C   UNL     1      -3.383   4.336  -8.557  0.00  0.00    +0.151 C 
BRANCH  10  11
ATOM     11  C   UNL     1      -4.476   5.081  -7.840  0.00  0.00    -0.028 A 
ATOM     12  C   UNL     1      -4.602   4.991  -6.446  0.00  0.00    +0.005 A 
ATOM     13  C   UNL     1      -5.385   5.881  -8.549  0.00  0.00    +0.005 A 
ATOM     14  C   UNL     1      -5.598   5.706  -5.776  0.00  0.00    +0.000 A 
ATOM     15  C   UNL     1      -6.378   6.593  -7.876  0.00  0.00    +0.000 A 
ATOM     16  C   UNL     1      -6.483   6.507  -6.490  0.00  0.00    +0.000 A 
ENDBRANCH  10  11
ENDBRANCH   1  10
TORSDOF 2
ENDMDL
MODEL 5
REMARK VINA RESULT:    -4.851      4.652      7.971
REMARK INTER + INTRA:          -5.554
REMARK INTER:                  -5.431
REMARK INTRA:                  -0.124
REMARK UNBOUND:                -0.136
REMARK  Name = 1550473
REMARK  2 active torsions:
REMARK  status: ('A' for Active; 'I' for Inactive)
REMARK    1  A    between atoms: N_1  and  C_4
REMARK    2  A    between atoms: C_4  and  C_5
REMARK                            x       y       z     vdW  Elec       q    Type
REMARK                         _______ _______ _______ _____ _____    ______ ____
ROOT
ATOM      1  N   UNL     1       4.771   3.728  -4.359  0.00  0.00    -0.354 N 
ATOM      2  N   UNL     1       6.451   2.571  -3.263  0.00  0.00    -0.372 N 
ATOM      3  N   UNL     1       4.272   1.925  -2.948  0.00  0.00    -0.372 N 
ATOM      4  C   UNL     1       5.151   2.748  -3.529  0.00  0.00    +0.166 C 
ATOM      5  H   UNL     1       5.484   4.337  -4.744  0.00  0.00    +0.163 HD
ATOM      6  H   UNL     1       6.768   1.837  -2.643  0.00  0.00    +0.159 HD
ATOM      7  H   UNL     1       7.165   3.152  -3.685  0.00  0.00    +0.159 HD
ATOM      8  H   UNL     1       3.276   2.009  -3.103  0.00  0.00    +0.159 HD
ATOM      9  H   UNL     1       4.569   1.192  -2.316  0.00  0.00    +0.159 HD
ENDROOT
BRANCH   1  10
ATOM     10  C   UNL     1       3.385   3.971  -4.757  0.00  0.00    +0.151 C 
BRANCH  10  11
ATOM     11  C   UNL     1       3.372   4.821  -5.998  0.00  0.00    -0.028 A 
ATOM     12  C   UNL     1       4.472   4.827  -6.868  0.00  0.00    +0.005 A 
ATOM     13  C   UNL     1       2.261   5.618  -6.312  0.00  0.00    +0.005 A 
ATOM     14  C   UNL     1       4.448   5.593  -8.036  0.00  0.00    +0.000 A 
ATOM     15  C   UNL     1       2.241   6.381  -7.479  0.00  0.00    +0.000 A 
ATOM     16  C   UNL     1       3.334   6.367  -8.342  0.00  0.00    +0.000 A 
ENDBRANCH  10  11
ENDBRANCH   1  10
TORSDOF 2
ENDMDL
MODEL 6
REMARK VINA RESULT:    -4.826      1.270      1.717
REMARK INTER + INTRA:          -5.526
REMARK INTER:                  -5.401
REMARK INTRA:                  -0.125
REMARK UNBOUND:                -0.136
REMARK  Name = 1550473
REMARK  2 active torsions:
REMARK  status: ('A' for Active; 'I' for Inactive)
REMARK    1  A    between atoms: N_1  and  C_4
REMARK    2  A    between atoms: C_4  and  C_5
REMARK                            x       y       z     vdW  Elec       q    Type
REMARK                         _______ _______ _______ _____ _____    ______ ____
ROOT
ATOM      1  N   UNL     1       7.035  -0.066  -4.234  0.00  0.00    -0.354 N 
ATOM      2  N   UNL     1       7.049   2.247  -4.123  0.00  0.00    -0.372 N 
ATOM      3  N   UNL     1       5.350   1.098  -3.094  0.00  0.00    -0.372 N 
ATOM      4  C   UNL     1       6.475   1.077  -3.817  0.00  0.00    +0.166 C 
ATOM      5  H   UNL     1       7.871  -0.013  -4.804  0.00  0.00    +0.163 HD
ATOM      6  H   UNL     1       6.652   3.126  -3.820  0.00  0.00    +0.159 HD
ATOM      7  H   UNL     1       7.910   2.295  -4.654  0.00  0.00    +0.159 HD
ATOM      8  H   UNL     1       4.865   0.250  -2.834  0.00  0.00    +0.159 HD
ATOM      9  H   UNL     1       4.931   1.968  -2.791  0.00  0.00    +0.159 HD
ENDROOT
BRANCH   1  10
ATOM     10  C   UNL     1       6.519  -1.395  -3.908  0.00  0.00    +0.151 C 
BRANCH  10  11
ATOM     11  C   UNL     1       7.667  -2.285  -3.517  0.00  0.00    -0.028 A 
ATOM     12  C   UNL     1       8.105  -3.301  -4.379  0.00  0.00    +0.005 A 
ATOM     13  C   UNL     1       8.324  -2.113  -2.289  0.00  0.00    +0.005 A 
ATOM     14  C   UNL     1       9.191  -4.108  -4.030  0.00  0.00    +0.000 A 
ATOM     15  C   UNL     1       9.407  -2.922  -1.944  0.00  0.00    +0.000 A 
ATOM     16  C   UNL     1       9.841  -3.918  -2.815  0.00  0.00    +0.000 A 
ENDBRANCH  10  11
ENDBRANCH   1  10
TORSDOF 2
ENDMDL
MODEL 7
REMARK VINA RESULT:    -4.669     12.780     14.126
REMARK INTER + INTRA:          -5.351
REMARK INTER:                  -5.221
REMARK INTRA:                  -0.130
REMARK UNBOUND:                -0.136
REMARK  Name = 1550473
REMARK  2 active torsions:
REMARK  status: ('A' for Active; 'I' for Inactive)
REMARK    1  A    between atoms: N_1  and  C_4
REMARK    2  A    between atoms: C_4  and  C_5
REMARK                            x       y       z     vdW  Elec       q    Type
REMARK                         _______ _______ _______ _____ _____    ______ ____
ROOT
ATOM      1  N   UNL     1      -5.823   5.861  -7.064  0.00  0.00    -0.354 N 
ATOM      2  N   UNL     1      -7.401   7.555  -6.986  0.00  0.00    -0.372 N 
ATOM      3  N   UNL     1      -5.795   7.459  -5.350  0.00  0.00    -0.372 N 
ATOM      4  C   UNL     1      -6.328   6.948  -6.465  0.00  0.00    +0.166 C 
ATOM      5  H   UNL     1      -6.291   5.505  -7.889  0.00  0.00    +0.163 HD
ATOM      6  H   UNL     1      -7.802   8.379  -6.559  0.00  0.00    +0.159 HD
ATOM      7  H   UNL     1      -7.839   7.224  -7.838  0.00  0.00    +0.159 HD
ATOM      8  H   UNL     1      -4.989   7.044  -4.903  0.00  0.00    +0.159 HD
ATOM      9  H   UNL     1      -6.190   8.276  -4.900  0.00  0.00    +0.159 HD
ENDROOT
BRANCH   1  10
ATOM     10  C   UNL     1      -4.626   5.157  -6.607  0.00  0.00    +0.151 C 
BRANCH  10  11
ATOM     11  C   UNL     1      -3.947   4.524  -7.790  0.00  0.00    -0.028 A 
ATOM     12  C   UNL     1      -4.158   5.022  -9.083  0.00  0.00    +0.005 A 
ATOM     13  C   UNL     1      -3.087   3.428  -7.623  0.00  0.00    +0.005 A 
ATOM     14  C   UNL     1      -3.505   4.453 -10.179  0.00  0.00    +0.000 A 
ATOM     15  C   UNL     1      -2.437   2.861  -8.719  0.00  0.00    +0.000 A 
ATOM     16  C   UNL     1      -2.644   3.376  -9.996  0.00  0.00    +0.000 A 
ENDBRANCH  10  11
ENDBRANCH   1  10
TORSDOF 2
ENDMDL
MODEL 8
REMARK VINA RESULT:    -4.583     10.195     13.402
REMARK INTER + INTRA:          -5.255
REMARK INTER:                  -5.144
REMARK INTRA:                  -0.111
REMARK UNBOUND:                -0.136
REMARK  Name = 1550473
REMARK  2 active torsions:
REMARK  status: ('A' for Active; 'I' for Inactive)
REMARK    1  A    between atoms: N_1  and  C_4
REMARK    2  A    between atoms: C_4  and  C_5
REMARK                            x       y       z     vdW  Elec       q    Type
REMARK                         _______ _______ _______ _____ _____    ______ ____
ROOT
ATOM      1  N   UNL     1      -1.594   4.817  -6.571  0.00  0.00    -0.354 N 
ATOM      2  N   UNL     1       0.263   5.058  -5.208  0.00  0.00    -0.372 N 
ATOM      3  N   UNL     1      -0.405   2.947  -5.809  0.00  0.00    -0.372 N 
ATOM      4  C   UNL     1      -0.591   4.270  -5.872  0.00  0.00    +0.166 C 
ATOM      5  H   UNL     1      -1.699   5.825  -6.554  0.00  0.00    +0.163 HD
ATOM      6  H   UNL     1       1.031   4.674  -4.675  0.00  0.00    +0.159 HD
ATOM      7  H   UNL     1       0.183   6.068  -5.231  0.00  0.00    +0.159 HD
ATOM      8  H   UNL     1      -1.018   2.297  -6.282  0.00  0.00    +0.159 HD
ATOM      9  H   UNL     1       0.352   2.543  -5.271  0.00  0.00    +0.159 HD
ENDROOT
BRANCH   1  10
ATOM     10  C   UNL     1      -2.547   4.049  -7.371  0.00  0.00    +0.151 C 
BRANCH  10  11
ATOM     11  C   UNL     1      -3.819   4.838  -7.511  0.00  0.00    -0.028 A 
ATOM     12  C   UNL     1      -4.575   5.176  -6.378  0.00  0.00    +0.005 A 
ATOM     13  C   UNL     1      -4.272   5.256  -8.771  0.00  0.00    +0.005 A 
ATOM     14  C   UNL     1      -5.742   5.935  -6.504  0.00  0.00    +0.000 A 
ATOM     15  C   UNL     1      -5.437   6.013  -8.893  0.00  0.00    +0.000 A 
ATOM     16  C   UNL     1      -6.171   6.354  -7.759  0.00  0.00    +0.000 A 
ENDBRANCH  10  11
ENDBRANCH   1  10
TORSDOF 2
ENDMDL
MODEL 9
REMARK VINA RESULT:    -4.530      2.716      4.939
REMARK INTER + INTRA:          -5.195
REMARK INTER:                  -5.075
REMARK INTRA:                  -0.120
REMARK UNBOUND:                -0.136
REMARK  Name = 1550473
REMARK  2 active torsions:
REMARK  status: ('A' for Active; 'I' for Inactive)
REMARK    1  A    between atoms: N_1  and  C_4
REMARK    2  A    between atoms: C_4  and  C_5
REMARK                            x       y       z     vdW  Elec       q    Type
REMARK                         _______ _______ _______ _____ _____    ______ ____
ROOT
ATOM      1  N   UNL     1       8.071  -1.148  -2.282  0.00  0.00    -0.354 N 
ATOM      2  N   UNL     1       9.493  -2.661  -1.256  0.00  0.00    -0.372 N 
ATOM      3  N   UNL     1       7.661  -3.453  -2.388  0.00  0.00    -0.372 N 
ATOM      4  C   UNL     1       8.397  -2.413  -1.983  0.00  0.00    +0.166 C 
ATOM      5  H   UNL     1       8.653  -0.402  -1.920  0.00  0.00    +0.163 HD
ATOM      6  H   UNL     1       9.766  -3.605  -1.018  0.00  0.00    +0.159 HD
ATOM      7  H   UNL     1      10.098  -1.916  -0.934  0.00  0.00    +0.159 HD
ATOM      8  H   UNL     1       6.819  -3.333  -2.935  0.00  0.00    +0.159 HD
ATOM      9  H   UNL     1       7.912  -4.405  -2.150  0.00  0.00    +0.159 HD
ENDROOT
BRANCH   1  10
ATOM     10  C   UNL     1       6.928  -0.774  -3.113  0.00  0.00    +0.151 C 
BRANCH  10  11
ATOM     11  C   UNL     1       7.329   0.357  -4.020  0.00  0.00    -0.028 A 
ATOM     12  C   UNL     1       6.828   1.650  -3.811  0.00  0.00    +0.005 A 
ATOM     13  C   UNL     1       8.215   0.142  -5.087  0.00  0.00    +0.005 A 
ATOM     14  C   UNL     1       7.224   2.706  -4.635  0.00  0.00    +0.000 A 
ATOM     15  C   UNL     1       8.608   1.199  -5.908  0.00  0.00    +0.000 A 
ATOM     16  C   UNL     1       8.114   2.481  -5.680  0.00  0.00    +0.000 A 
ENDBRANCH  10  11
ENDBRANCH   1  10
TORSDOF 2
ENDMDL
