MODEL 1
REMARK VINA RESULT:    -4.655      0.000      0.000
REMARK INTER + INTRA:          -5.324
REMARK INTER:                  -5.199
REMARK INTRA:                  -0.126
REMARK UNBOUND:                -0.126
REMARK  Name = 1550473
REMARK  2 active torsions:
REMARK  status: ('A' for Active; 'I' for Inactive)
REMARK    1  A    between atoms: N_1  and  C_4
REMARK    2  A    between atoms: C_4  and  C_5
REMARK                            x       y       z     vdW  Elec       q    Type
REMARK                         _______ _______ _______ _____ _____    ______ ____
ROOT
ATOM      1  N   UNL     1     -18.258  -6.228 -16.940  0.00  0.00    -0.354 N 
ATOM      2  N   UNL     1     -19.267  -6.180 -19.024  0.00  0.00    -0.372 N 
ATOM      3  N   UNL     1     -18.808  -4.195 -17.968  0.00  0.00    -0.372 N 
ATOM      4  C   UNL     1     -18.771  -5.532 -17.963  0.00  0.00    +0.166 C 
ATOM      5  H   UNL     1     -18.287  -7.240 -16.983  0.00  0.00    +0.163 HD
ATOM      6  H   UNL     1     -19.658  -5.682 -19.812  0.00  0.00    +0.159 HD
ATOM      7  H   UNL     1     -19.253  -7.191 -19.085  0.00  0.00    +0.159 HD
ATOM      8  H   UNL     1     -18.455  -3.647 -17.196  0.00  0.00    +0.159 HD
ATOM      9  H   UNL     1     -19.206  -3.679 -18.743  0.00  0.00    +0.159 HD
ENDROOT
BRANCH   1  10
ATOM     10  C   UNL     1     -17.644  -5.617 -15.762  0.00  0.00    +0.151 C 
BRANCH  10  11
ATOM     11  C   UNL     1     -18.665  -5.541 -14.660  0.00  0.00    -0.028 A 
ATOM     12  C   UNL     1     -18.564  -4.560 -13.663  0.00  0.00    +0.005 A 
ATOM     13  C   UNL     1     -19.738  -6.443 -14.611  0.00  0.00    +0.005 A 
ATOM     14  C   UNL     1     -19.528  -4.470 -12.656  0.00  0.00    +0.000 A 
ATOM     15  C   UNL     1     -20.699  -6.350 -13.604  0.00  0.00    +0.000 A 
ATOM     16  C   UNL     1     -20.594  -5.362 -12.628  0.00  0.00    +0.000 A 
ENDBRANCH  10  11
ENDBRANCH   1  10
TORSDOF 2
ENDMDL
MODEL 2
REMARK VINA RESULT:    -4.640     40.203     41.447
REMARK INTER + INTRA:          -5.309
REMARK INTER:                  -5.132
REMARK INTRA:                  -0.177
REMARK UNBOUND:                -0.126
REMARK  Name = 1550473
REMARK  2 active torsions:
REMARK  status: ('A' for Active; 'I' for Inactive)
REMARK    1  A    between atoms: N_1  and  C_4
REMARK    2  A    between atoms: C_4  and  C_5
REMARK                            x       y       z     vdW  Elec       q    Type
REMARK                         _______ _______ _______ _____ _____    ______ ____
ROOT
ATOM      1  N   UNL     1      19.242 -19.711 -12.232  0.00  0.00    -0.354 N 
ATOM      2  N   UNL     1      19.752 -20.024 -14.470  0.00  0.00    -0.372 N 
ATOM      3  N   UNL     1      21.393 -20.360 -12.902  0.00  0.00    -0.372 N 
ATOM      4  C   UNL     1      20.128 -20.030 -13.186  0.00  0.00    +0.166 C 
ATOM      5  H   UNL     1      18.307 -19.441 -12.515  0.00  0.00    +0.163 HD
ATOM      6  H   UNL     1      20.397 -20.263 -15.211  0.00  0.00    +0.159 HD
ATOM      7  H   UNL     1      18.804 -19.798 -14.747  0.00  0.00    +0.159 HD
ATOM      8  H   UNL     1      21.741 -20.378 -11.952  0.00  0.00    +0.159 HD
ATOM      9  H   UNL     1      22.057 -20.591 -13.630  0.00  0.00    +0.159 HD
ENDROOT
BRANCH   1  10
ATOM     10  C   UNL     1      19.536 -19.740 -10.801  0.00  0.00    +0.151 C 
BRANCH  10  11
ATOM     11  C   UNL     1      19.734 -18.332 -10.312  0.00  0.00    -0.028 A 
ATOM     12  C   UNL     1      18.685 -17.403 -10.371  0.00  0.00    +0.005 A 
ATOM     13  C   UNL     1      20.967 -17.921  -9.783  0.00  0.00    +0.005 A 
ATOM     14  C   UNL     1      18.859 -16.103  -9.890  0.00  0.00    +0.000 A 
ATOM     15  C   UNL     1      21.138 -16.622  -9.304  0.00  0.00    +0.000 A 
ATOM     16  C   UNL     1      20.083 -15.714  -9.355  0.00  0.00    +0.000 A 
ENDBRANCH  10  11
ENDBRANCH   1  10
TORSDOF 2
ENDMDL
MODEL 3
REMARK VINA RESULT:    -4.640     39.715     41.004
REMARK INTER + INTRA:          -5.308
REMARK INTER:                  -5.173
REMARK INTRA:                  -0.134
REMARK UNBOUND:                -0.126
REMARK  Name = 1550473
REMARK  2 active torsions:
REMARK  status: ('A' for Active; 'I' for Inactive)
REMARK    1  A    between atoms: N_1  and  C_4
REMARK    2  A    between atoms: C_4  and  C_5
REMARK                            x       y       z     vdW  Elec       q    Type
REMARK                         _______ _______ _______ _____ _____    ______ ____
ROOT
ATOM      1  N   UNL     1      20.562 -13.254  -7.557  0.00  0.00    -0.354 N 
ATOM      2  N   UNL     1      22.072 -11.583  -7.018  0.00  0.00    -0.372 N 
ATOM      3  N   UNL     1      20.038 -10.996  -7.902  0.00  0.00    -0.372 N 
ATOM      4  C   UNL     1      20.879 -11.954  -7.497  0.00  0.00    +0.166 C 
ATOM      5  H   UNL     1      21.256 -13.932  -7.263  0.00  0.00    +0.163 HD
ATOM      6  H   UNL     1      22.338 -10.609  -6.958  0.00  0.00    +0.159 HD
ATOM      7  H   UNL     1      22.746 -12.261  -6.682  0.00  0.00    +0.159 HD
ATOM      8  H   UNL     1      19.124 -11.211  -8.279  0.00  0.00    +0.159 HD
ATOM      9  H   UNL     1      20.290 -10.017  -7.861  0.00  0.00    +0.159 HD
ENDROOT
BRANCH   1  10
ATOM     10  C   UNL     1      19.269 -13.761  -8.012  0.00  0.00    +0.151 C 
BRANCH  10  11
ATOM     11  C   UNL     1      19.482 -15.042  -8.770  0.00  0.00    -0.028 A 
ATOM     12  C   UNL     1      20.757 -15.620  -8.847  0.00  0.00    +0.005 A 
ATOM     13  C   UNL     1      18.411 -15.685  -9.410  0.00  0.00    +0.005 A 
ATOM     14  C   UNL     1      20.950 -16.825  -9.526  0.00  0.00    +0.000 A 
ATOM     15  C   UNL     1      18.608 -16.888 -10.088  0.00  0.00    +0.000 A 
ATOM     16  C   UNL     1      19.877 -17.459 -10.144  0.00  0.00    +0.000 A 
ENDBRANCH  10  11
ENDBRANCH   1  10
TORSDOF 2
ENDMDL
MODEL 4
REMARK VINA RESULT:    -4.378     17.673     19.519
REMARK INTER + INTRA:          -5.016
REMARK INTER:                  -4.889
REMARK INTRA:                  -0.127
REMARK UNBOUND:                -0.126
REMARK  Name = 1550473
REMARK  2 active torsions:
REMARK  status: ('A' for Active; 'I' for Inactive)
REMARK    1  A    between atoms: N_1  and  C_4
REMARK    2  A    between atoms: C_4  and  C_5
REMARK                            x       y       z     vdW  Elec       q    Type
REMARK                         _______ _______ _______ _____ _____    ______ ____
ROOT
ATOM      1  N   UNL     1      -3.964  -7.199 -29.976  0.00  0.00    -0.354 N 
ATOM      2  N   UNL     1      -1.800  -7.917 -30.388  0.00  0.00    -0.372 N 
ATOM      3  N   UNL     1      -2.240  -5.665 -30.383  0.00  0.00    -0.372 N 
ATOM      4  C   UNL     1      -2.682  -6.920 -30.247  0.00  0.00    +0.166 C 
ATOM      5  H   UNL     1      -4.241  -8.172 -29.915  0.00  0.00    +0.163 HD
ATOM      6  H   UNL     1      -0.826  -7.737 -30.589  0.00  0.00    +0.159 HD
ATOM      7  H   UNL     1      -2.072  -8.887 -30.280  0.00  0.00    +0.159 HD
ATOM      8  H   UNL     1      -2.855  -4.868 -30.295  0.00  0.00    +0.159 HD
ATOM      9  H   UNL     1      -1.270  -5.464 -30.596  0.00  0.00    +0.159 HD
ENDROOT
BRANCH   1  10
ATOM     10  C   UNL     1      -4.992  -6.185 -29.751  0.00  0.00    +0.151 C 
BRANCH  10  11
ATOM     11  C   UNL     1      -5.647  -6.436 -28.420  0.00  0.00    -0.028 A 
ATOM     12  C   UNL     1      -5.487  -5.526 -27.365  0.00  0.00    +0.005 A 
ATOM     13  C   UNL     1      -6.433  -7.580 -28.211  0.00  0.00    +0.005 A 
ATOM     14  C   UNL     1      -6.119  -5.744 -26.138  0.00  0.00    +0.000 A 
ATOM     15  C   UNL     1      -7.062  -7.794 -26.984  0.00  0.00    +0.000 A 
ATOM     16  C   UNL     1      -6.907  -6.875 -25.949  0.00  0.00    +0.000 A 
ENDBRANCH  10  11
ENDBRANCH   1  10
TORSDOF 2
ENDMDL
MODEL 5
REMARK VINA RESULT:    -4.370     36.094     37.536
REMARK INTER + INTRA:          -5.007
REMARK INTER:                  -4.892
REMARK INTRA:                  -0.115
REMARK UNBOUND:                -0.126
REMARK  Name = 1550473
REMARK  2 active torsions:
REMARK  status: ('A' for Active; 'I' for Inactive)
REMARK    1  A    between atoms: N_1  and  C_4
REMARK    2  A    between atoms: C_4  and  C_5
REMARK                            x       y       z     vdW  Elec       q    Type
REMARK                         _______ _______ _______ _____ _____    ______ ____
ROOT
ATOM      1  N   UNL     1      11.421  10.056 -26.358  0.00  0.00    -0.354 N 
ATOM      2  N   UNL     1      10.137   8.175 -26.784  0.00  0.00    -0.372 N 
ATOM      3  N   UNL     1      12.398   8.085 -27.164  0.00  0.00    -0.372 N 
ATOM      4  C   UNL     1      11.330   8.783 -26.767  0.00  0.00    +0.166 C 
ATOM      5  H   UNL     1      10.569  10.540 -26.098  0.00  0.00    +0.163 HD
ATOM      6  H   UNL     1      10.038   7.215 -27.084  0.00  0.00    +0.159 HD
ATOM      7  H   UNL     1       9.294   8.647 -26.480  0.00  0.00    +0.159 HD
ATOM      8  H   UNL     1      13.326   8.487 -27.181  0.00  0.00    +0.159 HD
ATOM      9  H   UNL     1      12.318   7.126 -27.480  0.00  0.00    +0.159 HD
ENDROOT
BRANCH   1  10
ATOM     10  C   UNL     1      12.679  10.792 -26.251  0.00  0.00    +0.151 C 
BRANCH  10  11
ATOM     11  C   UNL     1      12.498  12.163 -26.843  0.00  0.00    -0.028 A 
ATOM     12  C   UNL     1      11.546  13.047 -26.314  0.00  0.00    +0.005 A 
ATOM     13  C   UNL     1      13.279  12.585 -27.930  0.00  0.00    +0.005 A 
ATOM     14  C   UNL     1      11.399  14.331 -26.844  0.00  0.00    +0.000 A 
ATOM     15  C   UNL     1      13.127  13.867 -28.457  0.00  0.00    +0.000 A 
ATOM     16  C   UNL     1      12.189  14.741 -27.912  0.00  0.00    +0.000 A 
ENDBRANCH  10  11
ENDBRANCH   1  10
TORSDOF 2
ENDMDL
MODEL 6
REMARK VINA RESULT:    -4.229     25.851     27.001
REMARK INTER + INTRA:          -4.849
REMARK INTER:                  -4.669
REMARK INTRA:                  -0.179
REMARK UNBOUND:                -0.126
REMARK  Name = 1550473
REMARK  2 active torsions:
REMARK  status: ('A' for Active; 'I' for Inactive)
REMARK    1  A    between atoms: N_1  and  C_4
REMARK    2  A    between atoms: C_4  and  C_5
REMARK                            x       y       z     vdW  Elec       q    Type
REMARK                         _______ _______ _______ _____ _____    ______ ____
ROOT
ATOM      1  N   UNL     1       4.825   0.661  -1.278  0.00  0.00    -0.354 N 
ATOM      2  N   UNL     1       6.066   2.510  -0.641  0.00  0.00    -0.372 N 
ATOM      3  N   UNL     1       3.936   2.269   0.177  0.00  0.00    -0.372 N 
ATOM      4  C   UNL     1       4.932   1.802  -0.584  0.00  0.00    +0.166 C 
ATOM      5  H   UNL     1       5.605   0.377  -1.860  0.00  0.00    +0.163 HD
ATOM      6  H   UNL     1       6.176   3.373  -0.126  0.00  0.00    +0.159 HD
ATOM      7  H   UNL     1       6.861   2.201  -1.187  0.00  0.00    +0.159 HD
ATOM      8  H   UNL     1       3.052   1.784   0.258  0.00  0.00    +0.159 HD
ATOM      9  H   UNL     1       4.023   3.136   0.691  0.00  0.00    +0.159 HD
ENDROOT
BRANCH   1  10
ATOM     10  C   UNL     1       3.654  -0.212  -1.241  0.00  0.00    +0.151 C 
BRANCH  10  11
ATOM     11  C   UNL     1       2.794   0.069  -2.442  0.00  0.00    -0.028 A 
ATOM     12  C   UNL     1       1.579   0.757  -2.303  0.00  0.00    +0.005 A 
ATOM     13  C   UNL     1       3.190  -0.343  -3.724  0.00  0.00    +0.005 A 
ATOM     14  C   UNL     1       0.794   1.045  -3.422  0.00  0.00    +0.000 A 
ATOM     15  C   UNL     1       2.403  -0.054  -4.838  0.00  0.00    +0.000 A 
ATOM     16  C   UNL     1       1.207   0.642  -4.687  0.00  0.00    +0.000 A 
ENDBRANCH  10  11
ENDBRANCH   1  10
TORSDOF 2
ENDMDL
MODEL 7
REMARK VINA RESULT:    -4.104     46.050     47.117
REMARK INTER + INTRA:          -4.709
REMARK INTER:                  -4.560
REMARK INTRA:                  -0.150
REMARK UNBOUND:                -0.126
REMARK  Name = 1550473
REMARK  2 active torsions:
REMARK  status: ('A' for Active; 'I' for Inactive)
REMARK    1  A    between atoms: N_1  and  C_4
REMARK    2  A    between atoms: C_4  and  C_5
REMARK                            x       y       z     vdW  Elec       q    Type
REMARK                         _______ _______ _______ _____ _____    ______ ____
ROOT
ATOM      1  N   UNL     1      19.329 -32.216  -7.952  0.00  0.00    -0.354 N 
ATOM      2  N   UNL     1      18.338 -33.632  -9.495  0.00  0.00    -0.372 N 
ATOM      3  N   UNL     1      19.696 -34.529  -7.877  0.00  0.00    -0.372 N 
ATOM      4  C   UNL     1      19.129 -33.451  -8.430  0.00  0.00    +0.166 C 
ATOM      5  H   UNL     1      18.895 -31.437  -8.435  0.00  0.00    +0.163 HD
ATOM      6  H   UNL     1      18.166 -34.552  -9.875  0.00  0.00    +0.159 HD
ATOM      7  H   UNL     1      17.869 -32.856  -9.947  0.00  0.00    +0.159 HD
ATOM      8  H   UNL     1      20.308 -34.460  -7.075  0.00  0.00    +0.159 HD
ATOM      9  H   UNL     1      19.545 -35.458  -8.251  0.00  0.00    +0.159 HD
ENDROOT
BRANCH   1  10
ATOM     10  C   UNL     1      20.129 -31.917  -6.766  0.00  0.00    +0.151 C 
BRANCH  10  11
ATOM     11  C   UNL     1      19.246 -31.288  -5.724  0.00  0.00    -0.028 A 
ATOM     12  C   UNL     1      18.965 -29.915  -5.763  0.00  0.00    +0.005 A 
ATOM     13  C   UNL     1      18.682 -32.062  -4.697  0.00  0.00    +0.005 A 
ATOM     14  C   UNL     1      18.121 -29.335  -4.813  0.00  0.00    +0.000 A 
ATOM     15  C   UNL     1      17.840 -31.479  -3.750  0.00  0.00    +0.000 A 
ATOM     16  C   UNL     1      17.558 -30.117  -3.810  0.00  0.00    +0.000 A 
ENDBRANCH  10  11
ENDBRANCH   1  10
TORSDOF 2
ENDMDL
MODEL 8
REMARK VINA RESULT:    -4.029     27.533     28.863
REMARK INTER + INTRA:          -4.626
REMARK INTER:                  -4.456
REMARK INTRA:                  -0.170
REMARK UNBOUND:                -0.126
REMARK  Name = 1550473
REMARK  2 active torsions:
REMARK  status: ('A' for Active; 'I' for Inactive)
REMARK    1  A    between atoms: N_1  and  C_4
REMARK    2  A    between atoms: C_4  and  C_5
REMARK                            x       y       z     vdW  Elec       q    Type
REMARK                         _______ _______ _______ _____ _____    ______ ____
ROOT
ATOM      1  N   UNL     1      -1.063  -4.341   9.089  0.00  0.00    -0.354 N 
ATOM      2  N   UNL     1       1.041  -3.685   8.378  0.00  0.00    -0.372 N 
ATOM      3  N   UNL     1      -0.058  -5.331   7.218  0.00  0.00    -0.372 N 
ATOM      4  C   UNL     1      -0.041  -4.459   8.231  0.00  0.00    +0.166 C 
ATOM      5  H   UNL     1      -0.976  -3.683   9.854  0.00  0.00    +0.163 HD
ATOM      6  H   UNL     1       1.826  -3.749   7.744  0.00  0.00    +0.159 HD
ATOM      7  H   UNL     1       1.106  -2.995   9.117  0.00  0.00    +0.159 HD
ATOM      8  H   UNL     1      -0.843  -5.949   7.056  0.00  0.00    +0.159 HD
ATOM      9  H   UNL     1       0.723  -5.418   6.580  0.00  0.00    +0.159 HD
ENDROOT
BRANCH   1  10
ATOM     10  C   UNL     1      -2.309  -5.099   8.985  0.00  0.00    +0.151 C 
BRANCH  10  11
ATOM     11  C   UNL     1      -3.307  -4.298   8.196  0.00  0.00    -0.028 A 
ATOM     12  C   UNL     1      -3.960  -4.863   7.091  0.00  0.00    +0.005 A 
ATOM     13  C   UNL     1      -3.608  -2.974   8.550  0.00  0.00    +0.005 A 
ATOM     14  C   UNL     1      -4.909  -4.129   6.375  0.00  0.00    +0.000 A 
ATOM     15  C   UNL     1      -4.555  -2.244   7.833  0.00  0.00    +0.000 A 
ATOM     16  C   UNL     1      -5.208  -2.823   6.747  0.00  0.00    +0.000 A 
ENDBRANCH  10  11
ENDBRANCH   1  10
TORSDOF 2
ENDMDL
MODEL 9
REMARK VINA RESULT:    -3.902     20.380     21.331
REMARK INTER + INTRA:          -4.485
REMARK INTER:                  -4.333
REMARK INTRA:                  -0.151
REMARK UNBOUND:                -0.126
REMARK  Name = 1550473
REMARK  2 active torsions:
REMARK  status: ('A' for Active; 'I' for Inactive)
REMARK    1  A    between atoms: N_1  and  C_4
REMARK    2  A    between atoms: C_4  and  C_5
REMARK                            x       y       z     vdW  Elec       q    Type
REMARK                         _______ _______ _______ _____ _____    ______ ____
ROOT
ATOM      1  N   UNL     1      -5.356  -0.473  -1.479  0.00  0.00    -0.354 N 
ATOM      2  N   UNL     1      -5.788  -1.434   0.584  0.00  0.00    -0.372 N 
ATOM      3  N   UNL     1      -5.080   0.747   0.502  0.00  0.00    -0.372 N 
ATOM      4  C   UNL     1      -5.404  -0.378  -0.144  0.00  0.00    +0.166 C 
ATOM      5  H   UNL     1      -5.586  -1.363  -1.907  0.00  0.00    +0.163 HD
ATOM      6  H   UNL     1      -5.838  -1.390   1.593  0.00  0.00    +0.159 HD
ATOM      7  H   UNL     1      -6.061  -2.308   0.151  0.00  0.00    +0.159 HD
ATOM      8  H   UNL     1      -4.777   1.578   0.012  0.00  0.00    +0.159 HD
ATOM      9  H   UNL     1      -5.112   0.807   1.512  0.00  0.00    +0.159 HD
ENDROOT
BRANCH   1  10
ATOM     10  C   UNL     1      -5.003   0.634  -2.366  0.00  0.00    +0.151 C 
BRANCH  10  11
ATOM     11  C   UNL     1      -3.758   0.275  -3.128  0.00  0.00    -0.028 A 
ATOM     12  C   UNL     1      -2.972   1.275  -3.719  0.00  0.00    +0.005 A 
ATOM     13  C   UNL     1      -3.356  -1.063  -3.259  0.00  0.00    +0.005 A 
ATOM     14  C   UNL     1      -1.798   0.945  -4.401  0.00  0.00    +0.000 A 
ATOM     15  C   UNL     1      -2.184  -1.389  -3.942  0.00  0.00    +0.000 A 
ATOM     16  C   UNL     1      -1.405  -0.385  -4.511  0.00  0.00    +0.000 A 
ENDBRANCH  10  11
ENDBRANCH   1  10
TORSDOF 2
ENDMDL
