MODEL 1
REMARK VINA RESULT:    -4.963      0.000      0.000
REMARK INTER + INTRA:          -5.684
REMARK INTER:                  -5.544
REMARK INTRA:                  -0.140
REMARK UNBOUND:                -0.140
REMARK  Name = 1550473
REMARK  2 active torsions:
REMARK  status: ('A' for Active; 'I' for Inactive)
REMARK    1  A    between atoms: N_1  and  C_4
REMARK    2  A    between atoms: C_4  and  C_5
REMARK                            x       y       z     vdW  Elec       q    Type
REMARK                         _______ _______ _______ _____ _____    ______ ____
ROOT
ATOM      1  N   UNL     1      16.092  14.919   6.382  0.00  0.00    -0.354 N 
ATOM      2  N   UNL     1      17.166  15.436   4.396  0.00  0.00    -0.372 N 
ATOM      3  N   UNL     1      15.889  13.532   4.504  0.00  0.00    -0.372 N 
ATOM      4  C   UNL     1      16.374  14.623   5.106  0.00  0.00    +0.166 C 
ATOM      5  H   UNL     1      16.515  15.745   6.790  0.00  0.00    +0.163 HD
ATOM      6  H   UNL     1      17.394  15.241   3.431  0.00  0.00    +0.159 HD
ATOM      7  H   UNL     1      17.550  16.285   4.792  0.00  0.00    +0.159 HD
ATOM      8  H   UNL     1      15.291  12.875   4.987  0.00  0.00    +0.159 HD
ATOM      9  H   UNL     1      16.116  13.313   3.542  0.00  0.00    +0.159 HD
ENDROOT
BRANCH   1  10
ATOM     10  C   UNL     1      15.197  14.129   7.226  0.00  0.00    +0.151 C 
BRANCH  10  11
ATOM     11  C   UNL     1      15.868  13.873   8.548  0.00  0.00    -0.028 A 
ATOM     12  C   UNL     1      17.267  13.868   8.647  0.00  0.00    +0.005 A 
ATOM     13  C   UNL     1      15.110  13.641   9.706  0.00  0.00    +0.005 A 
ATOM     14  C   UNL     1      17.890  13.660   9.880  0.00  0.00    +0.000 A 
ATOM     15  C   UNL     1      15.736  13.433  10.935  0.00  0.00    +0.000 A 
ATOM     16  C   UNL     1      17.126  13.445  11.022  0.00  0.00    +0.000 A 
ENDBRANCH  10  11
ENDBRANCH   1  10
TORSDOF 2
ENDMDL
MODEL 2
REMARK VINA RESULT:    -4.803      5.998      7.631
REMARK INTER + INTRA:          -5.505
REMARK INTER:                  -5.364
REMARK INTRA:                  -0.140
REMARK UNBOUND:                -0.140
REMARK  Name = 1550473
REMARK  2 active torsions:
REMARK  status: ('A' for Active; 'I' for Inactive)
REMARK    1  A    between atoms: N_1  and  C_4
REMARK    2  A    between atoms: C_4  and  C_5
REMARK                            x       y       z     vdW  Elec       q    Type
REMARK                         _______ _______ _______ _____ _____    ______ ____
ROOT
ATOM      1  N   UNL     1      20.360  15.316  14.494  0.00  0.00    -0.354 N 
ATOM      2  N   UNL     1      22.003  16.904  14.875  0.00  0.00    -0.372 N 
ATOM      3  N   UNL     1      19.932  17.201  15.819  0.00  0.00    -0.372 N 
ATOM      4  C   UNL     1      20.752  16.464  15.061  0.00  0.00    +0.166 C 
ATOM      5  H   UNL     1      21.020  14.820  13.906  0.00  0.00    +0.163 HD
ATOM      6  H   UNL     1      22.328  17.765  15.293  0.00  0.00    +0.159 HD
ATOM      7  H   UNL     1      22.674  16.382  14.325  0.00  0.00    +0.159 HD
ATOM      8  H   UNL     1      18.975  16.927  15.993  0.00  0.00    +0.159 HD
ATOM      9  H   UNL     1      20.236  18.072  16.237  0.00  0.00    +0.159 HD
ENDROOT
BRANCH   1  10
ATOM     10  C   UNL     1      19.037  14.723  14.678  0.00  0.00    +0.151 C 
BRANCH  10  11
ATOM     11  C   UNL     1      18.472  14.355  13.334  0.00  0.00    -0.028 A 
ATOM     12  C   UNL     1      18.789  15.113  12.197  0.00  0.00    +0.005 A 
ATOM     13  C   UNL     1      17.623  13.247  13.189  0.00  0.00    +0.005 A 
ATOM     14  C   UNL     1      18.288  14.754  10.943  0.00  0.00    +0.000 A 
ATOM     15  C   UNL     1      17.124  12.893  11.936  0.00  0.00    +0.000 A 
ATOM     16  C   UNL     1      17.459  13.645  10.813  0.00  0.00    +0.000 A 
ENDBRANCH  10  11
ENDBRANCH   1  10
TORSDOF 2
ENDMDL
MODEL 3
REMARK VINA RESULT:    -4.752      8.814     10.564
REMARK INTER + INTRA:          -5.448
REMARK INTER:                  -5.326
REMARK INTRA:                  -0.122
REMARK UNBOUND:                -0.140
REMARK  Name = 1550473
REMARK  2 active torsions:
REMARK  status: ('A' for Active; 'I' for Inactive)
REMARK    1  A    between atoms: N_1  and  C_4
REMARK    2  A    between atoms: C_4  and  C_5
REMARK                            x       y       z     vdW  Elec       q    Type
REMARK                         _______ _______ _______ _____ _____    ______ ____
ROOT
ATOM      1  N   UNL     1      19.064  16.042  16.779  0.00  0.00    -0.354 N 
ATOM      2  N   UNL     1      19.807  17.870  15.566  0.00  0.00    -0.372 N 
ATOM      3  N   UNL     1      19.045  16.025  14.436  0.00  0.00    -0.372 N 
ATOM      4  C   UNL     1      19.300  16.632  15.599  0.00  0.00    +0.166 C 
ATOM      5  H   UNL     1      19.308  16.544  17.625  0.00  0.00    +0.163 HD
ATOM      6  H   UNL     1      19.992  18.342  14.691  0.00  0.00    +0.159 HD
ATOM      7  H   UNL     1      20.007  18.387  16.414  0.00  0.00    +0.159 HD
ATOM      8  H   UNL     1      18.667  15.087  14.392  0.00  0.00    +0.159 HD
ATOM      9  H   UNL     1      19.234  16.476  13.549  0.00  0.00    +0.159 HD
ENDROOT
BRANCH   1  10
ATOM     10  C   UNL     1      18.464  14.718  16.926  0.00  0.00    +0.151 C 
BRANCH  10  11
ATOM     11  C   UNL     1      18.491  14.323  18.377  0.00  0.00    -0.028 A 
ATOM     12  C   UNL     1      18.801  15.269  19.365  0.00  0.00    +0.005 A 
ATOM     13  C   UNL     1      18.203  13.008  18.770  0.00  0.00    +0.005 A 
ATOM     14  C   UNL     1      18.798  14.910  20.716  0.00  0.00    +0.000 A 
ATOM     15  C   UNL     1      18.202  12.653  20.119  0.00  0.00    +0.000 A 
ATOM     16  C   UNL     1      18.496  13.606  21.091  0.00  0.00    +0.000 A 
ENDBRANCH  10  11
ENDBRANCH   1  10
TORSDOF 2
ENDMDL
MODEL 4
REMARK VINA RESULT:    -4.690     30.037     31.343
REMARK INTER + INTRA:          -5.378
REMARK INTER:                  -5.206
REMARK INTRA:                  -0.172
REMARK UNBOUND:                -0.140
REMARK  Name = 1550473
REMARK  2 active torsions:
REMARK  status: ('A' for Active; 'I' for Inactive)
REMARK    1  A    between atoms: N_1  and  C_4
REMARK    2  A    between atoms: C_4  and  C_5
REMARK                            x       y       z     vdW  Elec       q    Type
REMARK                         _______ _______ _______ _____ _____    ______ ____
ROOT
ATOM      1  N   UNL     1     -10.952  -1.782   1.343  0.00  0.00    -0.354 N 
ATOM      2  N   UNL     1     -11.454  -3.742   2.472  0.00  0.00    -0.372 N 
ATOM      3  N   UNL     1      -9.552  -2.591   3.040  0.00  0.00    -0.372 N 
ATOM      4  C   UNL     1     -10.647  -2.692   2.279  0.00  0.00    +0.166 C 
ATOM      5  H   UNL     1     -11.781  -1.932   0.779  0.00  0.00    +0.163 HD
ATOM      6  H   UNL     1     -11.252  -4.442   3.172  0.00  0.00    +0.159 HD
ATOM      7  H   UNL     1     -12.306  -3.865   1.937  0.00  0.00    +0.159 HD
ATOM      8  H   UNL     1      -8.899  -1.825   2.940  0.00  0.00    +0.159 HD
ATOM      9  H   UNL     1      -9.326  -3.288   3.738  0.00  0.00    +0.159 HD
ENDROOT
BRANCH   1  10
ATOM     10  C   UNL     1     -10.169  -0.575   1.091  0.00  0.00    +0.151 C 
BRANCH  10  11
ATOM     11  C   UNL     1      -9.206  -0.840  -0.033  0.00  0.00    -0.028 A 
ATOM     12  C   UNL     1      -9.677  -1.094  -1.330  0.00  0.00    +0.005 A 
ATOM     13  C   UNL     1      -7.820  -0.833   0.190  0.00  0.00    +0.005 A 
ATOM     14  C   UNL     1      -8.782  -1.311  -2.380  0.00  0.00    +0.000 A 
ATOM     15  C   UNL     1      -6.930  -1.051  -0.861  0.00  0.00    +0.000 A 
ATOM     16  C   UNL     1      -7.411  -1.288  -2.146  0.00  0.00    +0.000 A 
ENDBRANCH  10  11
ENDBRANCH   1  10
TORSDOF 2
ENDMDL
MODEL 5
REMARK VINA RESULT:    -4.545     30.326     31.610
REMARK INTER + INTRA:          -5.217
REMARK INTER:                  -5.047
REMARK INTRA:                  -0.169
REMARK UNBOUND:                -0.140
REMARK  Name = 1550473
REMARK  2 active torsions:
REMARK  status: ('A' for Active; 'I' for Inactive)
REMARK    1  A    between atoms: N_1  and  C_4
REMARK    2  A    between atoms: C_4  and  C_5
REMARK                            x       y       z     vdW  Elec       q    Type
REMARK                         _______ _______ _______ _____ _____    ______ ____
ROOT
ATOM      1  N   UNL     1     -11.201  -2.161   1.226  0.00  0.00    -0.354 N 
ATOM      2  N   UNL     1     -11.700  -4.285   2.003  0.00  0.00    -0.372 N 
ATOM      3  N   UNL     1      -9.826  -3.225   2.797  0.00  0.00    -0.372 N 
ATOM      4  C   UNL     1     -10.903  -3.210   2.005  0.00  0.00    +0.166 C 
ATOM      5  H   UNL     1     -12.015  -2.224   0.626  0.00  0.00    +0.163 HD
ATOM      6  H   UNL     1     -11.502  -5.090   2.583  0.00  0.00    +0.159 HD
ATOM      7  H   UNL     1     -12.538  -4.326   1.437  0.00  0.00    +0.159 HD
ATOM      8  H   UNL     1      -9.181  -2.448   2.840  0.00  0.00    +0.159 HD
ATOM      9  H   UNL     1      -9.605  -4.026   3.376  0.00  0.00    +0.159 HD
ENDROOT
BRANCH   1  10
ATOM     10  C   UNL     1     -10.428  -0.921   1.194  0.00  0.00    +0.151 C 
BRANCH  10  11
ATOM     11  C   UNL     1      -9.424  -0.996   0.077  0.00  0.00    -0.028 A 
ATOM     12  C   UNL     1      -8.052  -0.880   0.345  0.00  0.00    +0.005 A 
ATOM     13  C   UNL     1      -9.837  -1.189  -1.250  0.00  0.00    +0.005 A 
ATOM     14  C   UNL     1      -7.117  -0.980  -0.688  0.00  0.00    +0.000 A 
ATOM     15  C   UNL     1      -8.901  -1.287  -2.278  0.00  0.00    +0.000 A 
ATOM     16  C   UNL     1      -7.540  -1.185  -1.997  0.00  0.00    +0.000 A 
ENDBRANCH  10  11
ENDBRANCH   1  10
TORSDOF 2
ENDMDL
MODEL 6
REMARK VINA RESULT:    -4.496     24.266     25.655
REMARK INTER + INTRA:          -5.161
REMARK INTER:                  -5.007
REMARK INTRA:                  -0.154
REMARK UNBOUND:                -0.140
REMARK  Name = 1550473
REMARK  2 active torsions:
REMARK  status: ('A' for Active; 'I' for Inactive)
REMARK    1  A    between atoms: N_1  and  C_4
REMARK    2  A    between atoms: C_4  and  C_5
REMARK                            x       y       z     vdW  Elec       q    Type
REMARK                         _______ _______ _______ _____ _____    ______ ____
ROOT
ATOM      1  N   UNL     1      -6.048   7.934   2.802  0.00  0.00    -0.354 N 
ATOM      2  N   UNL     1      -6.392   9.277   4.656  0.00  0.00    -0.372 N 
ATOM      3  N   UNL     1      -6.346   7.000   4.930  0.00  0.00    -0.372 N 
ATOM      4  C   UNL     1      -6.260   8.059   4.119  0.00  0.00    +0.166 C 
ATOM      5  H   UNL     1      -6.024   8.774   2.236  0.00  0.00    +0.163 HD
ATOM      6  H   UNL     1      -6.549   9.403   5.647  0.00  0.00    +0.159 HD
ATOM      7  H   UNL     1      -6.320  10.118   4.096  0.00  0.00    +0.159 HD
ATOM      8  H   UNL     1      -6.262   6.053   4.586  0.00  0.00    +0.159 HD
ATOM      9  H   UNL     1      -6.515   7.105   5.923  0.00  0.00    +0.159 HD
ENDROOT
BRANCH   1  10
ATOM     10  C   UNL     1      -5.838   6.655   2.125  0.00  0.00    +0.151 C 
BRANCH  10  11
ATOM     11  C   UNL     1      -6.887   6.484   1.061  0.00  0.00    -0.028 A 
ATOM     12  C   UNL     1      -6.521   6.380  -0.289  0.00  0.00    +0.005 A 
ATOM     13  C   UNL     1      -8.248   6.418   1.397  0.00  0.00    +0.005 A 
ATOM     14  C   UNL     1      -7.492   6.191  -1.275  0.00  0.00    +0.000 A 
ATOM     15  C   UNL     1      -9.215   6.230   0.409  0.00  0.00    +0.000 A 
ATOM     16  C   UNL     1      -8.836   6.114  -0.926  0.00  0.00    +0.000 A 
ENDBRANCH  10  11
ENDBRANCH   1  10
TORSDOF 2
ENDMDL
MODEL 7
REMARK VINA RESULT:    -4.405     50.489     52.149
REMARK INTER + INTRA:          -5.060
REMARK INTER:                  -4.895
REMARK INTRA:                  -0.164
REMARK UNBOUND:                -0.140
REMARK  Name = 1550473
REMARK  2 active torsions:
REMARK  status: ('A' for Active; 'I' for Inactive)
REMARK    1  A    between atoms: N_1  and  C_4
REMARK    2  A    between atoms: C_4  and  C_5
REMARK                            x       y       z     vdW  Elec       q    Type
REMARK                         _______ _______ _______ _____ _____    ______ ____
ROOT
ATOM      1  N   UNL     1      -3.394 -10.344 -35.516  0.00  0.00    -0.354 N 
ATOM      2  N   UNL     1      -5.140 -11.266 -36.726  0.00  0.00    -0.372 N 
ATOM      3  N   UNL     1      -3.397 -12.616 -36.092  0.00  0.00    -0.372 N 
ATOM      4  C   UNL     1      -3.964 -11.405 -36.103  0.00  0.00    +0.166 C 
ATOM      5  H   UNL     1      -3.860  -9.447 -35.586  0.00  0.00    +0.163 HD
ATOM      6  H   UNL     1      -5.596 -12.049 -37.176  0.00  0.00    +0.159 HD
ATOM      7  H   UNL     1      -5.626 -10.378 -36.755  0.00  0.00    +0.159 HD
ATOM      8  H   UNL     1      -2.506 -12.786 -35.644  0.00  0.00    +0.159 HD
ATOM      9  H   UNL     1      -3.832 -13.409 -36.546  0.00  0.00    +0.159 HD
ENDROOT
BRANCH   1  10
ATOM     10  C   UNL     1      -2.141 -10.401 -34.765  0.00  0.00    +0.151 C 
BRANCH  10  11
ATOM     11  C   UNL     1      -2.445 -10.316 -33.295  0.00  0.00    -0.028 A 
ATOM     12  C   UNL     1      -1.864 -11.222 -32.395  0.00  0.00    +0.005 A 
ATOM     13  C   UNL     1      -3.307  -9.329 -32.795  0.00  0.00    +0.005 A 
ATOM     14  C   UNL     1      -2.122 -11.125 -31.025  0.00  0.00    +0.000 A 
ATOM     15  C   UNL     1      -3.563  -9.236 -31.427  0.00  0.00    +0.000 A 
ATOM     16  C   UNL     1      -2.969 -10.133 -30.542  0.00  0.00    +0.000 A 
ENDBRANCH  10  11
ENDBRANCH   1  10
TORSDOF 2
ENDMDL
MODEL 8
REMARK VINA RESULT:    -4.365     45.579     47.323
REMARK INTER + INTRA:          -5.016
REMARK INTER:                  -4.875
REMARK INTRA:                  -0.140
REMARK UNBOUND:                -0.140
REMARK  Name = 1550473
REMARK  2 active torsions:
REMARK  status: ('A' for Active; 'I' for Inactive)
REMARK    1  A    between atoms: N_1  and  C_4
REMARK    2  A    between atoms: C_4  and  C_5
REMARK                            x       y       z     vdW  Elec       q    Type
REMARK                         _______ _______ _______ _____ _____    ______ ____
ROOT
ATOM      1  N   UNL     1       2.884  -3.305 -36.108  0.00  0.00    -0.354 N 
ATOM      2  N   UNL     1       0.673  -3.825 -36.559  0.00  0.00    -0.372 N 
ATOM      3  N   UNL     1       1.929  -5.297 -35.326  0.00  0.00    -0.372 N 
ATOM      4  C   UNL     1       1.844  -4.141 -35.994  0.00  0.00    +0.166 C 
ATOM      5  H   UNL     1       2.764  -2.459 -36.653  0.00  0.00    +0.163 HD
ATOM      6  H   UNL     1      -0.131  -4.434 -36.486  0.00  0.00    +0.159 HD
ATOM      7  H   UNL     1       0.542  -2.956 -37.064  0.00  0.00    +0.159 HD
ATOM      8  H   UNL     1       2.786  -5.597 -34.882  0.00  0.00    +0.159 HD
ATOM      9  H   UNL     1       1.138  -5.926 -35.253  0.00  0.00    +0.159 HD
ENDROOT
BRANCH   1  10
ATOM     10  C   UNL     1       4.187  -3.531 -35.485  0.00  0.00    +0.151 C 
BRANCH  10  11
ATOM     11  C   UNL     1       4.161  -2.989 -34.082  0.00  0.00    -0.028 A 
ATOM     12  C   UNL     1       4.593  -3.779 -33.006  0.00  0.00    +0.005 A 
ATOM     13  C   UNL     1       3.711  -1.686 -33.824  0.00  0.00    +0.005 A 
ATOM     14  C   UNL     1       4.597  -3.265 -31.707  0.00  0.00    +0.000 A 
ATOM     15  C   UNL     1       3.716  -1.177 -32.525  0.00  0.00    +0.000 A 
ATOM     16  C   UNL     1       4.162  -1.966 -31.467  0.00  0.00    +0.000 A 
ENDBRANCH  10  11
ENDBRANCH   1  10
TORSDOF 2
ENDMDL
MODEL 9
REMARK VINA RESULT:    -4.178     49.721     51.396
REMARK INTER + INTRA:          -4.807
REMARK INTER:                  -4.631
REMARK INTRA:                  -0.176
REMARK UNBOUND:                -0.140
REMARK  Name = 1550473
REMARK  2 active torsions:
REMARK  status: ('A' for Active; 'I' for Inactive)
REMARK    1  A    between atoms: N_1  and  C_4
REMARK    2  A    between atoms: C_4  and  C_5
REMARK                            x       y       z     vdW  Elec       q    Type
REMARK                         _______ _______ _______ _____ _____    ______ ____
ROOT
ATOM      1  N   UNL     1      -2.704 -11.739 -34.566  0.00  0.00    -0.354 N 
ATOM      2  N   UNL     1      -3.007 -10.560 -36.536  0.00  0.00    -0.372 N 
ATOM      3  N   UNL     1      -1.061 -10.267 -35.356  0.00  0.00    -0.372 N 
ATOM      4  C   UNL     1      -2.253 -10.862 -35.472  0.00  0.00    +0.166 C 
ATOM      5  H   UNL     1      -3.629 -12.133 -34.696  0.00  0.00    +0.163 HD
ATOM      6  H   UNL     1      -2.691  -9.904 -37.238  0.00  0.00    +0.159 HD
ATOM      7  H   UNL     1      -3.911 -10.990 -36.687  0.00  0.00    +0.159 HD
ATOM      8  H   UNL     1      -0.447 -10.447 -34.573  0.00  0.00    +0.159 HD
ATOM      9  H   UNL     1      -0.733  -9.599 -36.042  0.00  0.00    +0.159 HD
ENDROOT
BRANCH   1  10
ATOM     10  C   UNL     1      -1.939 -12.177 -33.400  0.00  0.00    +0.151 C 
BRANCH  10  11
ATOM     11  C   UNL     1      -2.401 -11.410 -32.192  0.00  0.00    -0.028 A 
ATOM     12  C   UNL     1      -3.753 -11.415 -31.820  0.00  0.00    +0.005 A 
ATOM     13  C   UNL     1      -1.491 -10.679 -31.413  0.00  0.00    +0.005 A 
ATOM     14  C   UNL     1      -4.178 -10.727 -30.681  0.00  0.00    +0.000 A 
ATOM     15  C   UNL     1      -1.920  -9.993 -30.277  0.00  0.00    +0.000 A 
ATOM     16  C   UNL     1      -3.263 -10.019 -29.910  0.00  0.00    +0.000 A 
ENDBRANCH  10  11
ENDBRANCH   1  10
TORSDOF 2
ENDMDL
