MODEL 1
REMARK VINA RESULT:    -4.449      0.000      0.000
REMARK INTER + INTRA:          -5.100
REMARK INTER:                  -4.969
REMARK INTRA:                  -0.132
REMARK UNBOUND:                -0.132
REMARK  Name = 1550473
REMARK  2 active torsions:
REMARK  status: ('A' for Active; 'I' for Inactive)
REMARK    1  A    between atoms: N_1  and  C_4
REMARK    2  A    between atoms: C_4  and  C_5
REMARK                            x       y       z     vdW  Elec       q    Type
REMARK                         _______ _______ _______ _____ _____    ______ ____
ROOT
ATOM      1  N   UNL     1      -7.744   3.106  -5.997  0.00  0.00    -0.354 N 
ATOM      2  N   UNL     1      -8.517   3.407  -8.159  0.00  0.00    -0.372 N 
ATOM      3  N   UNL     1      -7.157   1.615  -7.707  0.00  0.00    -0.372 N 
ATOM      4  C   UNL     1      -7.799   2.705  -7.274  0.00  0.00    +0.166 C 
ATOM      5  H   UNL     1      -8.229   3.957  -5.739  0.00  0.00    +0.163 HD
ATOM      6  H   UNL     1      -8.580   3.127  -9.129  0.00  0.00    +0.159 HD
ATOM      7  H   UNL     1      -9.038   4.232  -7.889  0.00  0.00    +0.159 HD
ATOM      8  H   UNL     1      -6.594   1.045  -7.091  0.00  0.00    +0.159 HD
ATOM      9  H   UNL     1      -7.198   1.325  -8.676  0.00  0.00    +0.159 HD
ENDROOT
BRANCH   1  10
ATOM     10  C   UNL     1      -7.035   2.382  -4.943  0.00  0.00    +0.151 C 
BRANCH  10  11
ATOM     11  C   UNL     1      -8.004   2.038  -3.846  0.00  0.00    -0.028 A 
ATOM     12  C   UNL     1      -9.379   2.255  -4.017  0.00  0.00    +0.005 A 
ATOM     13  C   UNL     1      -7.554   1.488  -2.636  0.00  0.00    +0.005 A 
ATOM     14  C   UNL     1     -10.283   1.907  -3.010  0.00  0.00    +0.000 A 
ATOM     15  C   UNL     1      -8.460   1.143  -1.633  0.00  0.00    +0.000 A 
ATOM     16  C   UNL     1      -9.824   1.350  -1.821  0.00  0.00    +0.000 A 
ENDBRANCH  10  11
ENDBRANCH   1  10
TORSDOF 2
ENDMDL
MODEL 2
REMARK VINA RESULT:    -4.311     18.843     19.963
REMARK INTER + INTRA:          -4.947
REMARK INTER:                  -4.853
REMARK INTRA:                  -0.094
REMARK UNBOUND:                -0.132
REMARK  Name = 1550473
REMARK  2 active torsions:
REMARK  status: ('A' for Active; 'I' for Inactive)
REMARK    1  A    between atoms: N_1  and  C_4
REMARK    2  A    between atoms: C_4  and  C_5
REMARK                            x       y       z     vdW  Elec       q    Type
REMARK                         _______ _______ _______ _____ _____    ______ ____
ROOT
ATOM      1  N   UNL     1       8.874  -9.474  -3.089  0.00  0.00    -0.354 N 
ATOM      2  N   UNL     1      11.183  -9.422  -2.915  0.00  0.00    -0.372 N 
ATOM      3  N   UNL     1       9.945 -10.014  -1.076  0.00  0.00    -0.372 N 
ATOM      4  C   UNL     1       9.985  -9.637  -2.358  0.00  0.00    +0.166 C 
ATOM      5  H   UNL     1       8.971  -9.157  -4.047  0.00  0.00    +0.163 HD
ATOM      6  H   UNL     1      12.039  -9.540  -2.389  0.00  0.00    +0.159 HD
ATOM      7  H   UNL     1      11.279  -9.150  -3.885  0.00  0.00    +0.159 HD
ATOM      8  H   UNL     1       9.072 -10.187  -0.596  0.00  0.00    +0.159 HD
ATOM      9  H   UNL     1      10.790 -10.127  -0.530  0.00  0.00    +0.159 HD
ENDROOT
BRANCH   1  10
ATOM     10  C   UNL     1       7.524  -9.735  -2.594  0.00  0.00    +0.151 C 
BRANCH  10  11
ATOM     11  C   UNL     1       6.537  -9.477  -3.700  0.00  0.00    -0.028 A 
ATOM     12  C   UNL     1       6.247  -8.166  -4.104  0.00  0.00    +0.005 A 
ATOM     13  C   UNL     1       5.894 -10.541  -4.351  0.00  0.00    +0.005 A 
ATOM     14  C   UNL     1       5.353  -7.927  -5.151  0.00  0.00    +0.000 A 
ATOM     15  C   UNL     1       5.001 -10.298  -5.395  0.00  0.00    +0.000 A 
ATOM     16  C   UNL     1       4.733  -8.992  -5.796  0.00  0.00    +0.000 A 
ENDBRANCH  10  11
ENDBRANCH   1  10
TORSDOF 2
ENDMDL
MODEL 3
REMARK VINA RESULT:    -4.280     21.762     23.073
REMARK INTER + INTRA:          -4.912
REMARK INTER:                  -4.783
REMARK INTRA:                  -0.130
REMARK UNBOUND:                -0.132
REMARK  Name = 1550473
REMARK  2 active torsions:
REMARK  status: ('A' for Active; 'I' for Inactive)
REMARK    1  A    between atoms: N_1  and  C_4
REMARK    2  A    between atoms: C_4  and  C_5
REMARK                            x       y       z     vdW  Elec       q    Type
REMARK                         _______ _______ _______ _____ _____    ______ ____
ROOT
ATOM      1  N   UNL     1       1.493  -1.850  16.985  0.00  0.00    -0.354 N 
ATOM      2  N   UNL     1       1.444   0.430  17.390  0.00  0.00    -0.372 N 
ATOM      3  N   UNL     1       2.477  -0.337  15.490  0.00  0.00    -0.372 N 
ATOM      4  C   UNL     1       1.807  -0.601  16.617  0.00  0.00    +0.166 C 
ATOM      5  H   UNL     1       1.010  -1.986  17.865  0.00  0.00    +0.163 HD
ATOM      6  H   UNL     1       1.663   1.384  17.137  0.00  0.00    +0.159 HD
ATOM      7  H   UNL     1       0.921   0.294  18.247  0.00  0.00    +0.159 HD
ATOM      8  H   UNL     1       2.785  -1.070  14.866  0.00  0.00    +0.159 HD
ATOM      9  H   UNL     1       2.716   0.611  15.225  0.00  0.00    +0.159 HD
ENDROOT
BRANCH   1  10
ATOM     10  C   UNL     1       1.795  -3.037  16.187  0.00  0.00    +0.151 C 
BRANCH  10  11
ATOM     11  C   UNL     1       0.506  -3.661  15.728  0.00  0.00    -0.028 A 
ATOM     12  C   UNL     1      -0.431  -2.909  15.004  0.00  0.00    +0.005 A 
ATOM     13  C   UNL     1       0.218  -5.006  16.008  0.00  0.00    +0.005 A 
ATOM     14  C   UNL     1      -1.615  -3.496  14.552  0.00  0.00    +0.000 A 
ATOM     15  C   UNL     1      -0.966  -5.588  15.555  0.00  0.00    +0.000 A 
ATOM     16  C   UNL     1      -1.881  -4.834  14.825  0.00  0.00    +0.000 A 
ENDBRANCH  10  11
ENDBRANCH   1  10
TORSDOF 2
ENDMDL
MODEL 4
REMARK VINA RESULT:    -4.163      1.290      2.243
REMARK INTER + INTRA:          -4.781
REMARK INTER:                  -4.667
REMARK INTRA:                  -0.114
REMARK UNBOUND:                -0.132
REMARK  Name = 1550473
REMARK  2 active torsions:
REMARK  status: ('A' for Active; 'I' for Inactive)
REMARK    1  A    between atoms: N_1  and  C_4
REMARK    2  A    between atoms: C_4  and  C_5
REMARK                            x       y       z     vdW  Elec       q    Type
REMARK                         _______ _______ _______ _____ _____    ______ ____
ROOT
ATOM      1  N   UNL     1      -8.378   2.243  -4.590  0.00  0.00    -0.354 N 
ATOM      2  N   UNL     1      -8.605   3.335  -6.620  0.00  0.00    -0.372 N 
ATOM      3  N   UNL     1      -6.578   2.405  -6.082  0.00  0.00    -0.372 N 
ATOM      4  C   UNL     1      -7.849   2.653  -5.751  0.00  0.00    +0.166 C 
ATOM      5  H   UNL     1      -9.340   2.489  -4.386  0.00  0.00    +0.163 HD
ATOM      6  H   UNL     1      -8.235   3.654  -7.505  0.00  0.00    +0.159 HD
ATOM      7  H   UNL     1      -9.579   3.539  -6.433  0.00  0.00    +0.159 HD
ATOM      8  H   UNL     1      -5.953   1.900  -5.467  0.00  0.00    +0.159 HD
ATOM      9  H   UNL     1      -6.185   2.726  -6.958  0.00  0.00    +0.159 HD
ENDROOT
BRANCH   1  10
ATOM     10  C   UNL     1      -7.656   1.448  -3.598  0.00  0.00    +0.151 C 
BRANCH  10  11
ATOM     11  C   UNL     1      -8.552   1.208  -2.415  0.00  0.00    -0.028 A 
ATOM     12  C   UNL     1      -8.017   1.135  -1.120  0.00  0.00    +0.005 A 
ATOM     13  C   UNL     1      -9.937   1.057  -2.581  0.00  0.00    +0.005 A 
ATOM     14  C   UNL     1      -8.853   0.942  -0.017  0.00  0.00    +0.000 A 
ATOM     15  C   UNL     1     -10.768   0.863  -1.477  0.00  0.00    +0.000 A 
ATOM     16  C   UNL     1     -10.226   0.808  -0.195  0.00  0.00    +0.000 A 
ENDBRANCH  10  11
ENDBRANCH   1  10
TORSDOF 2
ENDMDL
MODEL 5
REMARK VINA RESULT:    -4.139      2.649      4.444
REMARK INTER + INTRA:          -4.754
REMARK INTER:                  -4.619
REMARK INTRA:                  -0.135
REMARK UNBOUND:                -0.132
REMARK  Name = 1550473
REMARK  2 active torsions:
REMARK  status: ('A' for Active; 'I' for Inactive)
REMARK    1  A    between atoms: N_1  and  C_4
REMARK    2  A    between atoms: C_4  and  C_5
REMARK                            x       y       z     vdW  Elec       q    Type
REMARK                         _______ _______ _______ _____ _____    ______ ____
ROOT
ATOM      1  N   UNL     1      -8.817   2.065  -4.533  0.00  0.00    -0.354 N 
ATOM      2  N   UNL     1     -11.092   2.330  -4.189  0.00  0.00    -0.372 N 
ATOM      3  N   UNL     1      -9.925   4.010  -5.227  0.00  0.00    -0.372 N 
ATOM      4  C   UNL     1      -9.929   2.803  -4.653  0.00  0.00    +0.166 C 
ATOM      5  H   UNL     1      -8.881   1.171  -4.061  0.00  0.00    +0.163 HD
ATOM      6  H   UNL     1     -11.949   2.862  -4.268  0.00  0.00    +0.159 HD
ATOM      7  H   UNL     1     -11.162   1.416  -3.758  0.00  0.00    +0.159 HD
ATOM      8  H   UNL     1      -9.079   4.427  -5.592  0.00  0.00    +0.159 HD
ATOM      9  H   UNL     1     -10.770   4.563  -5.305  0.00  0.00    +0.159 HD
ENDROOT
BRANCH   1  10
ATOM     10  C   UNL     1      -7.511   2.465  -5.054  0.00  0.00    +0.151 C 
BRANCH  10  11
ATOM     11  C   UNL     1      -6.951   1.346  -5.888  0.00  0.00    -0.028 A 
ATOM     12  C   UNL     1      -7.804   0.510  -6.622  0.00  0.00    +0.005 A 
ATOM     13  C   UNL     1      -5.567   1.121  -5.953  0.00  0.00    +0.005 A 
ATOM     14  C   UNL     1      -7.283  -0.511  -7.420  0.00  0.00    +0.000 A 
ATOM     15  C   UNL     1      -5.051   0.101  -6.750  0.00  0.00    +0.000 A 
ATOM     16  C   UNL     1      -5.908  -0.714  -7.486  0.00  0.00    +0.000 A 
ENDBRANCH  10  11
ENDBRANCH   1  10
TORSDOF 2
ENDMDL
MODEL 6
REMARK VINA RESULT:    -4.097     24.998     26.313
REMARK INTER + INTRA:          -4.708
REMARK INTER:                  -4.526
REMARK INTRA:                  -0.181
REMARK UNBOUND:                -0.132
REMARK  Name = 1550473
REMARK  2 active torsions:
REMARK  status: ('A' for Active; 'I' for Inactive)
REMARK    1  A    between atoms: N_1  and  C_4
REMARK    2  A    between atoms: C_4  and  C_5
REMARK                            x       y       z     vdW  Elec       q    Type
REMARK                         _______ _______ _______ _____ _____    ______ ____
ROOT
ATOM      1  N   UNL     1       3.443 -16.381   7.573  0.00  0.00    -0.354 N 
ATOM      2  N   UNL     1       2.743 -17.336   9.564  0.00  0.00    -0.372 N 
ATOM      3  N   UNL     1       3.040 -18.684   7.731  0.00  0.00    -0.372 N 
ATOM      4  C   UNL     1       3.080 -17.463   8.275  0.00  0.00    +0.166 C 
ATOM      5  H   UNL     1       3.424 -15.479   8.035  0.00  0.00    +0.163 HD
ATOM      6  H   UNL     1       2.468 -18.135  10.119  0.00  0.00    +0.159 HD
ATOM      7  H   UNL     1       2.769 -16.440  10.035  0.00  0.00    +0.159 HD
ATOM      8  H   UNL     1       3.277 -18.847   6.761  0.00  0.00    +0.159 HD
ATOM      9  H   UNL     1       2.756 -19.494   8.268  0.00  0.00    +0.159 HD
ENDROOT
BRANCH   1  10
ATOM     10  C   UNL     1       3.880 -16.419   6.179  0.00  0.00    +0.151 C 
BRANCH  10  11
ATOM     11  C   UNL     1       5.382 -16.380   6.133  0.00  0.00    -0.028 A 
ATOM     12  C   UNL     1       6.105 -17.426   5.541  0.00  0.00    +0.005 A 
ATOM     13  C   UNL     1       6.090 -15.296   6.675  0.00  0.00    +0.005 A 
ATOM     14  C   UNL     1       7.499 -17.376   5.472  0.00  0.00    +0.000 A 
ATOM     15  C   UNL     1       7.482 -15.250   6.605  0.00  0.00    +0.000 A 
ATOM     16  C   UNL     1       8.186 -16.289   6.001  0.00  0.00    +0.000 A 
ENDBRANCH  10  11
ENDBRANCH   1  10
TORSDOF 2
ENDMDL
MODEL 7
REMARK VINA RESULT:    -4.094     27.358     28.687
REMARK INTER + INTRA:          -4.705
REMARK INTER:                  -4.551
REMARK INTRA:                  -0.153
REMARK UNBOUND:                -0.132
REMARK  Name = 1550473
REMARK  2 active torsions:
REMARK  status: ('A' for Active; 'I' for Inactive)
REMARK    1  A    between atoms: N_1  and  C_4
REMARK    2  A    between atoms: C_4  and  C_5
REMARK                            x       y       z     vdW  Elec       q    Type
REMARK                         _______ _______ _______ _____ _____    ______ ____
ROOT
ATOM      1  N   UNL     1      11.277 -10.780  13.268  0.00  0.00    -0.354 N 
ATOM      2  N   UNL     1      10.221 -12.782  13.763  0.00  0.00    -0.372 N 
ATOM      3  N   UNL     1      12.206 -12.829  12.613  0.00  0.00    -0.372 N 
ATOM      4  C   UNL     1      11.244 -12.118  13.210  0.00  0.00    +0.166 C 
ATOM      5  H   UNL     1      10.501 -10.299  13.708  0.00  0.00    +0.163 HD
ATOM      6  H   UNL     1      10.171 -13.791  13.737  0.00  0.00    +0.159 HD
ATOM      7  H   UNL     1       9.470 -12.300  14.242  0.00  0.00    +0.159 HD
ATOM      8  H   UNL     1      13.002 -12.388  12.172  0.00  0.00    +0.159 HD
ATOM      9  H   UNL     1      12.168 -13.840  12.567  0.00  0.00    +0.159 HD
ENDROOT
BRANCH   1  10
ATOM     10  C   UNL     1      12.372  -9.966  12.745  0.00  0.00    +0.151 C 
BRANCH  10  11
ATOM     11  C   UNL     1      11.886  -9.204  11.543  0.00  0.00    -0.028 A 
ATOM     12  C   UNL     1      11.741  -7.809  11.595  0.00  0.00    +0.005 A 
ATOM     13  C   UNL     1      11.575  -9.869  10.347  0.00  0.00    +0.005 A 
ATOM     14  C   UNL     1      11.319  -7.098  10.469  0.00  0.00    +0.000 A 
ATOM     15  C   UNL     1      11.153  -9.155   9.226  0.00  0.00    +0.000 A 
ATOM     16  C   UNL     1      11.027  -7.769   9.287  0.00  0.00    +0.000 A 
ENDBRANCH  10  11
ENDBRANCH   1  10
TORSDOF 2
ENDMDL
MODEL 8
REMARK VINA RESULT:    -4.086     23.014     23.964
REMARK INTER + INTRA:          -4.695
REMARK INTER:                  -4.603
REMARK INTRA:                  -0.091
REMARK UNBOUND:                -0.132
REMARK  Name = 1550473
REMARK  2 active torsions:
REMARK  status: ('A' for Active; 'I' for Inactive)
REMARK    1  A    between atoms: N_1  and  C_4
REMARK    2  A    between atoms: C_4  and  C_5
REMARK                            x       y       z     vdW  Elec       q    Type
REMARK                         _______ _______ _______ _____ _____    ______ ____
ROOT
ATOM      1  N   UNL     1       1.664  -1.227  16.792  0.00  0.00    -0.354 N 
ATOM      2  N   UNL     1       1.843   0.751  17.982  0.00  0.00    -0.372 N 
ATOM      3  N   UNL     1       2.928   0.566  15.968  0.00  0.00    -0.372 N 
ATOM      4  C   UNL     1       2.146   0.018  16.904  0.00  0.00    +0.166 C 
ATOM      5  H   UNL     1       1.101  -1.596  17.550  0.00  0.00    +0.163 HD
ATOM      6  H   UNL     1       2.189   1.695  18.093  0.00  0.00    +0.159 HD
ATOM      7  H   UNL     1       1.243   0.397  18.716  0.00  0.00    +0.159 HD
ATOM      8  H   UNL     1       3.198   0.063  15.134  0.00  0.00    +0.159 HD
ATOM      9  H   UNL     1       3.294   1.505  16.067  0.00  0.00    +0.159 HD
ENDROOT
BRANCH   1  10
ATOM     10  C   UNL     1       1.889  -2.090  15.633  0.00  0.00    +0.151 C 
BRANCH  10  11
ATOM     11  C   UNL     1       1.328  -3.455  15.920  0.00  0.00    -0.028 A 
ATOM     12  C   UNL     1       2.122  -4.438  16.527  0.00  0.00    +0.005 A 
ATOM     13  C   UNL     1      -0.000  -3.769  15.593  0.00  0.00    +0.005 A 
ATOM     14  C   UNL     1       1.592  -5.697  16.822  0.00  0.00    +0.000 A 
ATOM     15  C   UNL     1      -0.526  -5.027  15.888  0.00  0.00    +0.000 A 
ATOM     16  C   UNL     1       0.270  -5.990  16.504  0.00  0.00    +0.000 A 
ENDBRANCH  10  11
ENDBRANCH   1  10
TORSDOF 2
ENDMDL
MODEL 9
REMARK VINA RESULT:    -3.929      2.717      4.009
REMARK INTER + INTRA:          -4.520
REMARK INTER:                  -4.379
REMARK INTRA:                  -0.141
REMARK UNBOUND:                -0.132
REMARK  Name = 1550473
REMARK  2 active torsions:
REMARK  status: ('A' for Active; 'I' for Inactive)
REMARK    1  A    between atoms: N_1  and  C_4
REMARK    2  A    between atoms: C_4  and  C_5
REMARK                            x       y       z     vdW  Elec       q    Type
REMARK                         _______ _______ _______ _____ _____    ______ ____
ROOT
ATOM      1  N   UNL     1      -7.073  -0.330  -8.412  0.00  0.00    -0.354 N 
ATOM      2  N   UNL     1      -5.613  -0.579 -10.193  0.00  0.00    -0.372 N 
ATOM      3  N   UNL     1      -5.451  -2.022  -8.416  0.00  0.00    -0.372 N 
ATOM      4  C   UNL     1      -6.054  -0.978  -8.993  0.00  0.00    +0.166 C 
ATOM      5  H   UNL     1      -7.467   0.473  -8.887  0.00  0.00    +0.163 HD
ATOM      6  H   UNL     1      -4.849  -1.050 -10.658  0.00  0.00    +0.159 HD
ATOM      7  H   UNL     1      -6.039   0.195 -10.687  0.00  0.00    +0.159 HD
ATOM      8  H   UNL     1      -5.733  -2.369  -7.509  0.00  0.00    +0.159 HD
ATOM      9  H   UNL     1      -4.677  -2.500  -8.861  0.00  0.00    +0.159 HD
ENDROOT
BRANCH   1  10
ATOM     10  C   UNL     1      -7.663  -0.718  -7.132  0.00  0.00    +0.151 C 
BRANCH  10  11
ATOM     11  C   UNL     1      -7.477   0.403  -6.146  0.00  0.00    -0.028 A 
ATOM     12  C   UNL     1      -6.204   0.942  -5.913  0.00  0.00    +0.005 A 
ATOM     13  C   UNL     1      -8.572   0.933  -5.446  0.00  0.00    +0.005 A 
ATOM     14  C   UNL     1      -6.035   2.003  -5.020  0.00  0.00    +0.000 A 
ATOM     15  C   UNL     1      -8.399   1.992  -4.554  0.00  0.00    +0.000 A 
ATOM     16  C   UNL     1      -7.131   2.528  -4.343  0.00  0.00    +0.000 A 
ENDBRANCH  10  11
ENDBRANCH   1  10
TORSDOF 2
ENDMDL
