MODEL 1
REMARK VINA RESULT:    -5.071      0.000      0.000
REMARK INTER + INTRA:          -5.787
REMARK INTER:                  -5.664
REMARK INTRA:                  -0.123
REMARK UNBOUND:                -0.123
REMARK  Name = 1550473
REMARK  2 active torsions:
REMARK  status: ('A' for Active; 'I' for Inactive)
REMARK    1  A    between atoms: N_1  and  C_4
REMARK    2  A    between atoms: C_4  and  C_5
REMARK                            x       y       z     vdW  Elec       q    Type
REMARK                         _______ _______ _______ _____ _____    ______ ____
ROOT
ATOM      1  N   UNL     1      -8.629   2.534 -12.997  0.00  0.00    -0.354 N 
ATOM      2  N   UNL     1      -7.597   0.461 -12.988  0.00  0.00    -0.372 N 
ATOM      3  N   UNL     1      -6.711   2.136 -14.283  0.00  0.00    -0.372 N 
ATOM      4  C   UNL     1      -7.651   1.725 -13.425  0.00  0.00    +0.166 C 
ATOM      5  H   UNL     1      -9.329   2.154 -12.370  0.00  0.00    +0.163 HD
ATOM      6  H   UNL     1      -6.869  -0.172 -13.291  0.00  0.00    +0.159 HD
ATOM      7  H   UNL     1      -8.271   0.097 -12.326  0.00  0.00    +0.159 HD
ATOM      8  H   UNL     1      -6.699   3.076 -14.655  0.00  0.00    +0.159 HD
ATOM      9  H   UNL     1      -5.981   1.514 -14.607  0.00  0.00    +0.159 HD
ENDROOT
BRANCH   1  10
ATOM     10  C   UNL     1      -8.747   3.943 -13.369  0.00  0.00    +0.151 C 
BRANCH  10  11
ATOM     11  C   UNL     1     -10.052   4.154 -14.085  0.00  0.00    -0.028 A 
ATOM     12  C   UNL     1     -10.751   5.363 -13.950  0.00  0.00    +0.005 A 
ATOM     13  C   UNL     1     -10.593   3.152 -14.905  0.00  0.00    +0.005 A 
ATOM     14  C   UNL     1     -11.948   5.571 -14.638  0.00  0.00    +0.000 A 
ATOM     15  C   UNL     1     -11.790   3.363 -15.589  0.00  0.00    +0.000 A 
ATOM     16  C   UNL     1     -12.466   4.574 -15.458  0.00  0.00    +0.000 A 
ENDBRANCH  10  11
ENDBRANCH   1  10
TORSDOF 2
ENDMDL
MODEL 2
REMARK VINA RESULT:    -4.921     10.393     11.341
REMARK INTER + INTRA:          -5.620
REMARK INTER:                  -5.487
REMARK INTRA:                  -0.133
REMARK UNBOUND:                -0.123
REMARK  Name = 1550473
REMARK  2 active torsions:
REMARK  status: ('A' for Active; 'I' for Inactive)
REMARK    1  A    between atoms: N_1  and  C_4
REMARK    2  A    between atoms: C_4  and  C_5
REMARK                            x       y       z     vdW  Elec       q    Type
REMARK                         _______ _______ _______ _____ _____    ______ ____
ROOT
ATOM      1  N   UNL     1     -11.323  -6.660 -21.343  0.00  0.00    -0.354 N 
ATOM      2  N   UNL     1     -12.369  -7.982 -22.931  0.00  0.00    -0.372 N 
ATOM      3  N   UNL     1     -10.077  -7.869 -22.917  0.00  0.00    -0.372 N 
ATOM      4  C   UNL     1     -11.247  -7.495 -22.388  0.00  0.00    +0.166 C 
ATOM      5  H   UNL     1     -12.241  -6.391 -21.008  0.00  0.00    +0.163 HD
ATOM      6  H   UNL     1     -12.343  -8.618 -23.717  0.00  0.00    +0.159 HD
ATOM      7  H   UNL     1     -13.284  -7.749 -22.564  0.00  0.00    +0.159 HD
ATOM      8  H   UNL     1      -9.194  -7.532 -22.558  0.00  0.00    +0.159 HD
ATOM      9  H   UNL     1     -10.031  -8.495 -23.712  0.00  0.00    +0.159 HD
ENDROOT
BRANCH   1  10
ATOM     10  C   UNL     1     -10.159  -6.115 -20.645  0.00  0.00    +0.151 C 
BRANCH  10  11
ATOM     11  C   UNL     1     -10.412  -4.668 -20.324  0.00  0.00    -0.028 A 
ATOM     12  C   UNL     1     -10.089  -4.153 -19.060  0.00  0.00    +0.005 A 
ATOM     13  C   UNL     1     -10.969  -3.806 -21.280  0.00  0.00    +0.005 A 
ATOM     14  C   UNL     1     -10.296  -2.802 -18.770  0.00  0.00    +0.000 A 
ATOM     15  C   UNL     1     -11.175  -2.458 -20.987  0.00  0.00    +0.000 A 
ATOM     16  C   UNL     1     -10.836  -1.956 -19.733  0.00  0.00    +0.000 A 
ENDBRANCH  10  11
ENDBRANCH   1  10
TORSDOF 2
ENDMDL
MODEL 3
REMARK VINA RESULT:    -4.897     11.284     12.665
REMARK INTER + INTRA:          -5.593
REMARK INTER:                  -5.412
REMARK INTRA:                  -0.181
REMARK UNBOUND:                -0.123
REMARK  Name = 1550473
REMARK  2 active torsions:
REMARK  status: ('A' for Active; 'I' for Inactive)
REMARK    1  A    between atoms: N_1  and  C_4
REMARK    2  A    between atoms: C_4  and  C_5
REMARK                            x       y       z     vdW  Elec       q    Type
REMARK                         _______ _______ _______ _____ _____    ______ ____
ROOT
ATOM      1  N   UNL     1      -8.045   3.365  -0.680  0.00  0.00    -0.354 N 
ATOM      2  N   UNL     1      -9.904   2.002  -0.458  0.00  0.00    -0.372 N 
ATOM      3  N   UNL     1     -10.092   3.947  -1.660  0.00  0.00    -0.372 N 
ATOM      4  C   UNL     1      -9.336   3.116  -0.936  0.00  0.00    +0.166 C 
ATOM      5  H   UNL     1      -7.534   2.710  -0.099  0.00  0.00    +0.163 HD
ATOM      6  H   UNL     1     -10.875   1.785  -0.638  0.00  0.00    +0.159 HD
ATOM      7  H   UNL     1      -9.378   1.326   0.083  0.00  0.00    +0.159 HD
ATOM      8  H   UNL     1      -9.725   4.808  -2.044  0.00  0.00    +0.159 HD
ATOM      9  H   UNL     1     -11.069   3.753  -1.840  0.00  0.00    +0.159 HD
ENDROOT
BRANCH   1  10
ATOM     10  C   UNL     1      -7.317   4.523  -1.198  0.00  0.00    +0.151 C 
BRANCH  10  11
ATOM     11  C   UNL     1      -6.523   4.104  -2.404  0.00  0.00    -0.028 A 
ATOM     12  C   UNL     1      -6.739   4.717  -3.647  0.00  0.00    +0.005 A 
ATOM     13  C   UNL     1      -5.548   3.099  -2.310  0.00  0.00    +0.005 A 
ATOM     14  C   UNL     1      -5.981   4.349  -4.761  0.00  0.00    +0.000 A 
ATOM     15  C   UNL     1      -4.793   2.734  -3.425  0.00  0.00    +0.000 A 
ATOM     16  C   UNL     1      -5.008   3.361  -4.649  0.00  0.00    +0.000 A 
ENDBRANCH  10  11
ENDBRANCH   1  10
TORSDOF 2
ENDMDL
MODEL 4
REMARK VINA RESULT:    -4.678      8.321      9.318
REMARK INTER + INTRA:          -5.349
REMARK INTER:                  -5.176
REMARK INTRA:                  -0.173
REMARK UNBOUND:                -0.123
REMARK  Name = 1550473
REMARK  2 active torsions:
REMARK  status: ('A' for Active; 'I' for Inactive)
REMARK    1  A    between atoms: N_1  and  C_4
REMARK    2  A    between atoms: C_4  and  C_5
REMARK                            x       y       z     vdW  Elec       q    Type
REMARK                         _______ _______ _______ _____ _____    ______ ____
ROOT
ATOM      1  N   UNL     1     -11.945  -4.043 -18.459  0.00  0.00    -0.354 N 
ATOM      2  N   UNL     1     -13.469  -5.753 -18.118  0.00  0.00    -0.372 N 
ATOM      3  N   UNL     1     -11.588  -6.175 -19.363  0.00  0.00    -0.372 N 
ATOM      4  C   UNL     1     -12.322  -5.314 -18.651  0.00  0.00    +0.166 C 
ATOM      5  H   UNL     1     -12.560  -3.432 -17.934  0.00  0.00    +0.163 HD
ATOM      6  H   UNL     1     -13.778  -6.708 -18.243  0.00  0.00    +0.159 HD
ATOM      7  H   UNL     1     -14.060  -5.153 -17.556  0.00  0.00    +0.159 HD
ATOM      8  H   UNL     1     -10.716  -5.905 -19.796  0.00  0.00    +0.159 HD
ATOM      9  H   UNL     1     -11.887  -7.132 -19.509  0.00  0.00    +0.159 HD
ENDROOT
BRANCH   1  10
ATOM     10  C   UNL     1     -10.688  -3.480 -18.950  0.00  0.00    +0.151 C 
BRANCH  10  11
ATOM     11  C   UNL     1     -10.984  -2.530 -20.078  0.00  0.00    -0.028 A 
ATOM     12  C   UNL     1     -11.078  -1.151 -19.841  0.00  0.00    +0.005 A 
ATOM     13  C   UNL     1     -11.164  -3.003 -21.387  0.00  0.00    +0.005 A 
ATOM     14  C   UNL     1     -11.323  -0.266 -20.894  0.00  0.00    +0.000 A 
ATOM     15  C   UNL     1     -11.409  -2.116 -22.435  0.00  0.00    +0.000 A 
ATOM     16  C   UNL     1     -11.486  -0.747 -22.189  0.00  0.00    +0.000 A 
ENDBRANCH  10  11
ENDBRANCH   1  10
TORSDOF 2
ENDMDL
MODEL 5
REMARK VINA RESULT:    -4.607     15.387     16.812
REMARK INTER + INTRA:          -5.269
REMARK INTER:                  -5.127
REMARK INTRA:                  -0.143
REMARK UNBOUND:                -0.123
REMARK  Name = 1550473
REMARK  2 active torsions:
REMARK  status: ('A' for Active; 'I' for Inactive)
REMARK    1  A    between atoms: N_1  and  C_4
REMARK    2  A    between atoms: C_4  and  C_5
REMARK                            x       y       z     vdW  Elec       q    Type
REMARK                         _______ _______ _______ _____ _____    ______ ____
ROOT
ATOM      1  N   UNL     1       4.783  -1.136  -9.495  0.00  0.00    -0.354 N 
ATOM      2  N   UNL     1       4.967  -0.588  -7.252  0.00  0.00    -0.372 N 
ATOM      3  N   UNL     1       3.099  -1.711  -7.970  0.00  0.00    -0.372 N 
ATOM      4  C   UNL     1       4.279  -1.150  -8.253  0.00  0.00    +0.166 C 
ATOM      5  H   UNL     1       5.669  -0.667  -9.650  0.00  0.00    +0.163 HD
ATOM      6  H   UNL     1       4.614  -0.586  -6.304  0.00  0.00    +0.159 HD
ATOM      7  H   UNL     1       5.873  -0.161  -7.401  0.00  0.00    +0.159 HD
ATOM      8  H   UNL     1       2.528  -2.146  -8.682  0.00  0.00    +0.159 HD
ATOM      9  H   UNL     1       2.724  -1.709  -7.030  0.00  0.00    +0.159 HD
ENDROOT
BRANCH   1  10
ATOM     10  C   UNL     1       4.139  -1.766 -10.646  0.00  0.00    +0.151 C 
BRANCH  10  11
ATOM     11  C   UNL     1       4.552  -3.211 -10.709  0.00  0.00    -0.028 A 
ATOM     12  C   UNL     1       5.909  -3.564 -10.724  0.00  0.00    +0.005 A 
ATOM     13  C   UNL     1       3.590  -4.232 -10.749  0.00  0.00    +0.005 A 
ATOM     14  C   UNL     1       6.293  -4.906 -10.752  0.00  0.00    +0.000 A 
ATOM     15  C   UNL     1       3.978  -5.572 -10.778  0.00  0.00    +0.000 A 
ATOM     16  C   UNL     1       5.329  -5.908 -10.777  0.00  0.00    +0.000 A 
ENDBRANCH  10  11
ENDBRANCH   1  10
TORSDOF 2
ENDMDL
MODEL 6
REMARK VINA RESULT:    -4.519      9.265     10.622
REMARK INTER + INTRA:          -5.171
REMARK INTER:                  -5.037
REMARK INTRA:                  -0.133
REMARK UNBOUND:                -0.123
REMARK  Name = 1550473
REMARK  2 active torsions:
REMARK  status: ('A' for Active; 'I' for Inactive)
REMARK    1  A    between atoms: N_1  and  C_4
REMARK    2  A    between atoms: C_4  and  C_5
REMARK                            x       y       z     vdW  Elec       q    Type
REMARK                         _______ _______ _______ _____ _____    ______ ____
ROOT
ATOM      1  N   UNL     1      -3.824   3.858  -7.026  0.00  0.00    -0.354 N 
ATOM      2  N   UNL     1      -1.791   3.794  -8.133  0.00  0.00    -0.372 N 
ATOM      3  N   UNL     1      -3.136   5.636  -8.389  0.00  0.00    -0.372 N 
ATOM      4  C   UNL     1      -2.931   4.432  -7.843  0.00  0.00    +0.166 C 
ATOM      5  H   UNL     1      -3.623   2.931  -6.668  0.00  0.00    +0.163 HD
ATOM      6  H   UNL     1      -1.097   4.204  -8.744  0.00  0.00    +0.159 HD
ATOM      7  H   UNL     1      -1.572   2.888  -7.738  0.00  0.00    +0.159 HD
ATOM      8  H   UNL     1      -3.979   6.166  -8.215  0.00  0.00    +0.159 HD
ATOM      9  H   UNL     1      -2.459   6.057  -9.012  0.00  0.00    +0.159 HD
ENDROOT
BRANCH   1  10
ATOM     10  C   UNL     1      -5.072   4.492  -6.604  0.00  0.00    +0.151 C 
BRANCH  10  11
ATOM     11  C   UNL     1      -5.344   4.134  -5.169  0.00  0.00    -0.028 A 
ATOM     12  C   UNL     1      -6.409   4.728  -4.476  0.00  0.00    +0.005 A 
ATOM     13  C   UNL     1      -4.543   3.197  -4.497  0.00  0.00    +0.005 A 
ATOM     14  C   UNL     1      -6.681   4.373  -3.152  0.00  0.00    +0.000 A 
ATOM     15  C   UNL     1      -4.817   2.846  -3.175  0.00  0.00    +0.000 A 
ATOM     16  C   UNL     1      -5.887   3.433  -2.504  0.00  0.00    +0.000 A 
ENDBRANCH  10  11
ENDBRANCH   1  10
TORSDOF 2
ENDMDL
MODEL 7
REMARK VINA RESULT:    -4.433     15.729     16.273
REMARK INTER + INTRA:          -5.074
REMARK INTER:                  -4.925
REMARK INTRA:                  -0.149
REMARK UNBOUND:                -0.123
REMARK  Name = 1550473
REMARK  2 active torsions:
REMARK  status: ('A' for Active; 'I' for Inactive)
REMARK    1  A    between atoms: N_1  and  C_4
REMARK    2  A    between atoms: C_4  and  C_5
REMARK                            x       y       z     vdW  Elec       q    Type
REMARK                         _______ _______ _______ _____ _____    ______ ____
ROOT
ATOM      1  N   UNL     1       5.325  -1.745  -9.121  0.00  0.00    -0.354 N 
ATOM      2  N   UNL     1       4.645  -0.406  -7.359  0.00  0.00    -0.372 N 
ATOM      3  N   UNL     1       3.136  -1.860  -8.293  0.00  0.00    -0.372 N 
ATOM      4  C   UNL     1       4.370  -1.347  -8.270  0.00  0.00    +0.166 C 
ATOM      5  H   UNL     1       6.232  -1.296  -9.072  0.00  0.00    +0.163 HD
ATOM      6  H   UNL     1       3.946  -0.088  -6.701  0.00  0.00    +0.159 HD
ATOM      7  H   UNL     1       5.565   0.009  -7.281  0.00  0.00    +0.159 HD
ATOM      8  H   UNL     1       2.863  -2.569  -8.961  0.00  0.00    +0.159 HD
ATOM      9  H   UNL     1       2.419  -1.546  -7.651  0.00  0.00    +0.159 HD
ENDROOT
BRANCH   1  10
ATOM     10  C   UNL     1       5.145  -2.802 -10.116  0.00  0.00    +0.151 C 
BRANCH  10  11
ATOM     11  C   UNL     1       5.258  -2.205 -11.492  0.00  0.00    -0.028 A 
ATOM     12  C   UNL     1       4.807  -2.915 -12.614  0.00  0.00    +0.005 A 
ATOM     13  C   UNL     1       5.811  -0.929 -11.679  0.00  0.00    +0.005 A 
ATOM     14  C   UNL     1       4.885  -2.349 -13.889  0.00  0.00    +0.000 A 
ATOM     15  C   UNL     1       5.888  -0.368 -12.953  0.00  0.00    +0.000 A 
ATOM     16  C   UNL     1       5.423  -1.077 -14.058  0.00  0.00    +0.000 A 
ENDBRANCH  10  11
ENDBRANCH   1  10
TORSDOF 2
ENDMDL
MODEL 8
REMARK VINA RESULT:    -4.205     18.597     19.665
REMARK INTER + INTRA:          -4.820
REMARK INTER:                  -4.652
REMARK INTRA:                  -0.168
REMARK UNBOUND:                -0.123
REMARK  Name = 1550473
REMARK  2 active torsions:
REMARK  status: ('A' for Active; 'I' for Inactive)
REMARK    1  A    between atoms: N_1  and  C_4
REMARK    2  A    between atoms: C_4  and  C_5
REMARK                            x       y       z     vdW  Elec       q    Type
REMARK                         _______ _______ _______ _____ _____    ______ ____
ROOT
ATOM      1  N   UNL     1      -6.543 -15.425 -18.490  0.00  0.00    -0.354 N 
ATOM      2  N   UNL     1      -5.318 -16.488 -16.836  0.00  0.00    -0.372 N 
ATOM      3  N   UNL     1      -6.770 -14.814 -16.239  0.00  0.00    -0.372 N 
ATOM      4  C   UNL     1      -6.220 -15.567 -17.198  0.00  0.00    +0.166 C 
ATOM      5  H   UNL     1      -6.067 -16.006 -19.172  0.00  0.00    +0.163 HD
ATOM      6  H   UNL     1      -5.057 -16.620 -15.868  0.00  0.00    +0.159 HD
ATOM      7  H   UNL     1      -4.878 -17.098 -17.514  0.00  0.00    +0.159 HD
ATOM      8  H   UNL     1      -7.453 -14.098 -16.447  0.00  0.00    +0.159 HD
ATOM      9  H   UNL     1      -6.513 -14.924 -15.266  0.00  0.00    +0.159 HD
ENDROOT
BRANCH   1  10
ATOM     10  C   UNL     1      -7.551 -14.489 -18.983  0.00  0.00    +0.151 C 
BRANCH  10  11
ATOM     11  C   UNL     1      -8.841 -15.230 -19.206  0.00  0.00    -0.028 A 
ATOM     12  C   UNL     1     -10.069 -14.634 -18.883  0.00  0.00    +0.005 A 
ATOM     13  C   UNL     1      -8.843 -16.525 -19.745  0.00  0.00    +0.005 A 
ATOM     14  C   UNL     1     -11.269 -15.309 -19.118  0.00  0.00    +0.000 A 
ATOM     15  C   UNL     1     -10.043 -17.197 -19.977  0.00  0.00    +0.000 A 
ATOM     16  C   UNL     1     -11.256 -16.588 -19.666  0.00  0.00    +0.000 A 
ENDBRANCH  10  11
ENDBRANCH   1  10
TORSDOF 2
ENDMDL
MODEL 9
REMARK VINA RESULT:    -4.152     12.998     14.311
REMARK INTER + INTRA:          -4.760
REMARK INTER:                  -4.625
REMARK INTRA:                  -0.135
REMARK UNBOUND:                -0.123
REMARK  Name = 1550473
REMARK  2 active torsions:
REMARK  status: ('A' for Active; 'I' for Inactive)
REMARK    1  A    between atoms: N_1  and  C_4
REMARK    2  A    between atoms: C_4  and  C_5
REMARK                            x       y       z     vdW  Elec       q    Type
REMARK                         _______ _______ _______ _____ _____    ______ ____
ROOT
ATOM      1  N   UNL     1      -3.436   5.528  -0.222  0.00  0.00    -0.354 N 
ATOM      2  N   UNL     1      -1.620   6.357   0.951  0.00  0.00    -0.372 N 
ATOM      3  N   UNL     1      -2.837   4.639   1.862  0.00  0.00    -0.372 N 
ATOM      4  C   UNL     1      -2.644   5.501   0.858  0.00  0.00    +0.166 C 
ATOM      5  H   UNL     1      -3.255   6.225  -0.935  0.00  0.00    +0.163 HD
ATOM      6  H   UNL     1      -1.003   6.358   1.752  0.00  0.00    +0.159 HD
ATOM      7  H   UNL     1      -1.413   7.023   0.216  0.00  0.00    +0.159 HD
ATOM      8  H   UNL     1      -3.596   3.970   1.855  0.00  0.00    +0.159 HD
ATOM      9  H   UNL     1      -2.238   4.632   2.677  0.00  0.00    +0.159 HD
ENDROOT
BRANCH   1  10
ATOM     10  C   UNL     1      -4.545   4.602  -0.446  0.00  0.00    +0.151 C 
BRANCH  10  11
ATOM     11  C   UNL     1      -4.569   4.205  -1.896  0.00  0.00    -0.028 A 
ATOM     12  C   UNL     1      -3.763   4.872  -2.830  0.00  0.00    +0.005 A 
ATOM     13  C   UNL     1      -5.391   3.159  -2.342  0.00  0.00    +0.005 A 
ATOM     14  C   UNL     1      -3.762   4.484  -4.172  0.00  0.00    +0.000 A 
ATOM     15  C   UNL     1      -5.388   2.775  -3.683  0.00  0.00    +0.000 A 
ATOM     16  C   UNL     1      -4.572   3.436  -4.597  0.00  0.00    +0.000 A 
ENDBRANCH  10  11
ENDBRANCH   1  10
TORSDOF 2
ENDMDL
