MODEL 1
REMARK VINA RESULT:    -4.585      0.000      0.000
REMARK INTER + INTRA:          -5.245
REMARK INTER:                  -5.121
REMARK INTRA:                  -0.124
REMARK UNBOUND:                -0.124
REMARK  Name = 1550473
REMARK  2 active torsions:
REMARK  status: ('A' for Active; 'I' for Inactive)
REMARK    1  A    between atoms: N_1  and  C_4
REMARK    2  A    between atoms: C_4  and  C_5
REMARK                            x       y       z     vdW  Elec       q    Type
REMARK                         _______ _______ _______ _____ _____    ______ ____
ROOT
ATOM      1  N   UNL     1      -8.087 -15.387 -14.669  0.00  0.00    -0.354 N 
ATOM      2  N   UNL     1      -6.371 -13.839 -14.815  0.00  0.00    -0.372 N 
ATOM      3  N   UNL     1      -8.483 -13.109 -14.291  0.00  0.00    -0.372 N 
ATOM      4  C   UNL     1      -7.661 -14.120 -14.590  0.00  0.00    +0.166 C 
ATOM      5  H   UNL     1      -7.420 -16.105 -14.930  0.00  0.00    +0.163 HD
ATOM      6  H   UNL     1      -6.019 -12.893 -14.759  0.00  0.00    +0.159 HD
ATOM      7  H   UNL     1      -5.698 -14.564 -15.030  0.00  0.00    +0.159 HD
ATOM      8  H   UNL     1      -9.468 -13.253 -14.117  0.00  0.00    +0.159 HD
ATOM      9  H   UNL     1      -8.152 -12.153 -14.243  0.00  0.00    +0.159 HD
ENDROOT
BRANCH   1  10
ATOM     10  C   UNL     1      -9.460 -15.807 -14.390  0.00  0.00    +0.151 C 
BRANCH  10  11
ATOM     11  C   UNL     1      -9.468 -17.274 -14.059  0.00  0.00    -0.028 A 
ATOM     12  C   UNL     1      -8.346 -17.877 -13.471  0.00  0.00    +0.005 A 
ATOM     13  C   UNL     1     -10.595 -18.065 -14.326  0.00  0.00    +0.005 A 
ATOM     14  C   UNL     1      -8.364 -19.233 -13.136  0.00  0.00    +0.000 A 
ATOM     15  C   UNL     1     -10.609 -19.419 -13.991  0.00  0.00    +0.000 A 
ATOM     16  C   UNL     1      -9.494 -20.002 -13.393  0.00  0.00    +0.000 A 
ENDBRANCH  10  11
ENDBRANCH   1  10
TORSDOF 2
ENDMDL
MODEL 2
REMARK VINA RESULT:    -4.293      2.352      5.737
REMARK INTER + INTRA:          -4.919
REMARK INTER:                  -4.798
REMARK INTRA:                  -0.121
REMARK UNBOUND:                -0.124
REMARK  Name = 1550473
REMARK  2 active torsions:
REMARK  status: ('A' for Active; 'I' for Inactive)
REMARK    1  A    between atoms: N_1  and  C_4
REMARK    2  A    between atoms: C_4  and  C_5
REMARK                            x       y       z     vdW  Elec       q    Type
REMARK                         _______ _______ _______ _____ _____    ______ ____
ROOT
ATOM      1  N   UNL     1      -7.963 -15.682 -14.482  0.00  0.00    -0.354 N 
ATOM      2  N   UNL     1      -8.305 -17.918 -13.981  0.00  0.00    -0.372 N 
ATOM      3  N   UNL     1      -9.593 -16.335 -12.931  0.00  0.00    -0.372 N 
ATOM      4  C   UNL     1      -8.620 -16.629 -13.799  0.00  0.00    +0.166 C 
ATOM      5  H   UNL     1      -7.214 -15.969 -15.103  0.00  0.00    +0.163 HD
ATOM      6  H   UNL     1      -8.786 -18.654 -13.482  0.00  0.00    +0.159 HD
ATOM      7  H   UNL     1      -7.588 -18.204 -14.637  0.00  0.00    +0.159 HD
ATOM      8  H   UNL     1      -9.874 -15.382 -12.744  0.00  0.00    +0.159 HD
ATOM      9  H   UNL     1     -10.078 -17.058 -12.414  0.00  0.00    +0.159 HD
ENDROOT
BRANCH   1  10
ATOM     10  C   UNL     1      -8.265 -14.255 -14.398  0.00  0.00    +0.151 C 
BRANCH  10  11
ATOM     11  C   UNL     1      -6.989 -13.497 -14.153  0.00  0.00    -0.028 A 
ATOM     12  C   UNL     1      -6.825 -12.738 -12.985  0.00  0.00    +0.005 A 
ATOM     13  C   UNL     1      -5.939 -13.537 -15.083  0.00  0.00    +0.005 A 
ATOM     14  C   UNL     1      -5.629 -12.058 -12.743  0.00  0.00    +0.000 A 
ATOM     15  C   UNL     1      -4.747 -12.856 -14.838  0.00  0.00    +0.000 A 
ATOM     16  C   UNL     1      -4.591 -12.119 -13.667  0.00  0.00    +0.000 A 
ENDBRANCH  10  11
ENDBRANCH   1  10
TORSDOF 2
ENDMDL
MODEL 3
REMARK VINA RESULT:    -4.221      4.148      5.710
REMARK INTER + INTRA:          -4.839
REMARK INTER:                  -4.731
REMARK INTRA:                  -0.107
REMARK UNBOUND:                -0.124
REMARK  Name = 1550473
REMARK  2 active torsions:
REMARK  status: ('A' for Active; 'I' for Inactive)
REMARK    1  A    between atoms: N_1  and  C_4
REMARK    2  A    between atoms: C_4  and  C_5
REMARK                            x       y       z     vdW  Elec       q    Type
REMARK                         _______ _______ _______ _____ _____    ______ ____
ROOT
ATOM      1  N   UNL     1      -7.650 -19.007 -12.368  0.00  0.00    -0.354 N 
ATOM      2  N   UNL     1      -9.460 -19.439 -13.748  0.00  0.00    -0.372 N 
ATOM      3  N   UNL     1      -8.261 -17.508 -14.063  0.00  0.00    -0.372 N 
ATOM      4  C   UNL     1      -8.444 -18.646 -13.385  0.00  0.00    +0.166 C 
ATOM      5  H   UNL     1      -7.860 -19.867 -11.875  0.00  0.00    +0.163 HD
ATOM      6  H   UNL     1     -10.074 -19.194 -14.513  0.00  0.00    +0.159 HD
ATOM      7  H   UNL     1      -9.640 -20.320 -13.282  0.00  0.00    +0.159 HD
ATOM      8  H   UNL     1      -7.516 -16.863 -13.836  0.00  0.00    +0.159 HD
ATOM      9  H   UNL     1      -8.872 -17.240 -14.825  0.00  0.00    +0.159 HD
ENDROOT
BRANCH   1  10
ATOM     10  C   UNL     1      -6.485 -18.241 -11.929  0.00  0.00    +0.151 C 
BRANCH  10  11
ATOM     11  C   UNL     1      -5.643 -19.101 -11.027  0.00  0.00    -0.028 A 
ATOM     12  C   UNL     1      -6.238 -19.855 -10.005  0.00  0.00    +0.005 A 
ATOM     13  C   UNL     1      -4.252 -19.170 -11.192  0.00  0.00    +0.005 A 
ATOM     14  C   UNL     1      -5.460 -20.677  -9.185  0.00  0.00    +0.000 A 
ATOM     15  C   UNL     1      -3.479 -19.991 -10.372  0.00  0.00    +0.000 A 
ATOM     16  C   UNL     1      -4.084 -20.747  -9.370  0.00  0.00    +0.000 A 
ENDBRANCH  10  11
ENDBRANCH   1  10
TORSDOF 2
ENDMDL
MODEL 4
REMARK VINA RESULT:    -4.185     21.003     21.666
REMARK INTER + INTRA:          -4.798
REMARK INTER:                  -4.661
REMARK INTRA:                  -0.137
REMARK UNBOUND:                -0.124
REMARK  Name = 1550473
REMARK  2 active torsions:
REMARK  status: ('A' for Active; 'I' for Inactive)
REMARK    1  A    between atoms: N_1  and  C_4
REMARK    2  A    between atoms: C_4  and  C_5
REMARK                            x       y       z     vdW  Elec       q    Type
REMARK                         _______ _______ _______ _____ _____    ______ ____
ROOT
ATOM      1  N   UNL     1     -10.092  -5.722   3.847  0.00  0.00    -0.354 N 
ATOM      2  N   UNL     1      -8.184  -4.799   4.781  0.00  0.00    -0.372 N 
ATOM      3  N   UNL     1      -9.850  -3.400   4.054  0.00  0.00    -0.372 N 
ATOM      4  C   UNL     1      -9.389  -4.644   4.221  0.00  0.00    +0.166 C 
ATOM      5  H   UNL     1      -9.673  -6.636   3.973  0.00  0.00    +0.163 HD
ATOM      6  H   UNL     1      -7.632  -4.005   5.076  0.00  0.00    +0.159 HD
ATOM      7  H   UNL     1      -7.788  -5.716   4.948  0.00  0.00    +0.159 HD
ATOM      8  H   UNL     1     -10.750  -3.214   3.632  0.00  0.00    +0.159 HD
ATOM      9  H   UNL     1      -9.308  -2.592   4.332  0.00  0.00    +0.159 HD
ENDROOT
BRANCH   1  10
ATOM     10  C   UNL     1     -11.437  -5.664   3.277  0.00  0.00    +0.151 C 
BRANCH  10  11
ATOM     11  C   UNL     1     -12.361  -6.504   4.114  0.00  0.00    -0.028 A 
ATOM     12  C   UNL     1     -12.516  -7.872   3.848  0.00  0.00    +0.005 A 
ATOM     13  C   UNL     1     -13.081  -5.939   5.178  0.00  0.00    +0.005 A 
ATOM     14  C   UNL     1     -13.352  -8.660   4.643  0.00  0.00    +0.000 A 
ATOM     15  C   UNL     1     -13.915  -6.729   5.969  0.00  0.00    +0.000 A 
ATOM     16  C   UNL     1     -14.049  -8.089   5.703  0.00  0.00    +0.000 A 
ENDBRANCH  10  11
ENDBRANCH   1  10
TORSDOF 2
ENDMDL
MODEL 5
REMARK VINA RESULT:    -4.182     36.440     37.888
REMARK INTER + INTRA:          -4.795
REMARK INTER:                  -4.662
REMARK INTRA:                  -0.133
REMARK UNBOUND:                -0.124
REMARK  Name = 1550473
REMARK  2 active torsions:
REMARK  status: ('A' for Active; 'I' for Inactive)
REMARK    1  A    between atoms: N_1  and  C_4
REMARK    2  A    between atoms: C_4  and  C_5
REMARK                            x       y       z     vdW  Elec       q    Type
REMARK                         _______ _______ _______ _____ _____    ______ ____
ROOT
ATOM      1  N   UNL     1      -9.821   8.990  14.429  0.00  0.00    -0.354 N 
ATOM      2  N   UNL     1     -10.161   9.420  16.679  0.00  0.00    -0.372 N 
ATOM      3  N   UNL     1     -11.981   9.037  15.336  0.00  0.00    -0.372 N 
ATOM      4  C   UNL     1     -10.655   9.146  15.466  0.00  0.00    +0.166 C 
ATOM      5  H   UNL     1      -8.828   9.115  14.587  0.00  0.00    +0.163 HD
ATOM      6  H   UNL     1     -10.765   9.539  17.481  0.00  0.00    +0.159 HD
ATOM      7  H   UNL     1      -9.164   9.499  16.843  0.00  0.00    +0.159 HD
ATOM      8  H   UNL     1     -12.418   8.838  14.446  0.00  0.00    +0.159 HD
ATOM      9  H   UNL     1     -12.603   9.165  16.124  0.00  0.00    +0.159 HD
ENDROOT
BRANCH   1  10
ATOM     10  C   UNL     1     -10.253   8.637  13.078  0.00  0.00    +0.151 C 
BRANCH  10  11
ATOM     11  C   UNL     1      -9.316   9.265  12.082  0.00  0.00    -0.028 A 
ATOM     12  C   UNL     1      -8.385  10.230  12.492  0.00  0.00    +0.005 A 
ATOM     13  C   UNL     1      -9.351   8.894  10.729  0.00  0.00    +0.005 A 
ATOM     14  C   UNL     1      -7.494  10.791  11.574  0.00  0.00    +0.000 A 
ATOM     15  C   UNL     1      -8.461   9.457   9.816  0.00  0.00    +0.000 A 
ATOM     16  C   UNL     1      -7.531  10.403  10.238  0.00  0.00    +0.000 A 
ENDBRANCH  10  11
ENDBRANCH   1  10
TORSDOF 2
ENDMDL
MODEL 6
REMARK VINA RESULT:    -4.113     22.556     23.102
REMARK INTER + INTRA:          -4.718
REMARK INTER:                  -4.544
REMARK INTRA:                  -0.173
REMARK UNBOUND:                -0.124
REMARK  Name = 1550473
REMARK  2 active torsions:
REMARK  status: ('A' for Active; 'I' for Inactive)
REMARK    1  A    between atoms: N_1  and  C_4
REMARK    2  A    between atoms: C_4  and  C_5
REMARK                            x       y       z     vdW  Elec       q    Type
REMARK                         _______ _______ _______ _____ _____    ______ ____
ROOT
ATOM      1  N   UNL     1     -14.608 -11.662   6.425  0.00  0.00    -0.354 N 
ATOM      2  N   UNL     1     -16.427 -12.989   5.881  0.00  0.00    -0.372 N 
ATOM      3  N   UNL     1     -15.613 -11.524   4.313  0.00  0.00    -0.372 N 
ATOM      4  C   UNL     1     -15.537 -12.048   5.541  0.00  0.00    +0.166 C 
ATOM      5  H   UNL     1     -14.623 -12.076   7.350  0.00  0.00    +0.163 HD
ATOM      6  H   UNL     1     -17.138 -13.302   5.233  0.00  0.00    +0.159 HD
ATOM      7  H   UNL     1     -16.411 -13.434   6.790  0.00  0.00    +0.159 HD
ATOM      8  H   UNL     1     -14.975 -10.806   3.997  0.00  0.00    +0.159 HD
ATOM      9  H   UNL     1     -16.325 -11.817   3.655  0.00  0.00    +0.159 HD
ENDROOT
BRANCH   1  10
ATOM     10  C   UNL     1     -13.560 -10.685   6.137  0.00  0.00    +0.151 C 
BRANCH  10  11
ATOM     11  C   UNL     1     -13.920  -9.375   6.781  0.00  0.00    -0.028 A 
ATOM     12  C   UNL     1     -14.157  -9.301   8.162  0.00  0.00    +0.005 A 
ATOM     13  C   UNL     1     -14.020  -8.201   6.017  0.00  0.00    +0.005 A 
ATOM     14  C   UNL     1     -14.461  -8.079   8.765  0.00  0.00    +0.000 A 
ATOM     15  C   UNL     1     -14.325  -6.983   6.624  0.00  0.00    +0.000 A 
ATOM     16  C   UNL     1     -14.543  -6.922   7.998  0.00  0.00    +0.000 A 
ENDBRANCH  10  11
ENDBRANCH   1  10
TORSDOF 2
ENDMDL
MODEL 7
REMARK VINA RESULT:    -4.111     17.677     19.172
REMARK INTER + INTRA:          -4.715
REMARK INTER:                  -4.542
REMARK INTRA:                  -0.174
REMARK UNBOUND:                -0.124
REMARK  Name = 1550473
REMARK  2 active torsions:
REMARK  status: ('A' for Active; 'I' for Inactive)
REMARK    1  A    between atoms: N_1  and  C_4
REMARK    2  A    between atoms: C_4  and  C_5
REMARK                            x       y       z     vdW  Elec       q    Type
REMARK                         _______ _______ _______ _____ _____    ______ ____
ROOT
ATOM      1  N   UNL     1     -22.013 -25.192 -27.163  0.00  0.00    -0.354 N 
ATOM      2  N   UNL     1     -24.114 -26.146 -26.971  0.00  0.00    -0.372 N 
ATOM      3  N   UNL     1     -22.309 -27.253 -26.089  0.00  0.00    -0.372 N 
ATOM      4  C   UNL     1     -22.797 -26.193 -26.741  0.00  0.00    +0.166 C 
ATOM      5  H   UNL     1     -22.439 -24.430 -27.678  0.00  0.00    +0.163 HD
ATOM      6  H   UNL     1     -24.731 -26.884 -26.661  0.00  0.00    +0.159 HD
ATOM      7  H   UNL     1     -24.545 -25.361 -27.446  0.00  0.00    +0.159 HD
ATOM      8  H   UNL     1     -21.322 -27.352 -25.889  0.00  0.00    +0.159 HD
ATOM      9  H   UNL     1     -22.909 -28.008 -25.781  0.00  0.00    +0.159 HD
ENDROOT
BRANCH   1  10
ATOM     10  C   UNL     1     -20.573 -25.121 -26.916  0.00  0.00    +0.151 C 
BRANCH  10  11
ATOM     11  C   UNL     1     -20.306 -24.078 -25.866  0.00  0.00    -0.028 A 
ATOM     12  C   UNL     1     -20.365 -24.407 -24.504  0.00  0.00    +0.005 A 
ATOM     13  C   UNL     1     -19.988 -22.760 -26.227  0.00  0.00    +0.005 A 
ATOM     14  C   UNL     1     -20.087 -23.446 -23.529  0.00  0.00    +0.000 A 
ATOM     15  C   UNL     1     -19.712 -21.803 -25.250  0.00  0.00    +0.000 A 
ATOM     16  C   UNL     1     -19.759 -22.147 -23.902  0.00  0.00    +0.000 A 
ENDBRANCH  10  11
ENDBRANCH   1  10
TORSDOF 2
ENDMDL
MODEL 8
REMARK VINA RESULT:    -4.083     15.950     17.880
REMARK INTER + INTRA:          -4.684
REMARK INTER:                  -4.593
REMARK INTRA:                  -0.091
REMARK UNBOUND:                -0.124
REMARK  Name = 1550473
REMARK  2 active torsions:
REMARK  status: ('A' for Active; 'I' for Inactive)
REMARK    1  A    between atoms: N_1  and  C_4
REMARK    2  A    between atoms: C_4  and  C_5
REMARK                            x       y       z     vdW  Elec       q    Type
REMARK                         _______ _______ _______ _____ _____    ______ ____
ROOT
ATOM      1  N   UNL     1      -1.387   0.822 -10.889  0.00  0.00    -0.354 N 
ATOM      2  N   UNL     1       0.323   2.080  -9.962  0.00  0.00    -0.372 N 
ATOM      3  N   UNL     1      -0.821   2.921 -11.765  0.00  0.00    -0.372 N 
ATOM      4  C   UNL     1      -0.640   1.934 -10.880  0.00  0.00    +0.166 C 
ATOM      5  H   UNL     1      -1.180   0.098 -10.210  0.00  0.00    +0.163 HD
ATOM      6  H   UNL     1       0.900   2.909  -9.929  0.00  0.00    +0.159 HD
ATOM      7  H   UNL     1       0.497   1.374  -9.257  0.00  0.00    +0.159 HD
ATOM      8  H   UNL     1      -1.527   2.870 -12.487  0.00  0.00    +0.159 HD
ATOM      9  H   UNL     1      -0.245   3.754 -11.755  0.00  0.00    +0.159 HD
ENDROOT
BRANCH   1  10
ATOM     10  C   UNL     1      -2.496   0.589 -11.812  0.00  0.00    +0.151 C 
BRANCH  10  11
ATOM     11  C   UNL     1      -3.065  -0.780 -11.561  0.00  0.00    -0.028 A 
ATOM     12  C   UNL     1      -4.010  -0.983 -10.545  0.00  0.00    +0.005 A 
ATOM     13  C   UNL     1      -2.667  -1.878 -12.340  0.00  0.00    +0.005 A 
ATOM     14  C   UNL     1      -4.561  -2.249 -10.331  0.00  0.00    +0.000 A 
ATOM     15  C   UNL     1      -3.219  -3.140 -12.123  0.00  0.00    +0.000 A 
ATOM     16  C   UNL     1      -4.168  -3.325 -11.120  0.00  0.00    +0.000 A 
ENDBRANCH  10  11
ENDBRANCH   1  10
TORSDOF 2
ENDMDL
MODEL 9
REMARK VINA RESULT:    -4.064     35.678     36.854
REMARK INTER + INTRA:          -4.663
REMARK INTER:                  -4.508
REMARK INTRA:                  -0.155
REMARK UNBOUND:                -0.124
REMARK  Name = 1550473
REMARK  2 active torsions:
REMARK  status: ('A' for Active; 'I' for Inactive)
REMARK    1  A    between atoms: N_1  and  C_4
REMARK    2  A    between atoms: C_4  and  C_5
REMARK                            x       y       z     vdW  Elec       q    Type
REMARK                         _______ _______ _______ _____ _____    ______ ____
ROOT
ATOM      1  N   UNL     1     -11.484   8.713  12.661  0.00  0.00    -0.354 N 
ATOM      2  N   UNL     1     -13.615   8.318  11.844  0.00  0.00    -0.372 N 
ATOM      3  N   UNL     1     -11.983   6.743  11.493  0.00  0.00    -0.372 N 
ATOM      4  C   UNL     1     -12.345   7.925  12.004  0.00  0.00    +0.166 C 
ATOM      5  H   UNL     1     -11.812   9.610  12.998  0.00  0.00    +0.163 HD
ATOM      6  H   UNL     1     -14.288   7.744  11.356  0.00  0.00    +0.159 HD
ATOM      7  H   UNL     1     -13.952   9.195  12.222  0.00  0.00    +0.159 HD
ATOM      8  H   UNL     1     -11.039   6.392  11.574  0.00  0.00    +0.159 HD
ATOM      9  H   UNL     1     -12.640   6.159  10.991  0.00  0.00    +0.159 HD
ENDROOT
BRANCH   1  10
ATOM     10  C   UNL     1     -10.093   8.353  12.936  0.00  0.00    +0.151 C 
BRANCH  10  11
ATOM     11  C   UNL     1      -9.189   9.205  12.088  0.00  0.00    -0.028 A 
ATOM     12  C   UNL     1      -9.097   8.988  10.706  0.00  0.00    +0.005 A 
ATOM     13  C   UNL     1      -8.427  10.235  12.661  0.00  0.00    +0.005 A 
ATOM     14  C   UNL     1      -8.280   9.799   9.914  0.00  0.00    +0.000 A 
ATOM     15  C   UNL     1      -7.612  11.041  11.867  0.00  0.00    +0.000 A 
ATOM     16  C   UNL     1      -7.540  10.825  10.493  0.00  0.00    +0.000 A 
ENDBRANCH  10  11
ENDBRANCH   1  10
TORSDOF 2
ENDMDL
