MODEL 1
REMARK VINA RESULT:    -5.934      0.000      0.000
REMARK INTER + INTRA:          -6.770
REMARK INTER:                  -6.628
REMARK INTRA:                  -0.142
REMARK UNBOUND:                -0.142
REMARK  Name = 1550473
REMARK  2 active torsions:
REMARK  status: ('A' for Active; 'I' for Inactive)
REMARK    1  A    between atoms: N_1  and  C_4
REMARK    2  A    between atoms: C_4  and  C_5
REMARK                            x       y       z     vdW  Elec       q    Type
REMARK                         _______ _______ _______ _____ _____    ______ ____
ROOT
ATOM      1  N   UNL     1      -5.450  -4.244  -9.569  0.00  0.00    -0.354 N 
ATOM      2  N   UNL     1      -7.578  -4.301  -8.658  0.00  0.00    -0.372 N 
ATOM      3  N   UNL     1      -7.287  -4.954 -10.838  0.00  0.00    -0.372 N 
ATOM      4  C   UNL     1      -6.759  -4.500  -9.697  0.00  0.00    +0.166 C 
ATOM      5  H   UNL     1      -5.116  -3.872  -8.687  0.00  0.00    +0.163 HD
ATOM      6  H   UNL     1      -8.570  -4.488  -8.723  0.00  0.00    +0.159 HD
ATOM      7  H   UNL     1      -7.235  -3.973  -7.763  0.00  0.00    +0.159 HD
ATOM      8  H   UNL     1      -6.724  -5.119 -11.661  0.00  0.00    +0.159 HD
ATOM      9  H   UNL     1      -8.279  -5.137 -10.927  0.00  0.00    +0.159 HD
ENDROOT
BRANCH   1  10
ATOM     10  C   UNL     1      -4.464  -4.477 -10.623  0.00  0.00    +0.151 C 
BRANCH  10  11
ATOM     11  C   UNL     1      -3.583  -5.629 -10.225  0.00  0.00    -0.028 A 
ATOM     12  C   UNL     1      -3.557  -6.079  -8.896  0.00  0.00    +0.005 A 
ATOM     13  C   UNL     1      -2.777  -6.279 -11.172  0.00  0.00    +0.005 A 
ATOM     14  C   UNL     1      -2.761  -7.168  -8.532  0.00  0.00    +0.000 A 
ATOM     15  C   UNL     1      -1.984  -7.366 -10.804  0.00  0.00    +0.000 A 
ATOM     16  C   UNL     1      -1.978  -7.812  -9.484  0.00  0.00    +0.000 A 
ENDBRANCH  10  11
ENDBRANCH   1  10
TORSDOF 2
ENDMDL
MODEL 2
REMARK VINA RESULT:    -5.341      1.239      1.499
REMARK INTER + INTRA:          -6.107
REMARK INTER:                  -5.957
REMARK INTRA:                  -0.150
REMARK UNBOUND:                -0.142
REMARK  Name = 1550473
REMARK  2 active torsions:
REMARK  status: ('A' for Active; 'I' for Inactive)
REMARK    1  A    between atoms: N_1  and  C_4
REMARK    2  A    between atoms: C_4  and  C_5
REMARK                            x       y       z     vdW  Elec       q    Type
REMARK                         _______ _______ _______ _____ _____    ______ ____
ROOT
ATOM      1  N   UNL     1      -6.258  -5.447 -10.305  0.00  0.00    -0.354 N 
ATOM      2  N   UNL     1      -7.872  -5.293 -11.960  0.00  0.00    -0.372 N 
ATOM      3  N   UNL     1      -6.544  -3.471 -11.532  0.00  0.00    -0.372 N 
ATOM      4  C   UNL     1      -6.880  -4.736 -11.255  0.00  0.00    +0.166 C 
ATOM      5  H   UNL     1      -6.579  -6.391 -10.123  0.00  0.00    +0.163 HD
ATOM      6  H   UNL     1      -8.357  -4.782 -12.685  0.00  0.00    +0.159 HD
ATOM      7  H   UNL     1      -8.160  -6.252 -11.806  0.00  0.00    +0.159 HD
ATOM      8  H   UNL     1      -5.808  -2.990 -11.032  0.00  0.00    +0.159 HD
ATOM      9  H   UNL     1      -7.026  -2.939 -12.246  0.00  0.00    +0.159 HD
ENDROOT
BRANCH   1  10
ATOM     10  C   UNL     1      -5.130  -4.951  -9.518  0.00  0.00    +0.151 C 
BRANCH  10  11
ATOM     11  C   UNL     1      -3.958  -5.874  -9.704  0.00  0.00    -0.028 A 
ATOM     12  C   UNL     1      -3.511  -6.679  -8.646  0.00  0.00    +0.005 A 
ATOM     13  C   UNL     1      -3.293  -5.953 -10.937  0.00  0.00    +0.005 A 
ATOM     14  C   UNL     1      -2.441  -7.558  -8.826  0.00  0.00    +0.000 A 
ATOM     15  C   UNL     1      -2.224  -6.831 -11.113  0.00  0.00    +0.000 A 
ATOM     16  C   UNL     1      -1.800  -7.636 -10.058  0.00  0.00    +0.000 A 
ENDBRANCH  10  11
ENDBRANCH   1  10
TORSDOF 2
ENDMDL
MODEL 3
REMARK VINA RESULT:    -5.314      2.372      3.338
REMARK INTER + INTRA:          -6.077
REMARK INTER:                  -5.942
REMARK INTRA:                  -0.135
REMARK UNBOUND:                -0.142
REMARK  Name = 1550473
REMARK  2 active torsions:
REMARK  status: ('A' for Active; 'I' for Inactive)
REMARK    1  A    between atoms: N_1  and  C_4
REMARK    2  A    between atoms: C_4  and  C_5
REMARK                            x       y       z     vdW  Elec       q    Type
REMARK                         _______ _______ _______ _____ _____    ______ ____
ROOT
ATOM      1  N   UNL     1      -2.883  -6.200  -9.539  0.00  0.00    -0.354 N 
ATOM      2  N   UNL     1      -3.545  -5.903  -7.339  0.00  0.00    -0.372 N 
ATOM      3  N   UNL     1      -4.680  -4.796  -8.998  0.00  0.00    -0.372 N 
ATOM      4  C   UNL     1      -3.700  -5.633  -8.641  0.00  0.00    +0.166 C 
ATOM      5  H   UNL     1      -2.140  -6.801  -9.201  0.00  0.00    +0.163 HD
ATOM      6  H   UNL     1      -4.149  -5.493  -6.639  0.00  0.00    +0.159 HD
ATOM      7  H   UNL     1      -2.832  -6.541  -7.009  0.00  0.00    +0.159 HD
ATOM      8  H   UNL     1      -4.846  -4.547  -9.964  0.00  0.00    +0.159 HD
ATOM      9  H   UNL     1      -5.287  -4.367  -8.311  0.00  0.00    +0.159 HD
ENDROOT
BRANCH   1  10
ATOM     10  C   UNL     1      -3.001  -6.014 -10.984  0.00  0.00    +0.151 C 
BRANCH  10  11
ATOM     11  C   UNL     1      -2.897  -7.352 -11.661  0.00  0.00    -0.028 A 
ATOM     12  C   UNL     1      -3.730  -8.413 -11.275  0.00  0.00    +0.005 A 
ATOM     13  C   UNL     1      -1.971  -7.565 -12.694  0.00  0.00    +0.005 A 
ATOM     14  C   UNL     1      -3.654  -9.647 -11.924  0.00  0.00    +0.000 A 
ATOM     15  C   UNL     1      -1.898  -8.800 -13.339  0.00  0.00    +0.000 A 
ATOM     16  C   UNL     1      -2.741  -9.840 -12.956  0.00  0.00    +0.000 A 
ENDBRANCH  10  11
ENDBRANCH   1  10
TORSDOF 2
ENDMDL
MODEL 4
REMARK VINA RESULT:    -5.090      2.057      2.663
REMARK INTER + INTRA:          -5.827
REMARK INTER:                  -5.679
REMARK INTRA:                  -0.148
REMARK UNBOUND:                -0.142
REMARK  Name = 1550473
REMARK  2 active torsions:
REMARK  status: ('A' for Active; 'I' for Inactive)
REMARK    1  A    between atoms: N_1  and  C_4
REMARK    2  A    between atoms: C_4  and  C_5
REMARK                            x       y       z     vdW  Elec       q    Type
REMARK                         _______ _______ _______ _____ _____    ______ ____
ROOT
ATOM      1  N   UNL     1      -5.673  -6.148  -8.633  0.00  0.00    -0.354 N 
ATOM      2  N   UNL     1      -7.427  -4.648  -8.824  0.00  0.00    -0.372 N 
ATOM      3  N   UNL     1      -5.290  -3.909  -9.211  0.00  0.00    -0.372 N 
ATOM      4  C   UNL     1      -6.116  -4.910  -8.888  0.00  0.00    +0.166 C 
ATOM      5  H   UNL     1      -6.347  -6.855  -8.365  0.00  0.00    +0.163 HD
ATOM      6  H   UNL     1      -7.792  -3.725  -9.015  0.00  0.00    +0.159 HD
ATOM      7  H   UNL     1      -8.104  -5.368  -8.601  0.00  0.00    +0.159 HD
ATOM      8  H   UNL     1      -4.289  -4.040  -9.270  0.00  0.00    +0.159 HD
ATOM      9  H   UNL     1      -5.634  -2.975  -9.394  0.00  0.00    +0.159 HD
ENDROOT
BRANCH   1  10
ATOM     10  C   UNL     1      -4.270  -6.550  -8.728  0.00  0.00    +0.151 C 
BRANCH  10  11
ATOM     11  C   UNL     1      -4.124  -7.566  -9.826  0.00  0.00    -0.028 A 
ATOM     12  C   UNL     1      -2.856  -7.894 -10.329  0.00  0.00    +0.005 A 
ATOM     13  C   UNL     1      -5.249  -8.210 -10.365  0.00  0.00    +0.005 A 
ATOM     14  C   UNL     1      -2.717  -8.860 -11.329  0.00  0.00    +0.000 A 
ATOM     15  C   UNL     1      -5.106  -9.173 -11.364  0.00  0.00    +0.000 A 
ATOM     16  C   UNL     1      -3.840  -9.500 -11.843  0.00  0.00    +0.000 A 
ENDBRANCH  10  11
ENDBRANCH   1  10
TORSDOF 2
ENDMDL
MODEL 5
REMARK VINA RESULT:    -4.913      3.895      5.375
REMARK INTER + INTRA:          -5.629
REMARK INTER:                  -5.492
REMARK INTRA:                  -0.137
REMARK UNBOUND:                -0.142
REMARK  Name = 1550473
REMARK  2 active torsions:
REMARK  status: ('A' for Active; 'I' for Inactive)
REMARK    1  A    between atoms: N_1  and  C_4
REMARK    2  A    between atoms: C_4  and  C_5
REMARK                            x       y       z     vdW  Elec       q    Type
REMARK                         _______ _______ _______ _____ _____    ______ ____
ROOT
ATOM      1  N   UNL     1      -3.192  -7.904 -10.805  0.00  0.00    -0.354 N 
ATOM      2  N   UNL     1      -2.986  -5.854  -9.747  0.00  0.00    -0.372 N 
ATOM      3  N   UNL     1      -1.611  -7.576  -9.107  0.00  0.00    -0.372 N 
ATOM      4  C   UNL     1      -2.596  -7.126  -9.892  0.00  0.00    +0.166 C 
ATOM      5  H   UNL     1      -3.953  -7.512 -11.348  0.00  0.00    +0.163 HD
ATOM      6  H   UNL     1      -2.552  -5.242  -9.069  0.00  0.00    +0.159 HD
ATOM      7  H   UNL     1      -3.715  -5.452 -10.323  0.00  0.00    +0.159 HD
ATOM      8  H   UNL     1      -1.274  -8.528  -9.162  0.00  0.00    +0.159 HD
ATOM      9  H   UNL     1      -1.172  -6.982  -8.414  0.00  0.00    +0.159 HD
ENDROOT
BRANCH   1  10
ATOM     10  C   UNL     1      -2.806  -9.287 -11.079  0.00  0.00    +0.151 C 
BRANCH  10  11
ATOM     11  C   UNL     1      -2.741  -9.494 -12.567  0.00  0.00    -0.028 A 
ATOM     12  C   UNL     1      -2.284  -8.469 -13.408  0.00  0.00    +0.005 A 
ATOM     13  C   UNL     1      -3.128 -10.714 -13.141  0.00  0.00    +0.005 A 
ATOM     14  C   UNL     1      -2.195  -8.670 -14.788  0.00  0.00    +0.000 A 
ATOM     15  C   UNL     1      -3.038 -10.911 -14.519  0.00  0.00    +0.000 A 
ATOM     16  C   UNL     1      -2.569  -9.890 -15.342  0.00  0.00    +0.000 A 
ENDBRANCH  10  11
ENDBRANCH   1  10
TORSDOF 2
ENDMDL
MODEL 6
REMARK VINA RESULT:    -4.823     15.286     15.934
REMARK INTER + INTRA:          -5.529
REMARK INTER:                  -5.404
REMARK INTRA:                  -0.125
REMARK UNBOUND:                -0.142
REMARK  Name = 1550473
REMARK  2 active torsions:
REMARK  status: ('A' for Active; 'I' for Inactive)
REMARK    1  A    between atoms: N_1  and  C_4
REMARK    2  A    between atoms: C_4  and  C_5
REMARK                            x       y       z     vdW  Elec       q    Type
REMARK                         _______ _______ _______ _____ _____    ______ ____
ROOT
ATOM      1  N   UNL     1      -1.617   1.367 -24.685  0.00  0.00    -0.354 N 
ATOM      2  N   UNL     1      -3.503   1.467 -26.025  0.00  0.00    -0.372 N 
ATOM      3  N   UNL     1      -3.164   3.113 -24.462  0.00  0.00    -0.372 N 
ATOM      4  C   UNL     1      -2.749   1.984 -25.047  0.00  0.00    +0.166 C 
ATOM      5  H   UNL     1      -1.373   0.498 -25.146  0.00  0.00    +0.163 HD
ATOM      6  H   UNL     1      -4.361   1.911 -26.322  0.00  0.00    +0.159 HD
ATOM      7  H   UNL     1      -3.233   0.623 -26.515  0.00  0.00    +0.159 HD
ATOM      8  H   UNL     1      -2.644   3.551 -23.714  0.00  0.00    +0.159 HD
ATOM      9  H   UNL     1      -4.026   3.566 -24.738  0.00  0.00    +0.159 HD
ENDROOT
BRANCH   1  10
ATOM     10  C   UNL     1      -0.697   1.876 -23.668  0.00  0.00    +0.151 C 
BRANCH  10  11
ATOM     11  C   UNL     1       0.240   0.774 -23.257  0.00  0.00    -0.028 A 
ATOM     12  C   UNL     1       0.239  -0.452 -23.938  0.00  0.00    +0.005 A 
ATOM     13  C   UNL     1       1.134   0.952 -22.191  0.00  0.00    +0.005 A 
ATOM     14  C   UNL     1       1.130  -1.465 -23.575  0.00  0.00    +0.000 A 
ATOM     15  C   UNL     1       2.022  -0.062 -21.831  0.00  0.00    +0.000 A 
ATOM     16  C   UNL     1       2.021  -1.270 -22.525  0.00  0.00    +0.000 A 
ENDBRANCH  10  11
ENDBRANCH   1  10
TORSDOF 2
ENDMDL
MODEL 7
REMARK VINA RESULT:    -4.704      4.272      5.297
REMARK INTER + INTRA:          -5.396
REMARK INTER:                  -5.250
REMARK INTRA:                  -0.146
REMARK UNBOUND:                -0.142
REMARK  Name = 1550473
REMARK  2 active torsions:
REMARK  status: ('A' for Active; 'I' for Inactive)
REMARK    1  A    between atoms: N_1  and  C_4
REMARK    2  A    between atoms: C_4  and  C_5
REMARK                            x       y       z     vdW  Elec       q    Type
REMARK                         _______ _______ _______ _____ _____    ______ ____
ROOT
ATOM      1  N   UNL     1      -6.255  -5.773 -11.803  0.00  0.00    -0.354 N 
ATOM      2  N   UNL     1      -6.579  -3.656 -10.920  0.00  0.00    -0.372 N 
ATOM      3  N   UNL     1      -6.239  -5.417  -9.487  0.00  0.00    -0.372 N 
ATOM      4  C   UNL     1      -6.355  -4.964 -10.740  0.00  0.00    +0.166 C 
ATOM      5  H   UNL     1      -6.383  -5.373 -12.726  0.00  0.00    +0.163 HD
ATOM      6  H   UNL     1      -6.656  -3.021 -10.136  0.00  0.00    +0.159 HD
ATOM      7  H   UNL     1      -6.660  -3.252 -11.844  0.00  0.00    +0.159 HD
ATOM      8  H   UNL     1      -6.076  -6.394  -9.284  0.00  0.00    +0.159 HD
ATOM      9  H   UNL     1      -6.325  -4.798  -8.690  0.00  0.00    +0.159 HD
ENDROOT
BRANCH   1  10
ATOM     10  C   UNL     1      -5.959  -7.202 -11.719  0.00  0.00    +0.151 C 
BRANCH  10  11
ATOM     11  C   UNL     1      -7.171  -7.980 -12.151  0.00  0.00    -0.028 A 
ATOM     12  C   UNL     1      -8.210  -7.350 -12.852  0.00  0.00    +0.005 A 
ATOM     13  C   UNL     1      -7.284  -9.350 -11.867  0.00  0.00    +0.005 A 
ATOM     14  C   UNL     1      -9.322  -8.079 -13.280  0.00  0.00    +0.000 A 
ATOM     15  C   UNL     1      -8.397 -10.074 -12.295  0.00  0.00    +0.000 A 
ATOM     16  C   UNL     1      -9.414  -9.439 -13.004  0.00  0.00    +0.000 A 
ENDBRANCH  10  11
ENDBRANCH   1  10
TORSDOF 2
ENDMDL
MODEL 8
REMARK VINA RESULT:    -4.671      3.054      3.971
REMARK INTER + INTRA:          -5.359
REMARK INTER:                  -5.234
REMARK INTRA:                  -0.125
REMARK UNBOUND:                -0.142
REMARK  Name = 1550473
REMARK  2 active torsions:
REMARK  status: ('A' for Active; 'I' for Inactive)
REMARK    1  A    between atoms: N_1  and  C_4
REMARK    2  A    between atoms: C_4  and  C_5
REMARK                            x       y       z     vdW  Elec       q    Type
REMARK                         _______ _______ _______ _____ _____    ______ ____
ROOT
ATOM      1  N   UNL     1      -6.522  -8.092 -11.139  0.00  0.00    -0.354 N 
ATOM      2  N   UNL     1      -8.111  -8.406 -12.794  0.00  0.00    -0.372 N 
ATOM      3  N   UNL     1      -6.716 -10.146 -12.251  0.00  0.00    -0.372 N 
ATOM      4  C   UNL     1      -7.104  -8.882 -12.050  0.00  0.00    +0.166 C 
ATOM      5  H   UNL     1      -6.842  -7.134 -11.056  0.00  0.00    +0.163 HD
ATOM      6  H   UNL     1      -8.572  -8.980 -13.488  0.00  0.00    +0.159 HD
ATOM      7  H   UNL     1      -8.459  -7.463 -12.678  0.00  0.00    +0.159 HD
ATOM      8  H   UNL     1      -5.959 -10.563 -11.726  0.00  0.00    +0.159 HD
ATOM      9  H   UNL     1      -7.158 -10.732 -12.948  0.00  0.00    +0.159 HD
ENDROOT
BRANCH   1  10
ATOM     10  C   UNL     1      -5.454  -8.529 -10.241  0.00  0.00    +0.151 C 
BRANCH  10  11
ATOM     11  C   UNL     1      -4.756  -7.320  -9.683  0.00  0.00    -0.028 A 
ATOM     12  C   UNL     1      -4.803  -6.094 -10.362  0.00  0.00    +0.005 A 
ATOM     13  C   UNL     1      -4.049  -7.393  -8.472  0.00  0.00    +0.005 A 
ATOM     14  C   UNL     1      -4.179  -4.963  -9.829  0.00  0.00    +0.000 A 
ATOM     15  C   UNL     1      -3.427  -6.262  -7.944  0.00  0.00    +0.000 A 
ATOM     16  C   UNL     1      -3.494  -5.047  -8.621  0.00  0.00    +0.000 A 
ENDBRANCH  10  11
ENDBRANCH   1  10
TORSDOF 2
ENDMDL
MODEL 9
REMARK VINA RESULT:    -4.641     11.049     11.444
REMARK INTER + INTRA:          -5.326
REMARK INTER:                  -5.203
REMARK INTRA:                  -0.123
REMARK UNBOUND:                -0.142
REMARK  Name = 1550473
REMARK  2 active torsions:
REMARK  status: ('A' for Active; 'I' for Inactive)
REMARK    1  A    between atoms: N_1  and  C_4
REMARK    2  A    between atoms: C_4  and  C_5
REMARK                            x       y       z     vdW  Elec       q    Type
REMARK                         _______ _______ _______ _____ _____    ______ ____
ROOT
ATOM      1  N   UNL     1      -5.409   4.300 -14.531  0.00  0.00    -0.354 N 
ATOM      2  N   UNL     1      -3.920   5.501 -13.226  0.00  0.00    -0.372 N 
ATOM      3  N   UNL     1      -6.134   6.106 -13.226  0.00  0.00    -0.372 N 
ATOM      4  C   UNL     1      -5.166   5.296 -13.669  0.00  0.00    +0.166 C 
ATOM      5  H   UNL     1      -4.627   3.740 -14.853  0.00  0.00    +0.163 HD
ATOM      6  H   UNL     1      -3.707   6.243 -12.572  0.00  0.00    +0.159 HD
ATOM      7  H   UNL     1      -3.149   4.911 -13.513  0.00  0.00    +0.159 HD
ATOM      8  H   UNL     1      -7.094   6.008 -13.526  0.00  0.00    +0.159 HD
ATOM      9  H   UNL     1      -5.938   6.861 -12.580  0.00  0.00    +0.159 HD
ENDROOT
BRANCH   1  10
ATOM     10  C   UNL     1      -6.739   3.959 -15.033  0.00  0.00    +0.151 C 
BRANCH  10  11
ATOM     11  C   UNL     1      -6.604   2.928 -16.120  0.00  0.00    -0.028 A 
ATOM     12  C   UNL     1      -5.365   2.702 -16.737  0.00  0.00    +0.005 A 
ATOM     13  C   UNL     1      -7.711   2.170 -16.533  0.00  0.00    +0.005 A 
ATOM     14  C   UNL     1      -5.233   1.723 -17.725  0.00  0.00    +0.000 A 
ATOM     15  C   UNL     1      -7.575   1.194 -17.520  0.00  0.00    +0.000 A 
ATOM     16  C   UNL     1      -6.335   0.970 -18.115  0.00  0.00    +0.000 A 
ENDBRANCH  10  11
ENDBRANCH   1  10
TORSDOF 2
ENDMDL
