MODEL 1
REMARK VINA RESULT:    -4.830      0.000      0.000
REMARK INTER + INTRA:          -5.516
REMARK INTER:                  -5.395
REMARK INTRA:                  -0.122
REMARK UNBOUND:                -0.122
REMARK  Name = 1550473
REMARK  2 active torsions:
REMARK  status: ('A' for Active; 'I' for Inactive)
REMARK    1  A    between atoms: N_1  and  C_4
REMARK    2  A    between atoms: C_4  and  C_5
REMARK                            x       y       z     vdW  Elec       q    Type
REMARK                         _______ _______ _______ _____ _____    ______ ____
ROOT
ATOM      1  N   UNL     1      -7.486 -26.900  -6.107  0.00  0.00    -0.354 N 
ATOM      2  N   UNL     1      -8.179 -28.803  -7.231  0.00  0.00    -0.372 N 
ATOM      3  N   UNL     1      -8.818 -28.510  -5.047  0.00  0.00    -0.372 N 
ATOM      4  C   UNL     1      -8.157 -28.059  -6.118  0.00  0.00    +0.166 C 
ATOM      5  H   UNL     1      -6.980 -26.629  -6.943  0.00  0.00    +0.163 HD
ATOM      6  H   UNL     1      -8.680 -29.680  -7.270  0.00  0.00    +0.159 HD
ATOM      7  H   UNL     1      -7.710 -28.507  -8.079  0.00  0.00    +0.159 HD
ATOM      8  H   UNL     1      -8.836 -27.999  -4.174  0.00  0.00    +0.159 HD
ATOM      9  H   UNL     1      -9.316 -29.391  -5.063  0.00  0.00    +0.159 HD
ENDROOT
BRANCH   1  10
ATOM     10  C   UNL     1      -7.445 -25.990  -4.964  0.00  0.00    +0.151 C 
BRANCH  10  11
ATOM     11  C   UNL     1      -7.990 -24.652  -5.382  0.00  0.00    -0.028 A 
ATOM     12  C   UNL     1      -8.802 -24.538  -6.520  0.00  0.00    +0.005 A 
ATOM     13  C   UNL     1      -7.703 -23.495  -4.640  0.00  0.00    +0.005 A 
ATOM     14  C   UNL     1      -9.333 -23.300  -6.891  0.00  0.00    +0.000 A 
ATOM     15  C   UNL     1      -8.235 -22.262  -5.014  0.00  0.00    +0.000 A 
ATOM     16  C   UNL     1      -9.052 -22.165  -6.138  0.00  0.00    +0.000 A 
ENDBRANCH  10  11
ENDBRANCH   1  10
TORSDOF 2
ENDMDL
MODEL 2
REMARK VINA RESULT:    -4.620     55.780     57.657
REMARK INTER + INTRA:          -5.282
REMARK INTER:                  -5.161
REMARK INTRA:                  -0.121
REMARK UNBOUND:                -0.122
REMARK  Name = 1550473
REMARK  2 active torsions:
REMARK  status: ('A' for Active; 'I' for Inactive)
REMARK    1  A    between atoms: N_1  and  C_4
REMARK    2  A    between atoms: C_4  and  C_5
REMARK                            x       y       z     vdW  Elec       q    Type
REMARK                         _______ _______ _______ _____ _____    ______ ____
ROOT
ATOM      1  N   UNL     1       6.578  27.510  10.349  0.00  0.00    -0.354 N 
ATOM      2  N   UNL     1       7.284  26.159   8.605  0.00  0.00    -0.372 N 
ATOM      3  N   UNL     1       5.247  25.743   9.575  0.00  0.00    -0.372 N 
ATOM      4  C   UNL     1       6.363  26.478   9.522  0.00  0.00    +0.166 C 
ATOM      5  H   UNL     1       7.458  28.008  10.277  0.00  0.00    +0.163 HD
ATOM      6  H   UNL     1       7.148  25.388   7.965  0.00  0.00    +0.159 HD
ATOM      7  H   UNL     1       8.142  26.688   8.505  0.00  0.00    +0.159 HD
ATOM      8  H   UNL     1       4.516  25.928  10.248  0.00  0.00    +0.159 HD
ATOM      9  H   UNL     1       5.098  24.960   8.951  0.00  0.00    +0.159 HD
ENDROOT
BRANCH   1  10
ATOM     10  C   UNL     1       5.615  27.972  11.346  0.00  0.00    +0.151 C 
BRANCH  10  11
ATOM     11  C   UNL     1       6.233  27.864  12.713  0.00  0.00    -0.028 A 
ATOM     12  C   UNL     1       7.369  27.067  12.919  0.00  0.00    +0.005 A 
ATOM     13  C   UNL     1       5.691  28.560  13.805  0.00  0.00    +0.005 A 
ATOM     14  C   UNL     1       7.962  26.990  14.182  0.00  0.00    +0.000 A 
ATOM     15  C   UNL     1       6.285  28.479  15.064  0.00  0.00    +0.000 A 
ATOM     16  C   UNL     1       7.422  27.696  15.252  0.00  0.00    +0.000 A 
ENDBRANCH  10  11
ENDBRANCH   1  10
TORSDOF 2
ENDMDL
MODEL 3
REMARK VINA RESULT:    -4.599     49.153     49.820
REMARK INTER + INTRA:          -5.258
REMARK INTER:                  -5.099
REMARK INTRA:                  -0.160
REMARK UNBOUND:                -0.122
REMARK  Name = 1550473
REMARK  2 active torsions:
REMARK  status: ('A' for Active; 'I' for Inactive)
REMARK    1  A    between atoms: N_1  and  C_4
REMARK    2  A    between atoms: C_4  and  C_5
REMARK                            x       y       z     vdW  Elec       q    Type
REMARK                         _______ _______ _______ _____ _____    ______ ____
ROOT
ATOM      1  N   UNL     1      10.688  16.135  15.279  0.00  0.00    -0.354 N 
ATOM      2  N   UNL     1      12.649  17.098  14.511  0.00  0.00    -0.372 N 
ATOM      3  N   UNL     1      12.095  14.989  13.796  0.00  0.00    -0.372 N 
ATOM      4  C   UNL     1      11.798  16.065  14.533  0.00  0.00    +0.166 C 
ATOM      5  H   UNL     1      10.535  16.966  15.839  0.00  0.00    +0.163 HD
ATOM      6  H   UNL     1      13.493  17.076  13.955  0.00  0.00    +0.159 HD
ATOM      7  H   UNL     1      12.471  17.946  15.035  0.00  0.00    +0.159 HD
ATOM      8  H   UNL     1      11.497  14.174  13.774  0.00  0.00    +0.159 HD
ATOM      9  H   UNL     1      12.941  14.943  13.242  0.00  0.00    +0.159 HD
ENDROOT
BRANCH   1  10
ATOM     10  C   UNL     1       9.670  15.087  15.331  0.00  0.00    +0.151 C 
BRANCH  10  11
ATOM     11  C   UNL     1       9.560  14.577  16.741  0.00  0.00    -0.028 A 
ATOM     12  C   UNL     1       8.451  14.908  17.534  0.00  0.00    +0.005 A 
ATOM     13  C   UNL     1      10.559  13.758  17.290  0.00  0.00    +0.005 A 
ATOM     14  C   UNL     1       8.334  14.411  18.834  0.00  0.00    +0.000 A 
ATOM     15  C   UNL     1      10.439  13.264  18.588  0.00  0.00    +0.000 A 
ATOM     16  C   UNL     1       9.325  13.589  19.359  0.00  0.00    +0.000 A 
ENDBRANCH  10  11
ENDBRANCH   1  10
TORSDOF 2
ENDMDL
MODEL 4
REMARK VINA RESULT:    -4.561     27.340     28.459
REMARK INTER + INTRA:          -5.216
REMARK INTER:                  -5.091
REMARK INTRA:                  -0.126
REMARK UNBOUND:                -0.122
REMARK  Name = 1550473
REMARK  2 active torsions:
REMARK  status: ('A' for Active; 'I' for Inactive)
REMARK    1  A    between atoms: N_1  and  C_4
REMARK    2  A    between atoms: C_4  and  C_5
REMARK                            x       y       z     vdW  Elec       q    Type
REMARK                         _______ _______ _______ _____ _____    ______ ____
ROOT
ATOM      1  N   UNL     1      -6.743 -22.499  23.824  0.00  0.00    -0.354 N 
ATOM      2  N   UNL     1      -6.252 -21.908  26.009  0.00  0.00    -0.372 N 
ATOM      3  N   UNL     1      -5.424 -23.881  25.182  0.00  0.00    -0.372 N 
ATOM      4  C   UNL     1      -6.142 -22.769  24.991  0.00  0.00    +0.166 C 
ATOM      5  H   UNL     1      -7.297 -21.654  23.753  0.00  0.00    +0.163 HD
ATOM      6  H   UNL     1      -5.807 -22.083  26.900  0.00  0.00    +0.159 HD
ATOM      7  H   UNL     1      -6.770 -21.042  25.921  0.00  0.00    +0.159 HD
ATOM      8  H   UNL     1      -5.306 -24.574  24.455  0.00  0.00    +0.159 HD
ATOM      9  H   UNL     1      -4.980 -24.080  26.070  0.00  0.00    +0.159 HD
ENDROOT
BRANCH   1  10
ATOM     10  C   UNL     1      -6.640 -23.345  22.636  0.00  0.00    +0.151 C 
BRANCH  10  11
ATOM     11  C   UNL     1      -7.068 -22.553  21.432  0.00  0.00    -0.028 A 
ATOM     12  C   UNL     1      -7.220 -21.161  21.511  0.00  0.00    +0.005 A 
ATOM     13  C   UNL     1      -7.319 -23.189  20.206  0.00  0.00    +0.005 A 
ATOM     14  C   UNL     1      -7.589 -20.422  20.385  0.00  0.00    +0.000 A 
ATOM     15  C   UNL     1      -7.688 -22.448  19.084  0.00  0.00    +0.000 A 
ATOM     16  C   UNL     1      -7.821 -21.064  19.173  0.00  0.00    +0.000 A 
ENDBRANCH  10  11
ENDBRANCH   1  10
TORSDOF 2
ENDMDL
MODEL 5
REMARK VINA RESULT:    -4.537     57.591     58.603
REMARK INTER + INTRA:          -5.189
REMARK INTER:                  -5.048
REMARK INTRA:                  -0.141
REMARK UNBOUND:                -0.122
REMARK  Name = 1550473
REMARK  2 active torsions:
REMARK  status: ('A' for Active; 'I' for Inactive)
REMARK    1  A    between atoms: N_1  and  C_4
REMARK    2  A    between atoms: C_4  and  C_5
REMARK                            x       y       z     vdW  Elec       q    Type
REMARK                         _______ _______ _______ _____ _____    ______ ____
ROOT
ATOM      1  N   UNL     1       7.923  27.396  16.639  0.00  0.00    -0.354 N 
ATOM      2  N   UNL     1       7.900  26.126  18.576  0.00  0.00    -0.372 N 
ATOM      3  N   UNL     1       9.632  25.859  17.095  0.00  0.00    -0.372 N 
ATOM      4  C   UNL     1       8.487  26.468  17.423  0.00  0.00    +0.166 C 
ATOM      5  H   UNL     1       7.039  27.799  16.930  0.00  0.00    +0.163 HD
ATOM      6  H   UNL     1       8.304  25.431  19.189  0.00  0.00    +0.159 HD
ATOM      7  H   UNL     1       7.041  26.563  18.886  0.00  0.00    +0.159 HD
ATOM      8  H   UNL     1      10.122  26.067  16.235  0.00  0.00    +0.159 HD
ATOM      9  H   UNL     1      10.046  25.152  17.690  0.00  0.00    +0.159 HD
ENDROOT
BRANCH   1  10
ATOM     10  C   UNL     1       8.509  27.878  15.390  0.00  0.00    +0.151 C 
BRANCH  10  11
ATOM     11  C   UNL     1       7.567  27.576  14.257  0.00  0.00    -0.028 A 
ATOM     12  C   UNL     1       8.012  26.869  13.131  0.00  0.00    +0.005 A 
ATOM     13  C   UNL     1       6.227  27.990  14.306  0.00  0.00    +0.005 A 
ATOM     14  C   UNL     1       7.131  26.562  12.092  0.00  0.00    +0.000 A 
ATOM     15  C   UNL     1       5.350  27.683  13.266  0.00  0.00    +0.000 A 
ATOM     16  C   UNL     1       5.802  26.967  12.160  0.00  0.00    +0.000 A 
ENDBRANCH  10  11
ENDBRANCH   1  10
TORSDOF 2
ENDMDL
MODEL 6
REMARK VINA RESULT:    -4.519     34.378     35.168
REMARK INTER + INTRA:          -5.169
REMARK INTER:                  -5.056
REMARK INTRA:                  -0.113
REMARK UNBOUND:                -0.122
REMARK  Name = 1550473
REMARK  2 active torsions:
REMARK  status: ('A' for Active; 'I' for Inactive)
REMARK    1  A    between atoms: N_1  and  C_4
REMARK    2  A    between atoms: C_4  and  C_5
REMARK                            x       y       z     vdW  Elec       q    Type
REMARK                         _______ _______ _______ _____ _____    ______ ____
ROOT
ATOM      1  N   UNL     1       3.226   1.090 -25.379  0.00  0.00    -0.354 N 
ATOM      2  N   UNL     1       1.504   0.294 -26.708  0.00  0.00    -0.372 N 
ATOM      3  N   UNL     1       0.989   1.301 -24.712  0.00  0.00    -0.372 N 
ATOM      4  C   UNL     1       1.916   0.901 -25.589  0.00  0.00    +0.166 C 
ATOM      5  H   UNL     1       3.879   0.737 -26.068  0.00  0.00    +0.163 HD
ATOM      6  H   UNL     1       0.522   0.140 -26.895  0.00  0.00    +0.159 HD
ATOM      7  H   UNL     1       2.157  -0.017 -27.417  0.00  0.00    +0.159 HD
ATOM      8  H   UNL     1       1.235   1.760 -23.845  0.00  0.00    +0.159 HD
ATOM      9  H   UNL     1       0.002   1.146 -24.876  0.00  0.00    +0.159 HD
ENDROOT
BRANCH   1  10
ATOM     10  C   UNL     1       3.776   1.788 -24.218  0.00  0.00    +0.151 C 
BRANCH  10  11
ATOM     11  C   UNL     1       5.250   1.504 -24.127  0.00  0.00    -0.028 A 
ATOM     12  C   UNL     1       6.160   2.539 -23.871  0.00  0.00    +0.005 A 
ATOM     13  C   UNL     1       5.741   0.199 -24.290  0.00  0.00    +0.005 A 
ATOM     14  C   UNL     1       7.526   2.271 -23.756  0.00  0.00    +0.000 A 
ATOM     15  C   UNL     1       7.106  -0.064 -24.175  0.00  0.00    +0.000 A 
ATOM     16  C   UNL     1       7.998   0.971 -23.906  0.00  0.00    +0.000 A 
ENDBRANCH  10  11
ENDBRANCH   1  10
TORSDOF 2
ENDMDL
MODEL 7
REMARK VINA RESULT:    -4.478     49.057     50.142
REMARK INTER + INTRA:          -5.123
REMARK INTER:                  -5.012
REMARK INTRA:                  -0.112
REMARK UNBOUND:                -0.122
REMARK  Name = 1550473
REMARK  2 active torsions:
REMARK  status: ('A' for Active; 'I' for Inactive)
REMARK    1  A    between atoms: N_1  and  C_4
REMARK    2  A    between atoms: C_4  and  C_5
REMARK                            x       y       z     vdW  Elec       q    Type
REMARK                         _______ _______ _______ _____ _____    ______ ____
ROOT
ATOM      1  N   UNL     1       8.709  15.300  17.788  0.00  0.00    -0.354 N 
ATOM      2  N   UNL     1       8.568  16.503  15.813  0.00  0.00    -0.372 N 
ATOM      3  N   UNL     1       9.151  14.286  15.722  0.00  0.00    -0.372 N 
ATOM      4  C   UNL     1       8.811  15.352  16.453  0.00  0.00    +0.166 C 
ATOM      5  H   UNL     1       8.477  16.152  18.286  0.00  0.00    +0.163 HD
ATOM      6  H   UNL     1       8.633  16.572  14.807  0.00  0.00    +0.159 HD
ATOM      7  H   UNL     1       8.291  17.341  16.310  0.00  0.00    +0.159 HD
ATOM      8  H   UNL     1       9.354  13.389  16.145  0.00  0.00    +0.159 HD
ATOM      9  H   UNL     1       9.234  14.338  14.714  0.00  0.00    +0.159 HD
ENDROOT
BRANCH   1  10
ATOM     10  C   UNL     1       8.901  14.084  18.575  0.00  0.00    +0.151 C 
BRANCH  10  11
ATOM     11  C   UNL     1       8.200  14.238  19.896  0.00  0.00    -0.028 A 
ATOM     12  C   UNL     1       8.242  15.459  20.587  0.00  0.00    +0.005 A 
ATOM     13  C   UNL     1       7.486  13.170  20.461  0.00  0.00    +0.005 A 
ATOM     14  C   UNL     1       7.565  15.612  21.799  0.00  0.00    +0.000 A 
ATOM     15  C   UNL     1       6.812  13.326  21.672  0.00  0.00    +0.000 A 
ATOM     16  C   UNL     1       6.850  14.548  22.340  0.00  0.00    +0.000 A 
ENDBRANCH  10  11
ENDBRANCH   1  10
TORSDOF 2
ENDMDL
MODEL 8
REMARK VINA RESULT:    -4.371     24.284     25.301
REMARK INTER + INTRA:          -5.004
REMARK INTER:                  -4.865
REMARK INTRA:                  -0.139
REMARK UNBOUND:                -0.122
REMARK  Name = 1550473
REMARK  2 active torsions:
REMARK  status: ('A' for Active; 'I' for Inactive)
REMARK    1  A    between atoms: N_1  and  C_4
REMARK    2  A    between atoms: C_4  and  C_5
REMARK                            x       y       z     vdW  Elec       q    Type
REMARK                         _______ _______ _______ _____ _____    ______ ____
ROOT
ATOM      1  N   UNL     1      -7.188 -25.115  19.092  0.00  0.00    -0.354 N 
ATOM      2  N   UNL     1      -7.822 -27.046  17.981  0.00  0.00    -0.372 N 
ATOM      3  N   UNL     1      -8.219 -26.881  20.235  0.00  0.00    -0.372 N 
ATOM      4  C   UNL     1      -7.740 -26.335  19.113  0.00  0.00    +0.166 C 
ATOM      5  H   UNL     1      -6.816 -24.770  18.215  0.00  0.00    +0.163 HD
ATOM      6  H   UNL     1      -8.236 -27.968  17.965  0.00  0.00    +0.159 HD
ATOM      7  H   UNL     1      -7.490 -26.680  17.097  0.00  0.00    +0.159 HD
ATOM      8  H   UNL     1      -8.182 -26.399  21.123  0.00  0.00    +0.159 HD
ATOM      9  H   UNL     1      -8.627 -27.808  20.242  0.00  0.00    +0.159 HD
ENDROOT
BRANCH   1  10
ATOM     10  C   UNL     1      -7.099 -24.238  20.258  0.00  0.00    +0.151 C 
BRANCH  10  11
ATOM     11  C   UNL     1      -7.450 -22.835  19.846  0.00  0.00    -0.028 A 
ATOM     12  C   UNL     1      -8.041 -22.586  18.598  0.00  0.00    +0.005 A 
ATOM     13  C   UNL     1      -7.201 -21.750  20.700  0.00  0.00    +0.005 A 
ATOM     14  C   UNL     1      -8.395 -21.287  18.227  0.00  0.00    +0.000 A 
ATOM     15  C   UNL     1      -7.555 -20.454  20.326  0.00  0.00    +0.000 A 
ATOM     16  C   UNL     1      -8.154 -20.223  19.090  0.00  0.00    +0.000 A 
ENDBRANCH  10  11
ENDBRANCH   1  10
TORSDOF 2
ENDMDL
MODEL 9
REMARK VINA RESULT:    -4.303     11.696     12.735
REMARK INTER + INTRA:          -4.928
REMARK INTER:                  -4.808
REMARK INTRA:                  -0.120
REMARK UNBOUND:                -0.122
REMARK  Name = 1550473
REMARK  2 active torsions:
REMARK  status: ('A' for Active; 'I' for Inactive)
REMARK    1  A    between atoms: N_1  and  C_4
REMARK    2  A    between atoms: C_4  and  C_5
REMARK                            x       y       z     vdW  Elec       q    Type
REMARK                         _______ _______ _______ _____ _____    ______ ____
ROOT
ATOM      1  N   UNL     1       3.719 -21.723  -3.557  0.00  0.00    -0.354 N 
ATOM      2  N   UNL     1       5.072 -23.002  -4.935  0.00  0.00    -0.372 N 
ATOM      3  N   UNL     1       2.968 -23.765  -4.429  0.00  0.00    -0.372 N 
ATOM      4  C   UNL     1       3.909 -22.823  -4.298  0.00  0.00    +0.166 C 
ATOM      5  H   UNL     1       4.483 -21.062  -3.473  0.00  0.00    +0.163 HD
ATOM      6  H   UNL     1       5.243 -23.820  -5.504  0.00  0.00    +0.159 HD
ATOM      7  H   UNL     1       5.817 -22.317  -4.887  0.00  0.00    +0.159 HD
ATOM      8  H   UNL     1       2.070 -23.692  -3.968  0.00  0.00    +0.159 HD
ATOM      9  H   UNL     1       3.124 -24.597  -4.984  0.00  0.00    +0.159 HD
ENDROOT
BRANCH   1  10
ATOM     10  C   UNL     1       2.470 -21.407  -2.866  0.00  0.00    +0.151 C 
BRANCH  10  11
ATOM     11  C   UNL     1       2.437 -19.935  -2.560  0.00  0.00    -0.028 A 
ATOM     12  C   UNL     1       3.629 -19.208  -2.429  0.00  0.00    +0.005 A 
ATOM     13  C   UNL     1       1.216 -19.261  -2.406  0.00  0.00    +0.005 A 
ATOM     14  C   UNL     1       3.598 -17.835  -2.174  0.00  0.00    +0.000 A 
ATOM     15  C   UNL     1       1.189 -17.890  -2.151  0.00  0.00    +0.000 A 
ATOM     16  C   UNL     1       2.380 -17.177  -2.038  0.00  0.00    +0.000 A 
ENDBRANCH  10  11
ENDBRANCH   1  10
TORSDOF 2
ENDMDL
