MODEL 1
REMARK VINA RESULT:    -5.862      0.000      0.000
REMARK INTER + INTRA:          -6.695
REMARK INTER:                  -6.548
REMARK INTRA:                  -0.147
REMARK UNBOUND:                -0.147
REMARK  Name = 1550473
REMARK  2 active torsions:
REMARK  status: ('A' for Active; 'I' for Inactive)
REMARK    1  A    between atoms: N_1  and  C_4
REMARK    2  A    between atoms: C_4  and  C_5
REMARK                            x       y       z     vdW  Elec       q    Type
REMARK                         _______ _______ _______ _____ _____    ______ ____
ROOT
ATOM      1  N   UNL     1       0.848   0.615   0.780  0.00  0.00    -0.354 N 
ATOM      2  N   UNL     1       0.242   1.687   2.741  0.00  0.00    -0.372 N 
ATOM      3  N   UNL     1       2.066   0.295   2.756  0.00  0.00    -0.372 N 
ATOM      4  C   UNL     1       1.058   0.857   2.080  0.00  0.00    +0.166 C 
ATOM      5  H   UNL     1       0.049   1.048   0.332  0.00  0.00    +0.163 HD
ATOM      6  H   UNL     1       0.378   1.892   3.722  0.00  0.00    +0.159 HD
ATOM      7  H   UNL     1      -0.529   2.155   2.280  0.00  0.00    +0.159 HD
ATOM      8  H   UNL     1       2.714  -0.345   2.317  0.00  0.00    +0.159 HD
ATOM      9  H   UNL     1       2.211   0.478   3.741  0.00  0.00    +0.159 HD
ENDROOT
BRANCH   1  10
ATOM     10  C   UNL     1       1.711  -0.231  -0.044  0.00  0.00    +0.151 C 
BRANCH  10  11
ATOM     11  C   UNL     1       2.245   0.582  -1.191  0.00  0.00    -0.028 A 
ATOM     12  C   UNL     1       3.382   1.386  -1.026  0.00  0.00    +0.005 A 
ATOM     13  C   UNL     1       1.621   0.548  -2.448  0.00  0.00    +0.005 A 
ATOM     14  C   UNL     1       3.896   2.117  -2.099  0.00  0.00    +0.000 A 
ATOM     15  C   UNL     1       2.137   1.280  -3.517  0.00  0.00    +0.000 A 
ATOM     16  C   UNL     1       3.276   2.063  -3.343  0.00  0.00    +0.000 A 
ENDBRANCH  10  11
ENDBRANCH   1  10
TORSDOF 2
ENDMDL
MODEL 2
REMARK VINA RESULT:    -5.855      0.744      1.791
REMARK INTER + INTRA:          -6.687
REMARK INTER:                  -6.507
REMARK INTRA:                  -0.179
REMARK UNBOUND:                -0.147
REMARK  Name = 1550473
REMARK  2 active torsions:
REMARK  status: ('A' for Active; 'I' for Inactive)
REMARK    1  A    between atoms: N_1  and  C_4
REMARK    2  A    between atoms: C_4  and  C_5
REMARK                            x       y       z     vdW  Elec       q    Type
REMARK                         _______ _______ _______ _____ _____    ______ ____
ROOT
ATOM      1  N   UNL     1       1.802   0.627   1.579  0.00  0.00    -0.354 N 
ATOM      2  N   UNL     1       0.407   1.817   2.994  0.00  0.00    -0.372 N 
ATOM      3  N   UNL     1      -0.529   0.476   1.384  0.00  0.00    -0.372 N 
ATOM      4  C   UNL     1       0.567   0.964   1.974  0.00  0.00    +0.166 C 
ATOM      5  H   UNL     1       2.592   1.055   2.048  0.00  0.00    +0.163 HD
ATOM      6  H   UNL     1      -0.512   2.088   3.317  0.00  0.00    +0.159 HD
ATOM      7  H   UNL     1       1.198   2.208   3.491  0.00  0.00    +0.159 HD
ATOM      8  H   UNL     1      -0.476  -0.167   0.606  0.00  0.00    +0.159 HD
ATOM      9  H   UNL     1      -1.457   0.744   1.686  0.00  0.00    +0.159 HD
ENDROOT
BRANCH   1  10
ATOM     10  C   UNL     1       2.085  -0.335   0.515  0.00  0.00    +0.151 C 
BRANCH  10  11
ATOM     11  C   UNL     1       2.375   0.413  -0.758  0.00  0.00    -0.028 A 
ATOM     12  C   UNL     1       1.555   0.247  -1.884  0.00  0.00    +0.005 A 
ATOM     13  C   UNL     1       3.465   1.292  -0.843  0.00  0.00    +0.005 A 
ATOM     14  C   UNL     1       1.806   0.963  -3.056  0.00  0.00    +0.000 A 
ATOM     15  C   UNL     1       3.713   2.005  -2.016  0.00  0.00    +0.000 A 
ATOM     16  C   UNL     1       2.882   1.842  -3.121  0.00  0.00    +0.000 A 
ENDBRANCH  10  11
ENDBRANCH   1  10
TORSDOF 2
ENDMDL
MODEL 3
REMARK VINA RESULT:    -5.560      2.760      3.628
REMARK INTER + INTRA:          -6.358
REMARK INTER:                  -6.264
REMARK INTRA:                  -0.094
REMARK UNBOUND:                -0.147
REMARK  Name = 1550473
REMARK  2 active torsions:
REMARK  status: ('A' for Active; 'I' for Inactive)
REMARK    1  A    between atoms: N_1  and  C_4
REMARK    2  A    between atoms: C_4  and  C_5
REMARK                            x       y       z     vdW  Elec       q    Type
REMARK                         _______ _______ _______ _____ _____    ______ ____
ROOT
ATOM      1  N   UNL     1      -1.325   0.846  -1.310  0.00  0.00    -0.354 N 
ATOM      2  N   UNL     1      -3.482   1.643  -1.034  0.00  0.00    -0.372 N 
ATOM      3  N   UNL     1      -3.180  -0.507  -1.778  0.00  0.00    -0.372 N 
ATOM      4  C   UNL     1      -2.648   0.653  -1.377  0.00  0.00    +0.166 C 
ATOM      5  H   UNL     1      -0.985   1.758  -1.026  0.00  0.00    +0.163 HD
ATOM      6  H   UNL     1      -4.485   1.525  -1.071  0.00  0.00    +0.159 HD
ATOM      7  H   UNL     1      -3.140   2.538  -0.707  0.00  0.00    +0.159 HD
ATOM      8  H   UNL     1      -2.605  -1.291  -2.057  0.00  0.00    +0.159 HD
ATOM      9  H   UNL     1      -4.182  -0.640  -1.833  0.00  0.00    +0.159 HD
ENDROOT
BRANCH   1  10
ATOM     10  C   UNL     1      -0.332  -0.184  -1.610  0.00  0.00    +0.151 C 
BRANCH  10  11
ATOM     11  C   UNL     1       1.026   0.456  -1.708  0.00  0.00    -0.028 A 
ATOM     12  C   UNL     1       1.448   1.050  -2.907  0.00  0.00    +0.005 A 
ATOM     13  C   UNL     1       1.892   0.477  -0.605  0.00  0.00    +0.005 A 
ATOM     14  C   UNL     1       2.696   1.671  -2.990  0.00  0.00    +0.000 A 
ATOM     15  C   UNL     1       3.139   1.097  -0.692  0.00  0.00    +0.000 A 
ATOM     16  C   UNL     1       3.539   1.696  -1.884  0.00  0.00    +0.000 A 
ENDBRANCH  10  11
ENDBRANCH   1  10
TORSDOF 2
ENDMDL
MODEL 4
REMARK VINA RESULT:    -5.504      2.656      4.673
REMARK INTER + INTRA:          -6.295
REMARK INTER:                  -6.157
REMARK INTRA:                  -0.138
REMARK UNBOUND:                -0.147
REMARK  Name = 1550473
REMARK  2 active torsions:
REMARK  status: ('A' for Active; 'I' for Inactive)
REMARK    1  A    between atoms: N_1  and  C_4
REMARK    2  A    between atoms: C_4  and  C_5
REMARK                            x       y       z     vdW  Elec       q    Type
REMARK                         _______ _______ _______ _____ _____    ______ ____
ROOT
ATOM      1  N   UNL     1       2.388   2.001  -0.633  0.00  0.00    -0.354 N 
ATOM      2  N   UNL     1       3.591   3.961  -0.907  0.00  0.00    -0.372 N 
ATOM      3  N   UNL     1       3.339   2.554  -2.702  0.00  0.00    -0.372 N 
ATOM      4  C   UNL     1       3.099   2.825  -1.415  0.00  0.00    +0.166 C 
ATOM      5  H   UNL     1       2.267   2.249   0.342  0.00  0.00    +0.163 HD
ATOM      6  H   UNL     1       4.129   4.603  -1.473  0.00  0.00    +0.159 HD
ATOM      7  H   UNL     1       3.430   4.228   0.056  0.00  0.00    +0.159 HD
ATOM      8  H   UNL     1       3.000   1.710  -3.144  0.00  0.00    +0.159 HD
ATOM      9  H   UNL     1       3.885   3.179  -3.282  0.00  0.00    +0.159 HD
ENDROOT
BRANCH   1  10
ATOM     10  C   UNL     1       1.762   0.766  -1.102  0.00  0.00    +0.151 C 
BRANCH  10  11
ATOM     11  C   UNL     1       2.019  -0.326  -0.100  0.00  0.00    -0.028 A 
ATOM     12  C   UNL     1       1.753  -1.665  -0.422  0.00  0.00    +0.005 A 
ATOM     13  C   UNL     1       2.533  -0.028   1.172  0.00  0.00    +0.005 A 
ATOM     14  C   UNL     1       2.019  -2.682   0.498  0.00  0.00    +0.000 A 
ATOM     15  C   UNL     1       2.797  -1.047   2.087  0.00  0.00    +0.000 A 
ATOM     16  C   UNL     1       2.542  -2.374   1.749  0.00  0.00    +0.000 A 
ENDBRANCH  10  11
ENDBRANCH   1  10
TORSDOF 2
ENDMDL
MODEL 5
REMARK VINA RESULT:    -5.369      2.674      4.001
REMARK INTER + INTRA:          -6.145
REMARK INTER:                  -6.036
REMARK INTRA:                  -0.109
REMARK UNBOUND:                -0.147
REMARK  Name = 1550473
REMARK  2 active torsions:
REMARK  status: ('A' for Active; 'I' for Inactive)
REMARK    1  A    between atoms: N_1  and  C_4
REMARK    2  A    between atoms: C_4  and  C_5
REMARK                            x       y       z     vdW  Elec       q    Type
REMARK                         _______ _______ _______ _____ _____    ______ ____
ROOT
ATOM      1  N   UNL     1       2.037   2.464  -1.317  0.00  0.00    -0.354 N 
ATOM      2  N   UNL     1       1.663   4.734  -1.581  0.00  0.00    -0.372 N 
ATOM      3  N   UNL     1       3.746   4.022  -0.934  0.00  0.00    -0.372 N 
ATOM      4  C   UNL     1       2.487   3.725  -1.275  0.00  0.00    +0.166 C 
ATOM      5  H   UNL     1       1.064   2.308  -1.554  0.00  0.00    +0.163 HD
ATOM      6  H   UNL     1       1.975   5.696  -1.562  0.00  0.00    +0.159 HD
ATOM      7  H   UNL     1       0.704   4.572  -1.862  0.00  0.00    +0.159 HD
ATOM      8  H   UNL     1       4.416   3.306  -0.685  0.00  0.00    +0.159 HD
ATOM      9  H   UNL     1       4.073   4.979  -0.897  0.00  0.00    +0.159 HD
ENDROOT
BRANCH   1  10
ATOM     10  C   UNL     1       2.868   1.291  -1.053  0.00  0.00    +0.151 C 
BRANCH  10  11
ATOM     11  C   UNL     1       2.007   0.058  -1.104  0.00  0.00    -0.028 A 
ATOM     12  C   UNL     1       2.149  -0.949  -0.139  0.00  0.00    +0.005 A 
ATOM     13  C   UNL     1       1.044  -0.105  -2.111  0.00  0.00    +0.005 A 
ATOM     14  C   UNL     1       1.330  -2.080  -0.168  0.00  0.00    +0.000 A 
ATOM     15  C   UNL     1       0.228  -1.236  -2.137  0.00  0.00    +0.000 A 
ATOM     16  C   UNL     1       0.370  -2.222  -1.164  0.00  0.00    +0.000 A 
ENDBRANCH  10  11
ENDBRANCH   1  10
TORSDOF 2
ENDMDL
MODEL 6
REMARK VINA RESULT:    -5.253      1.331      2.542
REMARK INTER + INTRA:          -6.014
REMARK INTER:                  -5.895
REMARK INTRA:                  -0.119
REMARK UNBOUND:                -0.147
REMARK  Name = 1550473
REMARK  2 active torsions:
REMARK  status: ('A' for Active; 'I' for Inactive)
REMARK    1  A    between atoms: N_1  and  C_4
REMARK    2  A    between atoms: C_4  and  C_5
REMARK                            x       y       z     vdW  Elec       q    Type
REMARK                         _______ _______ _______ _____ _____    ______ ____
ROOT
ATOM      1  N   UNL     1       2.501   0.626  -0.534  0.00  0.00    -0.354 N 
ATOM      2  N   UNL     1       2.715  -0.032   1.676  0.00  0.00    -0.372 N 
ATOM      3  N   UNL     1       0.683   0.742   0.941  0.00  0.00    -0.372 N 
ATOM      4  C   UNL     1       1.962   0.450   0.680  0.00  0.00    +0.166 C 
ATOM      5  H   UNL     1       3.484   0.414  -0.660  0.00  0.00    +0.163 HD
ATOM      6  H   UNL     1       2.335  -0.179   2.602  0.00  0.00    +0.159 HD
ATOM      7  H   UNL     1       3.685  -0.286   1.536  0.00  0.00    +0.159 HD
ATOM      8  H   UNL     1       0.064   1.115   0.234  0.00  0.00    +0.159 HD
ATOM      9  H   UNL     1       0.288   0.613   1.864  0.00  0.00    +0.159 HD
ENDROOT
BRANCH   1  10
ATOM     10  C   UNL     1       1.754   1.095  -1.700  0.00  0.00    +0.151 C 
BRANCH  10  11
ATOM     11  C   UNL     1       2.688   1.835  -2.617  0.00  0.00    -0.028 A 
ATOM     12  C   UNL     1       2.765   1.501  -3.977  0.00  0.00    +0.005 A 
ATOM     13  C   UNL     1       3.495   2.876  -2.133  0.00  0.00    +0.005 A 
ATOM     14  C   UNL     1       3.610   2.208  -4.835  0.00  0.00    +0.000 A 
ATOM     15  C   UNL     1       4.339   3.580  -2.992  0.00  0.00    +0.000 A 
ATOM     16  C   UNL     1       4.394   3.247  -4.344  0.00  0.00    +0.000 A 
ENDBRANCH  10  11
ENDBRANCH   1  10
TORSDOF 2
ENDMDL
MODEL 7
REMARK VINA RESULT:    -5.178      3.258      4.426
REMARK INTER + INTRA:          -5.930
REMARK INTER:                  -5.753
REMARK INTRA:                  -0.177
REMARK UNBOUND:                -0.147
REMARK  Name = 1550473
REMARK  2 active torsions:
REMARK  status: ('A' for Active; 'I' for Inactive)
REMARK    1  A    between atoms: N_1  and  C_4
REMARK    2  A    between atoms: C_4  and  C_5
REMARK                            x       y       z     vdW  Elec       q    Type
REMARK                         _______ _______ _______ _____ _____    ______ ____
ROOT
ATOM      1  N   UNL     1       0.826  -0.514   0.130  0.00  0.00    -0.354 N 
ATOM      2  N   UNL     1       1.041  -0.964   2.392  0.00  0.00    -0.372 N 
ATOM      3  N   UNL     1      -0.451   0.644   1.718  0.00  0.00    -0.372 N 
ATOM      4  C   UNL     1       0.469  -0.273   1.399  0.00  0.00    +0.166 C 
ATOM      5  H   UNL     1       1.552  -1.200  -0.043  0.00  0.00    +0.163 HD
ATOM      6  H   UNL     1       0.790  -0.807   3.359  0.00  0.00    +0.159 HD
ATOM      7  H   UNL     1       1.733  -1.682   2.212  0.00  0.00    +0.159 HD
ATOM      8  H   UNL     1      -0.916   1.203   1.016  0.00  0.00    +0.159 HD
ATOM      9  H   UNL     1      -0.708   0.824   2.681  0.00  0.00    +0.159 HD
ENDROOT
BRANCH   1  10
ATOM     10  C   UNL     1       0.225   0.145  -1.028  0.00  0.00    +0.151 C 
BRANCH  10  11
ATOM     11  C   UNL     1      -0.707  -0.816  -1.712  0.00  0.00    -0.028 A 
ATOM     12  C   UNL     1      -0.200  -1.881  -2.471  0.00  0.00    +0.005 A 
ATOM     13  C   UNL     1      -2.098  -0.672  -1.600  0.00  0.00    +0.005 A 
ATOM     14  C   UNL     1      -1.065  -2.792  -3.082  0.00  0.00    +0.000 A 
ATOM     15  C   UNL     1      -2.958  -1.584  -2.212  0.00  0.00    +0.000 A 
ATOM     16  C   UNL     1      -2.441  -2.645  -2.951  0.00  0.00    +0.000 A 
ENDBRANCH  10  11
ENDBRANCH   1  10
TORSDOF 2
ENDMDL
MODEL 8
REMARK VINA RESULT:    -5.128      3.821      4.975
REMARK INTER + INTRA:          -5.874
REMARK INTER:                  -5.706
REMARK INTRA:                  -0.169
REMARK UNBOUND:                -0.147
REMARK  Name = 1550473
REMARK  2 active torsions:
REMARK  status: ('A' for Active; 'I' for Inactive)
REMARK    1  A    between atoms: N_1  and  C_4
REMARK    2  A    between atoms: C_4  and  C_5
REMARK                            x       y       z     vdW  Elec       q    Type
REMARK                         _______ _______ _______ _____ _____    ______ ____
ROOT
ATOM      1  N   UNL     1      -1.413   0.416  -1.329  0.00  0.00    -0.354 N 
ATOM      2  N   UNL     1      -3.547   1.316  -1.306  0.00  0.00    -0.372 N 
ATOM      3  N   UNL     1      -2.734   0.339   0.605  0.00  0.00    -0.372 N 
ATOM      4  C   UNL     1      -2.551   0.683  -0.674  0.00  0.00    +0.166 C 
ATOM      5  H   UNL     1      -1.348   0.676  -2.307  0.00  0.00    +0.163 HD
ATOM      6  H   UNL     1      -4.416   1.534  -0.837  0.00  0.00    +0.159 HD
ATOM      7  H   UNL     1      -3.462   1.616  -2.269  0.00  0.00    +0.159 HD
ATOM      8  H   UNL     1      -2.024  -0.146   1.136  0.00  0.00    +0.159 HD
ATOM      9  H   UNL     1      -3.601   0.539   1.088  0.00  0.00    +0.159 HD
ENDROOT
BRANCH   1  10
ATOM     10  C   UNL     1      -0.248  -0.221  -0.718  0.00  0.00    +0.151 C 
BRANCH  10  11
ATOM     11  C   UNL     1      -0.110  -1.617  -1.260  0.00  0.00    -0.028 A 
ATOM     12  C   UNL     1      -0.368  -2.727  -0.442  0.00  0.00    +0.005 A 
ATOM     13  C   UNL     1       0.273  -1.837  -2.592  0.00  0.00    +0.005 A 
ATOM     14  C   UNL     1      -0.270  -4.023  -0.953  0.00  0.00    +0.000 A 
ATOM     15  C   UNL     1       0.371  -3.133  -3.098  0.00  0.00    +0.000 A 
ATOM     16  C   UNL     1       0.097  -4.225  -2.279  0.00  0.00    +0.000 A 
ENDBRANCH  10  11
ENDBRANCH   1  10
TORSDOF 2
ENDMDL
MODEL 9
REMARK VINA RESULT:    -5.113      2.908      4.386
REMARK INTER + INTRA:          -5.858
REMARK INTER:                  -5.696
REMARK INTRA:                  -0.162
REMARK UNBOUND:                -0.147
REMARK  Name = 1550473
REMARK  2 active torsions:
REMARK  status: ('A' for Active; 'I' for Inactive)
REMARK    1  A    between atoms: N_1  and  C_4
REMARK    2  A    between atoms: C_4  and  C_5
REMARK                            x       y       z     vdW  Elec       q    Type
REMARK                         _______ _______ _______ _____ _____    ______ ____
ROOT
ATOM      1  N   UNL     1      -0.517   0.614  -0.717  0.00  0.00    -0.354 N 
ATOM      2  N   UNL     1      -2.795   0.808  -0.347  0.00  0.00    -0.372 N 
ATOM      3  N   UNL     1      -2.034  -0.855  -1.732  0.00  0.00    -0.372 N 
ATOM      4  C   UNL     1      -1.767   0.185  -0.936  0.00  0.00    +0.166 C 
ATOM      5  H   UNL     1      -0.383   1.427  -0.127  0.00  0.00    +0.163 HD
ATOM      6  H   UNL     1      -3.749   0.505  -0.491  0.00  0.00    +0.159 HD
ATOM      7  H   UNL     1      -2.655   1.592   0.279  0.00  0.00    +0.159 HD
ATOM      8  H   UNL     1      -1.303  -1.364  -2.211  0.00  0.00    +0.159 HD
ATOM      9  H   UNL     1      -2.983  -1.166  -1.898  0.00  0.00    +0.159 HD
ENDROOT
BRANCH   1  10
ATOM     10  C   UNL     1       0.676  -0.027  -1.267  0.00  0.00    +0.151 C 
BRANCH  10  11
ATOM     11  C   UNL     1       1.419  -0.718  -0.157  0.00  0.00    -0.028 A 
ATOM     12  C   UNL     1       1.913   0.014   0.932  0.00  0.00    +0.005 A 
ATOM     13  C   UNL     1       1.628  -2.105  -0.186  0.00  0.00    +0.005 A 
ATOM     14  C   UNL     1       2.578  -0.631   1.978  0.00  0.00    +0.000 A 
ATOM     15  C   UNL     1       2.292  -2.746   0.860  0.00  0.00    +0.000 A 
ATOM     16  C   UNL     1       2.765  -2.009   1.943  0.00  0.00    +0.000 A 
ENDBRANCH  10  11
ENDBRANCH   1  10
TORSDOF 2
ENDMDL
