MODEL 1
REMARK VINA RESULT:    -5.955      0.000      0.000
REMARK INTER + INTRA:          -6.774
REMARK INTER:                  -6.651
REMARK INTRA:                  -0.123
REMARK UNBOUND:                -0.123
REMARK  Name = 1550473
REMARK  2 active torsions:
REMARK  status: ('A' for Active; 'I' for Inactive)
REMARK    1  A    between atoms: N_1  and  C_4
REMARK    2  A    between atoms: C_4  and  C_5
REMARK                            x       y       z     vdW  Elec       q    Type
REMARK                         _______ _______ _______ _____ _____    ______ ____
ROOT
ATOM      1  N   UNL     1     -11.255  -7.071  -0.036  0.00  0.00    -0.354 N 
ATOM      2  N   UNL     1     -13.222  -8.263   0.236  0.00  0.00    -0.372 N 
ATOM      3  N   UNL     1     -12.416  -7.921  -1.885  0.00  0.00    -0.372 N 
ATOM      4  C   UNL     1     -12.285  -7.744  -0.566  0.00  0.00    +0.166 C 
ATOM      5  H   UNL     1     -11.229  -6.945   0.970  0.00  0.00    +0.163 HD
ATOM      6  H   UNL     1     -14.008  -8.779  -0.136  0.00  0.00    +0.159 HD
ATOM      7  H   UNL     1     -13.169  -8.176   1.243  0.00  0.00    +0.159 HD
ATOM      8  H   UNL     1     -11.745  -7.549  -2.545  0.00  0.00    +0.159 HD
ATOM      9  H   UNL     1     -13.202  -8.424  -2.277  0.00  0.00    +0.159 HD
ENDROOT
BRANCH   1  10
ATOM     10  C   UNL     1     -10.153  -6.512  -0.817  0.00  0.00    +0.151 C 
BRANCH  10  11
ATOM     11  C   UNL     1      -9.221  -5.776   0.105  0.00  0.00    -0.028 A 
ATOM     12  C   UNL     1      -9.414  -5.816   1.493  0.00  0.00    +0.005 A 
ATOM     13  C   UNL     1      -8.139  -5.041  -0.404  0.00  0.00    +0.005 A 
ATOM     14  C   UNL     1      -8.531  -5.156   2.352  0.00  0.00    +0.000 A 
ATOM     15  C   UNL     1      -7.260  -4.383   0.456  0.00  0.00    +0.000 A 
ATOM     16  C   UNL     1      -7.455  -4.443   1.834  0.00  0.00    +0.000 A 
ENDBRANCH  10  11
ENDBRANCH   1  10
TORSDOF 2
ENDMDL
MODEL 2
REMARK VINA RESULT:    -5.765     16.913     18.682
REMARK INTER + INTRA:          -6.562
REMARK INTER:                  -6.441
REMARK INTRA:                  -0.121
REMARK UNBOUND:                -0.123
REMARK  Name = 1550473
REMARK  2 active torsions:
REMARK  status: ('A' for Active; 'I' for Inactive)
REMARK    1  A    between atoms: N_1  and  C_4
REMARK    2  A    between atoms: C_4  and  C_5
REMARK                            x       y       z     vdW  Elec       q    Type
REMARK                         _______ _______ _______ _____ _____    ______ ____
ROOT
ATOM      1  N   UNL     1       0.049   9.739   0.939  0.00  0.00    -0.354 N 
ATOM      2  N   UNL     1      -0.505  10.691   2.977  0.00  0.00    -0.372 N 
ATOM      3  N   UNL     1       1.055  11.732   1.654  0.00  0.00    -0.372 N 
ATOM      4  C   UNL     1       0.205  10.716   1.843  0.00  0.00    +0.166 C 
ATOM      5  H   UNL     1      -0.588   8.981   1.155  0.00  0.00    +0.163 HD
ATOM      6  H   UNL     1      -0.411  11.416   3.675  0.00  0.00    +0.159 HD
ATOM      7  H   UNL     1      -1.175   9.956   3.169  0.00  0.00    +0.159 HD
ATOM      8  H   UNL     1       1.624  11.806   0.822  0.00  0.00    +0.159 HD
ATOM      9  H   UNL     1       1.171  12.461   2.347  0.00  0.00    +0.159 HD
ENDROOT
BRANCH   1  10
ATOM     10  C   UNL     1       0.735   9.702  -0.351  0.00  0.00    +0.151 C 
BRANCH  10  11
ATOM     11  C   UNL     1       0.668   8.304  -0.903  0.00  0.00    -0.028 A 
ATOM     12  C   UNL     1       1.569   7.886  -1.893  0.00  0.00    +0.005 A 
ATOM     13  C   UNL     1      -0.290   7.392  -0.435  0.00  0.00    +0.005 A 
ATOM     14  C   UNL     1       1.527   6.579  -2.384  0.00  0.00    +0.000 A 
ATOM     15  C   UNL     1      -0.329   6.088  -0.928  0.00  0.00    +0.000 A 
ATOM     16  C   UNL     1       0.581   5.681  -1.901  0.00  0.00    +0.000 A 
ENDBRANCH  10  11
ENDBRANCH   1  10
TORSDOF 2
ENDMDL
MODEL 3
REMARK VINA RESULT:    -5.697     16.916     18.400
REMARK INTER + INTRA:          -6.486
REMARK INTER:                  -6.380
REMARK INTRA:                  -0.106
REMARK UNBOUND:                -0.123
REMARK  Name = 1550473
REMARK  2 active torsions:
REMARK  status: ('A' for Active; 'I' for Inactive)
REMARK    1  A    between atoms: N_1  and  C_4
REMARK    2  A    between atoms: C_4  and  C_5
REMARK                            x       y       z     vdW  Elec       q    Type
REMARK                         _______ _______ _______ _____ _____    ______ ____
ROOT
ATOM      1  N   UNL     1      -0.245   9.545   1.425  0.00  0.00    -0.354 N 
ATOM      2  N   UNL     1       0.289  11.014   3.134  0.00  0.00    -0.372 N 
ATOM      3  N   UNL     1      -1.317  11.620   1.611  0.00  0.00    -0.372 N 
ATOM      4  C   UNL     1      -0.430  10.718   2.044  0.00  0.00    +0.166 C 
ATOM      5  H   UNL     1       0.465   8.917   1.786  0.00  0.00    +0.163 HD
ATOM      6  H   UNL     1       0.168  11.890   3.625  0.00  0.00    +0.159 HD
ATOM      7  H   UNL     1       0.965  10.366   3.519  0.00  0.00    +0.159 HD
ATOM      8  H   UNL     1      -1.886  11.460   0.791  0.00  0.00    +0.159 HD
ATOM      9  H   UNL     1      -1.444  12.508   2.082  0.00  0.00    +0.159 HD
ENDROOT
BRANCH   1  10
ATOM     10  C   UNL     1      -1.013   9.103   0.263  0.00  0.00    +0.151 C 
BRANCH  10  11
ATOM     11  C   UNL     1      -0.196   8.112  -0.519  0.00  0.00    -0.028 A 
ATOM     12  C   UNL     1      -0.558   6.758  -0.550  0.00  0.00    +0.005 A 
ATOM     13  C   UNL     1       0.939   8.523  -1.235  0.00  0.00    +0.005 A 
ATOM     14  C   UNL     1       0.183   5.842  -1.301  0.00  0.00    +0.000 A 
ATOM     15  C   UNL     1       1.677   7.605  -1.983  0.00  0.00    +0.000 A 
ATOM     16  C   UNL     1       1.298   6.266  -2.017  0.00  0.00    +0.000 A 
ENDBRANCH  10  11
ENDBRANCH   1  10
TORSDOF 2
ENDMDL
MODEL 4
REMARK VINA RESULT:    -5.686      5.162      7.533
REMARK INTER + INTRA:          -6.474
REMARK INTER:                  -6.353
REMARK INTRA:                  -0.121
REMARK UNBOUND:                -0.123
REMARK  Name = 1550473
REMARK  2 active torsions:
REMARK  status: ('A' for Active; 'I' for Inactive)
REMARK    1  A    between atoms: N_1  and  C_4
REMARK    2  A    between atoms: C_4  and  C_5
REMARK                            x       y       z     vdW  Elec       q    Type
REMARK                         _______ _______ _______ _____ _____    ______ ____
ROOT
ATOM      1  N   UNL     1     -11.246  -7.581  -3.551  0.00  0.00    -0.354 N 
ATOM      2  N   UNL     1      -9.496  -7.412  -2.044  0.00  0.00    -0.372 N 
ATOM      3  N   UNL     1     -11.108  -9.008  -1.698  0.00  0.00    -0.372 N 
ATOM      4  C   UNL     1     -10.629  -8.003  -2.440  0.00  0.00    +0.166 C 
ATOM      5  H   UNL     1     -10.849  -6.794  -4.053  0.00  0.00    +0.163 HD
ATOM      6  H   UNL     1      -9.006  -7.711  -1.211  0.00  0.00    +0.159 HD
ATOM      7  H   UNL     1      -9.076  -6.657  -2.572  0.00  0.00    +0.159 HD
ATOM      8  H   UNL     1     -11.962  -9.492  -1.939  0.00  0.00    +0.159 HD
ATOM      9  H   UNL     1     -10.639  -9.314  -0.855  0.00  0.00    +0.159 HD
ENDROOT
BRANCH   1  10
ATOM     10  C   UNL     1     -12.456  -8.192  -4.098  0.00  0.00    +0.151 C 
BRANCH  10  11
ATOM     11  C   UNL     1     -12.237  -8.500  -5.553  0.00  0.00    -0.028 A 
ATOM     12  C   UNL     1     -12.079  -9.825  -5.985  0.00  0.00    +0.005 A 
ATOM     13  C   UNL     1     -12.191  -7.471  -6.507  0.00  0.00    +0.005 A 
ATOM     14  C   UNL     1     -11.905 -10.114  -7.340  0.00  0.00    +0.000 A 
ATOM     15  C   UNL     1     -12.017  -7.764  -7.859  0.00  0.00    +0.000 A 
ATOM     16  C   UNL     1     -11.876  -9.086  -8.276  0.00  0.00    +0.000 A 
ENDBRANCH  10  11
ENDBRANCH   1  10
TORSDOF 2
ENDMDL
MODEL 5
REMARK VINA RESULT:    -5.678     10.195     11.791
REMARK INTER + INTRA:          -6.465
REMARK INTER:                  -6.328
REMARK INTRA:                  -0.138
REMARK UNBOUND:                -0.123
REMARK  Name = 1550473
REMARK  2 active torsions:
REMARK  status: ('A' for Active; 'I' for Inactive)
REMARK    1  A    between atoms: N_1  and  C_4
REMARK    2  A    between atoms: C_4  and  C_5
REMARK                            x       y       z     vdW  Elec       q    Type
REMARK                         _______ _______ _______ _____ _____    ______ ____
ROOT
ATOM      1  N   UNL     1     -10.293  -8.957  -9.141  0.00  0.00    -0.354 N 
ATOM      2  N   UNL     1     -11.991 -10.048  -8.005  0.00  0.00    -0.372 N 
ATOM      3  N   UNL     1     -12.014  -7.755  -8.099  0.00  0.00    -0.372 N 
ATOM      4  C   UNL     1     -11.422  -8.910  -8.422  0.00  0.00    +0.166 C 
ATOM      5  H   UNL     1      -9.878  -9.863  -9.327  0.00  0.00    +0.163 HD
ATOM      6  H   UNL     1     -12.845 -10.044  -7.464  0.00  0.00    +0.159 HD
ATOM      7  H   UNL     1     -11.599 -10.954  -8.231  0.00  0.00    +0.159 HD
ATOM      8  H   UNL     1     -11.632  -6.861  -8.379  0.00  0.00    +0.159 HD
ATOM      9  H   UNL     1     -12.862  -7.730  -7.548  0.00  0.00    +0.159 HD
ENDROOT
BRANCH   1  10
ATOM     10  C   UNL     1      -9.623  -7.779  -9.689  0.00  0.00    +0.151 C 
BRANCH  10  11
ATOM     11  C   UNL     1      -9.438  -7.963 -11.170  0.00  0.00    -0.028 A 
ATOM     12  C   UNL     1      -9.202  -9.238 -11.705  0.00  0.00    +0.005 A 
ATOM     13  C   UNL     1      -9.503  -6.868 -12.045  0.00  0.00    +0.005 A 
ATOM     14  C   UNL     1      -9.060  -9.414 -13.084  0.00  0.00    +0.000 A 
ATOM     15  C   UNL     1      -9.360  -7.048 -13.421  0.00  0.00    +0.000 A 
ATOM     16  C   UNL     1      -9.141  -8.321 -13.940  0.00  0.00    +0.000 A 
ENDBRANCH  10  11
ENDBRANCH   1  10
TORSDOF 2
ENDMDL
MODEL 6
REMARK VINA RESULT:    -5.621     17.317     18.906
REMARK INTER + INTRA:          -6.401
REMARK INTER:                  -6.277
REMARK INTRA:                  -0.124
REMARK UNBOUND:                -0.123
REMARK  Name = 1550473
REMARK  2 active torsions:
REMARK  status: ('A' for Active; 'I' for Inactive)
REMARK    1  A    between atoms: N_1  and  C_4
REMARK    2  A    between atoms: C_4  and  C_5
REMARK                            x       y       z     vdW  Elec       q    Type
REMARK                         _______ _______ _______ _____ _____    ______ ____
ROOT
ATOM      1  N   UNL     1       0.567  10.684  -1.557  0.00  0.00    -0.354 N 
ATOM      2  N   UNL     1      -0.556  12.497  -2.460  0.00  0.00    -0.372 N 
ATOM      3  N   UNL     1      -0.956  11.921  -0.275  0.00  0.00    -0.372 N 
ATOM      4  C   UNL     1      -0.309  11.689  -1.422  0.00  0.00    +0.166 C 
ATOM      5  H   UNL     1       1.002  10.543  -2.461  0.00  0.00    +0.163 HD
ATOM      6  H   UNL     1      -1.210  13.266  -2.387  0.00  0.00    +0.159 HD
ATOM      7  H   UNL     1      -0.086  12.382  -3.349  0.00  0.00    +0.159 HD
ATOM      8  H   UNL     1      -0.819  11.344   0.543  0.00  0.00    +0.159 HD
ATOM      9  H   UNL     1      -1.623  12.678  -0.186  0.00  0.00    +0.159 HD
ENDROOT
BRANCH   1  10
ATOM     10  C   UNL     1       0.947   9.780  -0.473  0.00  0.00    +0.151 C 
BRANCH  10  11
ATOM     11  C   UNL     1       0.767   8.360  -0.932  0.00  0.00    -0.028 A 
ATOM     12  C   UNL     1       1.596   7.822  -1.927  0.00  0.00    +0.005 A 
ATOM     13  C   UNL     1      -0.228   7.544  -0.371  0.00  0.00    +0.005 A 
ATOM     14  C   UNL     1       1.448   6.494  -2.333  0.00  0.00    +0.000 A 
ATOM     15  C   UNL     1      -0.373   6.218  -0.779  0.00  0.00    +0.000 A 
ATOM     16  C   UNL     1       0.467   5.693  -1.758  0.00  0.00    +0.000 A 
ENDBRANCH  10  11
ENDBRANCH   1  10
TORSDOF 2
ENDMDL
MODEL 7
REMARK VINA RESULT:    -5.586     21.546     22.908
REMARK INTER + INTRA:          -6.362
REMARK INTER:                  -6.189
REMARK INTRA:                  -0.173
REMARK UNBOUND:                -0.123
REMARK  Name = 1550473
REMARK  2 active torsions:
REMARK  status: ('A' for Active; 'I' for Inactive)
REMARK    1  A    between atoms: N_1  and  C_4
REMARK    2  A    between atoms: C_4  and  C_5
REMARK                            x       y       z     vdW  Elec       q    Type
REMARK                         _______ _______ _______ _____ _____    ______ ____
ROOT
ATOM      1  N   UNL     1       2.616  -1.898 -15.973  0.00  0.00    -0.354 N 
ATOM      2  N   UNL     1       3.390  -0.024 -14.855  0.00  0.00    -0.372 N 
ATOM      3  N   UNL     1       4.911  -1.465 -15.789  0.00  0.00    -0.372 N 
ATOM      4  C   UNL     1       3.636  -1.143 -15.547  0.00  0.00    +0.166 C 
ATOM      5  H   UNL     1       1.673  -1.615 -15.731  0.00  0.00    +0.163 HD
ATOM      6  H   UNL     1       4.140   0.568 -14.524  0.00  0.00    +0.159 HD
ATOM      7  H   UNL     1       2.445   0.282 -14.654  0.00  0.00    +0.159 HD
ATOM      8  H   UNL     1       5.165  -2.300 -16.301  0.00  0.00    +0.159 HD
ATOM      9  H   UNL     1       5.676  -0.892 -15.455  0.00  0.00    +0.159 HD
ENDROOT
BRANCH   1  10
ATOM     10  C   UNL     1       2.774  -3.107 -16.780  0.00  0.00    +0.151 C 
BRANCH  10  11
ATOM     11  C   UNL     1       2.355  -2.812 -18.194  0.00  0.00    -0.028 A 
ATOM     12  C   UNL     1       3.268  -2.264 -19.108  0.00  0.00    +0.005 A 
ATOM     13  C   UNL     1       1.048  -3.083 -18.628  0.00  0.00    +0.005 A 
ATOM     14  C   UNL     1       2.887  -2.018 -20.429  0.00  0.00    +0.000 A 
ATOM     15  C   UNL     1       0.672  -2.835 -19.948  0.00  0.00    +0.000 A 
ATOM     16  C   UNL     1       1.593  -2.305 -20.849  0.00  0.00    +0.000 A 
ENDBRANCH  10  11
ENDBRANCH   1  10
TORSDOF 2
ENDMDL
MODEL 8
REMARK VINA RESULT:    -5.481     20.352     21.695
REMARK INTER + INTRA:          -6.245
REMARK INTER:                  -6.132
REMARK INTRA:                  -0.114
REMARK UNBOUND:                -0.123
REMARK  Name = 1550473
REMARK  2 active torsions:
REMARK  status: ('A' for Active; 'I' for Inactive)
REMARK    1  A    between atoms: N_1  and  C_4
REMARK    2  A    between atoms: C_4  and  C_5
REMARK                            x       y       z     vdW  Elec       q    Type
REMARK                         _______ _______ _______ _____ _____    ______ ____
ROOT
ATOM      1  N   UNL     1       2.112  -1.449 -15.758  0.00  0.00    -0.354 N 
ATOM      2  N   UNL     1       2.946   0.231 -14.399  0.00  0.00    -0.372 N 
ATOM      3  N   UNL     1       1.067  -0.905 -13.732  0.00  0.00    -0.372 N 
ATOM      4  C   UNL     1       2.034  -0.720 -14.637  0.00  0.00    +0.166 C 
ATOM      5  H   UNL     1       2.852  -1.239 -16.419  0.00  0.00    +0.163 HD
ATOM      6  H   UNL     1       2.915   0.795 -13.560  0.00  0.00    +0.159 HD
ATOM      7  H   UNL     1       3.711   0.408 -15.039  0.00  0.00    +0.159 HD
ATOM      8  H   UNL     1       0.345  -1.602 -13.856  0.00  0.00    +0.159 HD
ATOM      9  H   UNL     1       1.012  -0.343 -12.892  0.00  0.00    +0.159 HD
ENDROOT
BRANCH   1  10
ATOM     10  C   UNL     1       1.201  -2.544 -16.086  0.00  0.00    +0.151 C 
BRANCH  10  11
ATOM     11  C   UNL     1       1.105  -2.671 -17.582  0.00  0.00    -0.028 A 
ATOM     12  C   UNL     1      -0.129  -2.932 -18.196  0.00  0.00    +0.005 A 
ATOM     13  C   UNL     1       2.242  -2.526 -18.390  0.00  0.00    +0.005 A 
ATOM     14  C   UNL     1      -0.224  -3.021 -19.587  0.00  0.00    +0.000 A 
ATOM     15  C   UNL     1       2.143  -2.616 -19.779  0.00  0.00    +0.000 A 
ATOM     16  C   UNL     1       0.910  -2.861 -20.377  0.00  0.00    +0.000 A 
ENDBRANCH  10  11
ENDBRANCH   1  10
TORSDOF 2
ENDMDL
MODEL 9
REMARK VINA RESULT:    -5.393     22.192     23.501
REMARK INTER + INTRA:          -6.147
REMARK INTER:                  -6.022
REMARK INTRA:                  -0.125
REMARK UNBOUND:                -0.123
REMARK  Name = 1550473
REMARK  2 active torsions:
REMARK  status: ('A' for Active; 'I' for Inactive)
REMARK    1  A    between atoms: N_1  and  C_4
REMARK    2  A    between atoms: C_4  and  C_5
REMARK                            x       y       z     vdW  Elec       q    Type
REMARK                         _______ _______ _______ _____ _____    ______ ____
ROOT
ATOM      1  N   UNL     1       2.892  -1.219 -16.332  0.00  0.00    -0.354 N 
ATOM      2  N   UNL     1       1.017  -0.575 -15.134  0.00  0.00    -0.372 N 
ATOM      3  N   UNL     1       3.079   0.165 -14.450  0.00  0.00    -0.372 N 
ATOM      4  C   UNL     1       2.344  -0.546 -15.311  0.00  0.00    +0.166 C 
ATOM      5  H   UNL     1       2.283  -1.764 -16.931  0.00  0.00    +0.163 HD
ATOM      6  H   UNL     1       0.575  -0.074 -14.375  0.00  0.00    +0.159 HD
ATOM      7  H   UNL     1       0.406  -1.083 -15.762  0.00  0.00    +0.159 HD
ATOM      8  H   UNL     1       4.086   0.223 -14.526  0.00  0.00    +0.159 HD
ATOM      9  H   UNL     1       2.656   0.664 -13.678  0.00  0.00    +0.159 HD
ENDROOT
BRANCH   1  10
ATOM     10  C   UNL     1       4.320  -1.210 -16.645  0.00  0.00    +0.151 C 
BRANCH  10  11
ATOM     11  C   UNL     1       4.496  -1.299 -18.135  0.00  0.00    -0.028 A 
ATOM     12  C   UNL     1       3.509  -1.892 -18.935  0.00  0.00    +0.005 A 
ATOM     13  C   UNL     1       5.647  -0.786 -18.755  0.00  0.00    +0.005 A 
ATOM     14  C   UNL     1       3.659  -1.948 -20.323  0.00  0.00    +0.000 A 
ATOM     15  C   UNL     1       5.793  -0.845 -20.140  0.00  0.00    +0.000 A 
ATOM     16  C   UNL     1       4.798  -1.423 -20.924  0.00  0.00    +0.000 A 
ENDBRANCH  10  11
ENDBRANCH   1  10
TORSDOF 2
ENDMDL
