MODEL 1
REMARK VINA RESULT:    -4.909      0.000      0.000
REMARK INTER + INTRA:          -5.595
REMARK INTER:                  -5.483
REMARK INTRA:                  -0.112
REMARK UNBOUND:                -0.112
REMARK  Name = 1550473
REMARK  2 active torsions:
REMARK  status: ('A' for Active; 'I' for Inactive)
REMARK    1  A    between atoms: N_1  and  C_4
REMARK    2  A    between atoms: C_4  and  C_5
REMARK                            x       y       z     vdW  Elec       q    Type
REMARK                         _______ _______ _______ _____ _____    ______ ____
ROOT
ATOM      1  N   UNL     1       7.931  -7.826  -0.256  0.00  0.00    -0.354 N 
ATOM      2  N   UNL     1       9.646  -7.449  -1.765  0.00  0.00    -0.372 N 
ATOM      3  N   UNL     1       9.686  -9.360  -0.496  0.00  0.00    -0.372 N 
ATOM      4  C   UNL     1       9.077  -8.217  -0.828  0.00  0.00    +0.166 C 
ATOM      5  H   UNL     1       7.535  -6.934  -0.530  0.00  0.00    +0.163 HD
ATOM      6  H   UNL     1      10.509  -7.719  -2.217  0.00  0.00    +0.159 HD
ATOM      7  H   UNL     1       9.225  -6.580  -2.070  0.00  0.00    +0.159 HD
ATOM      8  H   UNL     1       9.311  -9.981   0.209  0.00  0.00    +0.159 HD
ATOM      9  H   UNL     1      10.557  -9.642  -0.928  0.00  0.00    +0.159 HD
ENDROOT
BRANCH   1  10
ATOM     10  C   UNL     1       7.202  -8.614   0.736  0.00  0.00    +0.151 C 
BRANCH  10  11
ATOM     11  C   UNL     1       5.738  -8.279   0.652  0.00  0.00    -0.028 A 
ATOM     12  C   UNL     1       5.320  -6.947   0.513  0.00  0.00    +0.005 A 
ATOM     13  C   UNL     1       4.765  -9.288   0.704  0.00  0.00    +0.005 A 
ATOM     14  C   UNL     1       3.962  -6.638   0.404  0.00  0.00    +0.000 A 
ATOM     15  C   UNL     1       3.410  -8.975   0.596  0.00  0.00    +0.000 A 
ATOM     16  C   UNL     1       3.009  -7.650   0.444  0.00  0.00    +0.000 A 
ENDBRANCH  10  11
ENDBRANCH   1  10
TORSDOF 2
ENDMDL
MODEL 2
REMARK VINA RESULT:    -4.905     25.104     25.966
REMARK INTER + INTRA:          -5.590
REMARK INTER:                  -5.463
REMARK INTRA:                  -0.128
REMARK UNBOUND:                -0.112
REMARK  Name = 1550473
REMARK  2 active torsions:
REMARK  status: ('A' for Active; 'I' for Inactive)
REMARK    1  A    between atoms: N_1  and  C_4
REMARK    2  A    between atoms: C_4  and  C_5
REMARK                            x       y       z     vdW  Elec       q    Type
REMARK                         _______ _______ _______ _____ _____    ______ ____
ROOT
ATOM      1  N   UNL     1      -2.895   1.155 -23.623  0.00  0.00    -0.354 N 
ATOM      2  N   UNL     1      -4.586   0.835 -25.174  0.00  0.00    -0.372 N 
ATOM      3  N   UNL     1      -2.506   1.462 -25.914  0.00  0.00    -0.372 N 
ATOM      4  C   UNL     1      -3.316   1.154 -24.895  0.00  0.00    +0.166 C 
ATOM      5  H   UNL     1      -3.566   0.941 -22.894  0.00  0.00    +0.163 HD
ATOM      6  H   UNL     1      -4.931   0.822 -26.124  0.00  0.00    +0.159 HD
ATOM      7  H   UNL     1      -5.242   0.577 -24.447  0.00  0.00    +0.159 HD
ATOM      8  H   UNL     1      -1.538   1.717 -25.770  0.00  0.00    +0.159 HD
ATOM      9  H   UNL     1      -2.836   1.466 -26.871  0.00  0.00    +0.159 HD
ENDROOT
BRANCH   1  10
ATOM     10  C   UNL     1      -1.519   1.435 -23.218  0.00  0.00    +0.151 C 
BRANCH  10  11
ATOM     11  C   UNL     1      -1.073   0.386 -22.237  0.00  0.00    -0.028 A 
ATOM     12  C   UNL     1       0.247  -0.089 -22.253  0.00  0.00    +0.005 A 
ATOM     13  C   UNL     1      -1.964  -0.133 -21.285  0.00  0.00    +0.005 A 
ATOM     14  C   UNL     1       0.670  -1.041 -21.323  0.00  0.00    +0.000 A 
ATOM     15  C   UNL     1      -1.538  -1.085 -20.358  0.00  0.00    +0.000 A 
ATOM     16  C   UNL     1      -0.220  -1.537 -20.376  0.00  0.00    +0.000 A 
ENDBRANCH  10  11
ENDBRANCH   1  10
TORSDOF 2
ENDMDL
MODEL 3
REMARK VINA RESULT:    -4.811     12.157     12.973
REMARK INTER + INTRA:          -5.485
REMARK INTER:                  -5.344
REMARK INTRA:                  -0.140
REMARK UNBOUND:                -0.112
REMARK  Name = 1550473
REMARK  2 active torsions:
REMARK  status: ('A' for Active; 'I' for Inactive)
REMARK    1  A    between atoms: N_1  and  C_4
REMARK    2  A    between atoms: C_4  and  C_5
REMARK                            x       y       z     vdW  Elec       q    Type
REMARK                         _______ _______ _______ _____ _____    ______ ____
ROOT
ATOM      1  N   UNL     1       6.031  -1.716  -9.781  0.00  0.00    -0.354 N 
ATOM      2  N   UNL     1       7.941  -2.930  -9.292  0.00  0.00    -0.372 N 
ATOM      3  N   UNL     1       5.994  -3.435  -8.188  0.00  0.00    -0.372 N 
ATOM      4  C   UNL     1       6.641  -2.687  -9.088  0.00  0.00    +0.166 C 
ATOM      5  H   UNL     1       6.584  -1.164 -10.426  0.00  0.00    +0.163 HD
ATOM      6  H   UNL     1       8.428  -3.659  -8.787  0.00  0.00    +0.159 HD
ATOM      7  H   UNL     1       8.481  -2.408  -9.971  0.00  0.00    +0.159 HD
ATOM      8  H   UNL     1       5.013  -3.298  -7.984  0.00  0.00    +0.159 HD
ATOM      9  H   UNL     1       6.467  -4.161  -7.664  0.00  0.00    +0.159 HD
ENDROOT
BRANCH   1  10
ATOM     10  C   UNL     1       4.606  -1.406  -9.672  0.00  0.00    +0.151 C 
BRANCH  10  11
ATOM     11  C   UNL     1       3.970  -1.542 -11.028  0.00  0.00    -0.028 A 
ATOM     12  C   UNL     1       2.661  -2.030 -11.154  0.00  0.00    +0.005 A 
ATOM     13  C   UNL     1       4.668  -1.179 -12.190  0.00  0.00    +0.005 A 
ATOM     14  C   UNL     1       2.058  -2.129 -12.411  0.00  0.00    +0.000 A 
ATOM     15  C   UNL     1       4.063  -1.280 -13.443  0.00  0.00    +0.000 A 
ATOM     16  C   UNL     1       2.758  -1.752 -13.552  0.00  0.00    +0.000 A 
ENDBRANCH  10  11
ENDBRANCH   1  10
TORSDOF 2
ENDMDL
MODEL 4
REMARK VINA RESULT:    -4.483     24.435     25.518
REMARK INTER + INTRA:          -5.119
REMARK INTER:                  -5.014
REMARK INTRA:                  -0.106
REMARK UNBOUND:                -0.112
REMARK  Name = 1550473
REMARK  2 active torsions:
REMARK  status: ('A' for Active; 'I' for Inactive)
REMARK    1  A    between atoms: N_1  and  C_4
REMARK    2  A    between atoms: C_4  and  C_5
REMARK                            x       y       z     vdW  Elec       q    Type
REMARK                         _______ _______ _______ _____ _____    ______ ____
ROOT
ATOM      1  N   UNL     1       0.181   4.860  19.355  0.00  0.00    -0.354 N 
ATOM      2  N   UNL     1      -0.843   3.972  17.477  0.00  0.00    -0.372 N 
ATOM      3  N   UNL     1       1.412   3.657  17.765  0.00  0.00    -0.372 N 
ATOM      4  C   UNL     1       0.260   4.168  18.211  0.00  0.00    +0.166 C 
ATOM      5  H   UNL     1      -0.716   5.248  19.623  0.00  0.00    +0.163 HD
ATOM      6  H   UNL     1      -0.815   3.451  16.611  0.00  0.00    +0.159 HD
ATOM      7  H   UNL     1      -1.747   4.322  17.770  0.00  0.00    +0.159 HD
ATOM      8  H   UNL     1       2.281   3.774  18.269  0.00  0.00    +0.159 HD
ATOM      9  H   UNL     1       1.462   3.142  16.894  0.00  0.00    +0.159 HD
ENDROOT
BRANCH   1  10
ATOM     10  C   UNL     1       1.312   5.083  20.255  0.00  0.00    +0.151 C 
BRANCH  10  11
ATOM     11  C   UNL     1       1.214   6.469  20.832  0.00  0.00    -0.028 A 
ATOM     12  C   UNL     1       0.138   6.820  21.661  0.00  0.00    +0.005 A 
ATOM     13  C   UNL     1       2.196   7.433  20.558  0.00  0.00    +0.005 A 
ATOM     14  C   UNL     1       0.063   8.097  22.222  0.00  0.00    +0.000 A 
ATOM     15  C   UNL     1       2.116   8.707  21.120  0.00  0.00    +0.000 A 
ATOM     16  C   UNL     1       1.051   9.038  21.953  0.00  0.00    +0.000 A 
ENDBRANCH  10  11
ENDBRANCH   1  10
TORSDOF 2
ENDMDL
MODEL 5
REMARK VINA RESULT:    -4.454     37.148     38.215
REMARK INTER + INTRA:          -5.087
REMARK INTER:                  -4.932
REMARK INTRA:                  -0.155
REMARK UNBOUND:                -0.112
REMARK  Name = 1550473
REMARK  2 active torsions:
REMARK  status: ('A' for Active; 'I' for Inactive)
REMARK    1  A    between atoms: N_1  and  C_4
REMARK    2  A    between atoms: C_4  and  C_5
REMARK                            x       y       z     vdW  Elec       q    Type
REMARK                         _______ _______ _______ _____ _____    ______ ____
ROOT
ATOM      1  N   UNL     1     -15.436  -0.596 -30.512  0.00  0.00    -0.354 N 
ATOM      2  N   UNL     1     -15.869   0.944 -28.836  0.00  0.00    -0.372 N 
ATOM      3  N   UNL     1     -14.023  -0.407 -28.652  0.00  0.00    -0.372 N 
ATOM      4  C   UNL     1     -15.104  -0.031 -29.343  0.00  0.00    +0.166 C 
ATOM      5  H   UNL     1     -16.285  -0.286 -30.972  0.00  0.00    +0.163 HD
ATOM      6  H   UNL     1     -15.641   1.391 -27.958  0.00  0.00    +0.159 HD
ATOM      7  H   UNL     1     -16.691   1.283 -29.321  0.00  0.00    +0.159 HD
ATOM      8  H   UNL     1     -13.408  -1.141 -28.977  0.00  0.00    +0.159 HD
ATOM      9  H   UNL     1     -13.786   0.020 -27.765  0.00  0.00    +0.159 HD
ENDROOT
BRANCH   1  10
ATOM     10  C   UNL     1     -14.642  -1.627 -31.176  0.00  0.00    +0.151 C 
BRANCH  10  11
ATOM     11  C   UNL     1     -15.403  -2.924 -31.154  0.00  0.00    -0.028 A 
ATOM     12  C   UNL     1     -16.695  -3.000 -31.694  0.00  0.00    +0.005 A 
ATOM     13  C   UNL     1     -14.836  -4.081 -30.599  0.00  0.00    +0.005 A 
ATOM     14  C   UNL     1     -17.391  -4.211 -31.701  0.00  0.00    +0.000 A 
ATOM     15  C   UNL     1     -15.535  -5.289 -30.607  0.00  0.00    +0.000 A 
ATOM     16  C   UNL     1     -16.811  -5.354 -31.160  0.00  0.00    +0.000 A 
ENDBRANCH  10  11
ENDBRANCH   1  10
TORSDOF 2
ENDMDL
MODEL 6
REMARK VINA RESULT:    -4.450     15.112     15.945
REMARK INTER + INTRA:          -5.082
REMARK INTER:                  -4.959
REMARK INTRA:                  -0.123
REMARK UNBOUND:                -0.112
REMARK  Name = 1550473
REMARK  2 active torsions:
REMARK  status: ('A' for Active; 'I' for Inactive)
REMARK    1  A    between atoms: N_1  and  C_4
REMARK    2  A    between atoms: C_4  and  C_5
REMARK                            x       y       z     vdW  Elec       q    Type
REMARK                         _______ _______ _______ _____ _____    ______ ____
ROOT
ATOM      1  N   UNL     1       4.060  -1.390 -11.997  0.00  0.00    -0.354 N 
ATOM      2  N   UNL     1       5.238  -2.627 -10.433  0.00  0.00    -0.372 N 
ATOM      3  N   UNL     1       3.412  -1.420  -9.745  0.00  0.00    -0.372 N 
ATOM      4  C   UNL     1       4.227  -1.803 -10.733  0.00  0.00    +0.166 C 
ATOM      5  H   UNL     1       4.730  -1.692 -12.694  0.00  0.00    +0.163 HD
ATOM      6  H   UNL     1       5.387  -2.959  -9.489  0.00  0.00    +0.159 HD
ATOM      7  H   UNL     1       5.879  -2.965 -11.141  0.00  0.00    +0.159 HD
ATOM      8  H   UNL     1       2.634  -0.794  -9.905  0.00  0.00    +0.159 HD
ATOM      9  H   UNL     1       3.552  -1.731  -8.792  0.00  0.00    +0.159 HD
ENDROOT
BRANCH   1  10
ATOM     10  C   UNL     1       2.960  -0.535 -12.439  0.00  0.00    +0.151 C 
BRANCH  10  11
ATOM     11  C   UNL     1       2.908  -0.539 -13.942  0.00  0.00    -0.028 A 
ATOM     12  C   UNL     1       2.212   0.463 -14.633  0.00  0.00    +0.005 A 
ATOM     13  C   UNL     1       3.557  -1.540 -14.681  0.00  0.00    +0.005 A 
ATOM     14  C   UNL     1       2.188   0.476 -16.030  0.00  0.00    +0.000 A 
ATOM     15  C   UNL     1       3.530  -1.524 -16.075  0.00  0.00    +0.000 A 
ATOM     16  C   UNL     1       2.848  -0.514 -16.749  0.00  0.00    +0.000 A 
ENDBRANCH  10  11
ENDBRANCH   1  10
TORSDOF 2
ENDMDL
MODEL 7
REMARK VINA RESULT:    -4.379     33.226     33.778
REMARK INTER + INTRA:          -5.003
REMARK INTER:                  -4.867
REMARK INTRA:                  -0.136
REMARK UNBOUND:                -0.112
REMARK  Name = 1550473
REMARK  2 active torsions:
REMARK  status: ('A' for Active; 'I' for Inactive)
REMARK    1  A    between atoms: N_1  and  C_4
REMARK    2  A    between atoms: C_4  and  C_5
REMARK                            x       y       z     vdW  Elec       q    Type
REMARK                         _______ _______ _______ _____ _____    ______ ____
ROOT
ATOM      1  N   UNL     1      -0.850  -4.552 -31.026  0.00  0.00    -0.354 N 
ATOM      2  N   UNL     1       0.161  -4.328 -28.954  0.00  0.00    -0.372 N 
ATOM      3  N   UNL     1       1.434  -4.995 -30.743  0.00  0.00    -0.372 N 
ATOM      4  C   UNL     1       0.244  -4.628 -30.256  0.00  0.00    +0.166 C 
ATOM      5  H   UNL     1      -1.729  -4.296 -30.590  0.00  0.00    +0.163 HD
ATOM      6  H   UNL     1       0.970  -4.373 -28.349  0.00  0.00    +0.159 HD
ATOM      7  H   UNL     1      -0.709  -4.028 -28.531  0.00  0.00    +0.159 HD
ATOM      8  H   UNL     1       1.562  -5.240 -31.715  0.00  0.00    +0.159 HD
ATOM      9  H   UNL     1       2.253  -5.057 -30.150  0.00  0.00    +0.159 HD
ENDROOT
BRANCH   1  10
ATOM     10  C   UNL     1      -0.855  -4.805 -32.466  0.00  0.00    +0.151 C 
BRANCH  10  11
ATOM     11  C   UNL     1      -1.668  -3.740 -33.149  0.00  0.00    -0.028 A 
ATOM     12  C   UNL     1      -2.575  -4.078 -34.164  0.00  0.00    +0.005 A 
ATOM     13  C   UNL     1      -1.541  -2.392 -32.781  0.00  0.00    +0.005 A 
ATOM     14  C   UNL     1      -3.352  -3.093 -34.778  0.00  0.00    +0.000 A 
ATOM     15  C   UNL     1      -2.318  -1.411 -33.397  0.00  0.00    +0.000 A 
ATOM     16  C   UNL     1      -3.225  -1.762 -34.394  0.00  0.00    +0.000 A 
ENDBRANCH  10  11
ENDBRANCH   1  10
TORSDOF 2
ENDMDL
MODEL 8
REMARK VINA RESULT:    -4.357     24.860     25.709
REMARK INTER + INTRA:          -4.978
REMARK INTER:                  -4.807
REMARK INTRA:                  -0.171
REMARK UNBOUND:                -0.112
REMARK  Name = 1550473
REMARK  2 active torsions:
REMARK  status: ('A' for Active; 'I' for Inactive)
REMARK    1  A    between atoms: N_1  and  C_4
REMARK    2  A    between atoms: C_4  and  C_5
REMARK                            x       y       z     vdW  Elec       q    Type
REMARK                         _______ _______ _______ _____ _____    ______ ____
ROOT
ATOM      1  N   UNL     1      -1.878   1.119 -24.196  0.00  0.00    -0.354 N 
ATOM      2  N   UNL     1      -1.553   0.716 -26.453  0.00  0.00    -0.372 N 
ATOM      3  N   UNL     1       0.024   1.923 -25.304  0.00  0.00    -0.372 N 
ATOM      4  C   UNL     1      -1.136   1.257 -25.302  0.00  0.00    +0.166 C 
ATOM      5  H   UNL     1      -2.762   0.629 -24.267  0.00  0.00    +0.163 HD
ATOM      6  H   UNL     1      -1.012   0.801 -27.303  0.00  0.00    +0.159 HD
ATOM      7  H   UNL     1      -2.415   0.187 -26.512  0.00  0.00    +0.159 HD
ATOM      8  H   UNL     1       0.391   2.360 -24.469  0.00  0.00    +0.159 HD
ATOM      9  H   UNL     1       0.573   2.029 -26.147  0.00  0.00    +0.159 HD
ENDROOT
BRANCH   1  10
ATOM     10  C   UNL     1      -1.488   1.624 -22.881  0.00  0.00    +0.151 C 
BRANCH  10  11
ATOM     11  C   UNL     1      -1.059   0.469 -22.018  0.00  0.00    -0.028 A 
ATOM     12  C   UNL     1      -1.963  -0.127 -21.126  0.00  0.00    +0.005 A 
ATOM     13  C   UNL     1       0.247  -0.038 -22.093  0.00  0.00    +0.005 A 
ATOM     14  C   UNL     1      -1.574  -1.219 -20.347  0.00  0.00    +0.000 A 
ATOM     15  C   UNL     1       0.631  -1.129 -21.312  0.00  0.00    +0.000 A 
ATOM     16  C   UNL     1      -0.280  -1.720 -20.442  0.00  0.00    +0.000 A 
ENDBRANCH  10  11
ENDBRANCH   1  10
TORSDOF 2
ENDMDL
MODEL 9
REMARK VINA RESULT:    -4.301     21.365     22.120
REMARK INTER + INTRA:          -4.915
REMARK INTER:                  -4.780
REMARK INTRA:                  -0.136
REMARK UNBOUND:                -0.112
REMARK  Name = 1550473
REMARK  2 active torsions:
REMARK  status: ('A' for Active; 'I' for Inactive)
REMARK    1  A    between atoms: N_1  and  C_4
REMARK    2  A    between atoms: C_4  and  C_5
REMARK                            x       y       z     vdW  Elec       q    Type
REMARK                         _______ _______ _______ _____ _____    ______ ____
ROOT
ATOM      1  N   UNL     1       2.846   0.448 -20.029  0.00  0.00    -0.354 N 
ATOM      2  N   UNL     1       5.033  -0.315 -20.003  0.00  0.00    -0.372 N 
ATOM      3  N   UNL     1       4.200   0.726 -18.136  0.00  0.00    -0.372 N 
ATOM      4  C   UNL     1       4.012   0.293 -19.387  0.00  0.00    +0.166 C 
ATOM      5  H   UNL     1       2.778   0.124 -20.987  0.00  0.00    +0.163 HD
ATOM      6  H   UNL     1       5.923  -0.450 -19.543  0.00  0.00    +0.159 HD
ATOM      7  H   UNL     1       4.947  -0.679 -20.944  0.00  0.00    +0.159 HD
ATOM      8  H   UNL     1       3.471   1.198 -17.618  0.00  0.00    +0.159 HD
ATOM      9  H   UNL     1       5.087   0.611 -17.662  0.00  0.00    +0.159 HD
ENDROOT
BRANCH   1  10
ATOM     10  C   UNL     1       1.656   1.048 -19.429  0.00  0.00    +0.151 C 
BRANCH  10  11
ATOM     11  C   UNL     1       0.450   0.238 -19.816  0.00  0.00    -0.028 A 
ATOM     12  C   UNL     1      -0.775   0.867 -20.083  0.00  0.00    +0.005 A 
ATOM     13  C   UNL     1       0.526  -1.159 -19.922  0.00  0.00    +0.005 A 
ATOM     14  C   UNL     1      -1.888   0.118 -20.471  0.00  0.00    +0.000 A 
ATOM     15  C   UNL     1      -0.588  -1.904 -20.310  0.00  0.00    +0.000 A 
ATOM     16  C   UNL     1      -1.794  -1.265 -20.586  0.00  0.00    +0.000 A 
ENDBRANCH  10  11
ENDBRANCH   1  10
TORSDOF 2
ENDMDL
