MODEL 1
REMARK VINA RESULT:    -5.338      0.000      0.000
REMARK INTER + INTRA:          -6.076
REMARK INTER:                  -5.962
REMARK INTRA:                  -0.114
REMARK UNBOUND:                -0.114
REMARK  Name = 1550473
REMARK  2 active torsions:
REMARK  status: ('A' for Active; 'I' for Inactive)
REMARK    1  A    between atoms: N_1  and  C_4
REMARK    2  A    between atoms: C_4  and  C_5
REMARK                            x       y       z     vdW  Elec       q    Type
REMARK                         _______ _______ _______ _____ _____    ______ ____
ROOT
ATOM      1  N   UNL     1      -3.932  -2.120 -17.562  0.00  0.00    -0.354 N 
ATOM      2  N   UNL     1      -4.984  -2.281 -19.618  0.00  0.00    -0.372 N 
ATOM      3  N   UNL     1      -6.232  -1.725 -17.775  0.00  0.00    -0.372 N 
ATOM      4  C   UNL     1      -5.045  -2.040 -18.303  0.00  0.00    +0.166 C 
ATOM      5  H   UNL     1      -3.069  -2.393 -18.017  0.00  0.00    +0.163 HD
ATOM      6  H   UNL     1      -5.807  -2.225 -20.204  0.00  0.00    +0.159 HD
ATOM      7  H   UNL     1      -4.112  -2.509 -20.079  0.00  0.00    +0.159 HD
ATOM      8  H   UNL     1      -6.346  -1.538 -16.787  0.00  0.00    +0.159 HD
ATOM      9  H   UNL     1      -7.069  -1.676 -18.342  0.00  0.00    +0.159 HD
ENDROOT
BRANCH   1  10
ATOM     10  C   UNL     1      -3.880  -1.824 -16.131  0.00  0.00    +0.151 C 
BRANCH  10  11
ATOM     11  C   UNL     1      -2.687  -2.514 -15.530  0.00  0.00    -0.028 A 
ATOM     12  C   UNL     1      -1.489  -2.624 -16.252  0.00  0.00    +0.005 A 
ATOM     13  C   UNL     1      -2.745  -3.056 -14.237  0.00  0.00    +0.005 A 
ATOM     14  C   UNL     1      -0.371  -3.239 -15.683  0.00  0.00    +0.000 A 
ATOM     15  C   UNL     1      -1.627  -3.670 -13.672  0.00  0.00    +0.000 A 
ATOM     16  C   UNL     1      -0.439  -3.758 -14.394  0.00  0.00    +0.000 A 
ENDBRANCH  10  11
ENDBRANCH   1  10
TORSDOF 2
ENDMDL
MODEL 2
REMARK VINA RESULT:    -5.268      4.250      5.032
REMARK INTER + INTRA:          -5.998
REMARK INTER:                  -5.839
REMARK INTRA:                  -0.159
REMARK UNBOUND:                -0.114
REMARK  Name = 1550473
REMARK  2 active torsions:
REMARK  status: ('A' for Active; 'I' for Inactive)
REMARK    1  A    between atoms: N_1  and  C_4
REMARK    2  A    between atoms: C_4  and  C_5
REMARK                            x       y       z     vdW  Elec       q    Type
REMARK                         _______ _______ _______ _____ _____    ______ ____
ROOT
ATOM      1  N   UNL     1       0.587   0.978 -13.849  0.00  0.00    -0.354 N 
ATOM      2  N   UNL     1       0.731   2.785 -15.291  0.00  0.00    -0.372 N 
ATOM      3  N   UNL     1      -1.335   1.907 -14.814  0.00  0.00    -0.372 N 
ATOM      4  C   UNL     1      -0.010   1.878 -14.642  0.00  0.00    +0.166 C 
ATOM      5  H   UNL     1       1.598   0.989 -13.784  0.00  0.00    +0.163 HD
ATOM      6  H   UNL     1       0.308   3.478 -15.893  0.00  0.00    +0.159 HD
ATOM      7  H   UNL     1       1.737   2.823 -15.188  0.00  0.00    +0.159 HD
ATOM      8  H   UNL     1      -1.950   1.246 -14.358  0.00  0.00    +0.159 HD
ATOM      9  H   UNL     1      -1.776   2.586 -15.423  0.00  0.00    +0.159 HD
ENDROOT
BRANCH   1  10
ATOM     10  C   UNL     1      -0.132  -0.018 -13.056  0.00  0.00    +0.151 C 
BRANCH  10  11
ATOM     11  C   UNL     1      -0.018  -1.358 -13.730  0.00  0.00    -0.028 A 
ATOM     12  C   UNL     1       1.114  -1.676 -14.494  0.00  0.00    +0.005 A 
ATOM     13  C   UNL     1      -1.036  -2.315 -13.603  0.00  0.00    +0.005 A 
ATOM     14  C   UNL     1       1.235  -2.931 -15.095  0.00  0.00    +0.000 A 
ATOM     15  C   UNL     1      -0.913  -3.567 -14.206  0.00  0.00    +0.000 A 
ATOM     16  C   UNL     1       0.224  -3.875 -14.949  0.00  0.00    +0.000 A 
ENDBRANCH  10  11
ENDBRANCH   1  10
TORSDOF 2
ENDMDL
MODEL 3
REMARK VINA RESULT:    -5.144      4.839      6.085
REMARK INTER + INTRA:          -5.859
REMARK INTER:                  -5.719
REMARK INTRA:                  -0.141
REMARK UNBOUND:                -0.114
REMARK  Name = 1550473
REMARK  2 active torsions:
REMARK  status: ('A' for Active; 'I' for Inactive)
REMARK    1  A    between atoms: N_1  and  C_4
REMARK    2  A    between atoms: C_4  and  C_5
REMARK                            x       y       z     vdW  Elec       q    Type
REMARK                         _______ _______ _______ _____ _____    ______ ____
ROOT
ATOM      1  N   UNL     1       0.568   0.833 -13.786  0.00  0.00    -0.354 N 
ATOM      2  N   UNL     1       2.198   2.458 -13.524  0.00  0.00    -0.372 N 
ATOM      3  N   UNL     1       1.022   1.759 -11.682  0.00  0.00    -0.372 N 
ATOM      4  C   UNL     1       1.251   1.672 -12.997  0.00  0.00    +0.166 C 
ATOM      5  H   UNL     1       0.769   0.837 -14.780  0.00  0.00    +0.163 HD
ATOM      6  H   UNL     1       2.731   3.099 -12.953  0.00  0.00    +0.159 HD
ATOM      7  H   UNL     1       2.427   2.427 -14.510  0.00  0.00    +0.159 HD
ATOM      8  H   UNL     1       0.317   1.197 -11.223  0.00  0.00    +0.159 HD
ATOM      9  H   UNL     1       1.538   2.403 -11.095  0.00  0.00    +0.159 HD
ENDROOT
BRANCH   1  10
ATOM     10  C   UNL     1      -0.445  -0.103 -13.302  0.00  0.00    +0.151 C 
BRANCH  10  11
ATOM     11  C   UNL     1      -0.173  -1.464 -13.881  0.00  0.00    -0.028 A 
ATOM     12  C   UNL     1      -1.133  -2.482 -13.789  0.00  0.00    +0.005 A 
ATOM     13  C   UNL     1       1.042  -1.741 -14.528  0.00  0.00    +0.005 A 
ATOM     14  C   UNL     1      -0.893  -3.738 -14.352  0.00  0.00    +0.000 A 
ATOM     15  C   UNL     1       1.278  -2.996 -15.088  0.00  0.00    +0.000 A 
ATOM     16  C   UNL     1       0.310  -3.993 -15.003  0.00  0.00    +0.000 A 
ENDBRANCH  10  11
ENDBRANCH   1  10
TORSDOF 2
ENDMDL
MODEL 4
REMARK VINA RESULT:    -4.848      4.153      4.971
REMARK INTER + INTRA:          -5.529
REMARK INTER:                  -5.407
REMARK INTRA:                  -0.122
REMARK UNBOUND:                -0.114
REMARK  Name = 1550473
REMARK  2 active torsions:
REMARK  status: ('A' for Active; 'I' for Inactive)
REMARK    1  A    between atoms: N_1  and  C_4
REMARK    2  A    between atoms: C_4  and  C_5
REMARK                            x       y       z     vdW  Elec       q    Type
REMARK                         _______ _______ _______ _____ _____    ______ ____
ROOT
ATOM      1  N   UNL     1      -1.217  -0.210 -14.305  0.00  0.00    -0.354 N 
ATOM      2  N   UNL     1      -1.223   1.990 -15.031  0.00  0.00    -0.372 N 
ATOM      3  N   UNL     1       0.049   1.427 -13.206  0.00  0.00    -0.372 N 
ATOM      4  C   UNL     1      -0.795   1.055 -14.174  0.00  0.00    +0.166 C 
ATOM      5  H   UNL     1      -1.881  -0.422 -15.041  0.00  0.00    +0.163 HD
ATOM      6  H   UNL     1      -0.919   2.951 -14.958  0.00  0.00    +0.159 HD
ATOM      7  H   UNL     1      -1.851   1.766 -15.793  0.00  0.00    +0.159 HD
ATOM      8  H   UNL     1       0.404   0.771 -12.524  0.00  0.00    +0.159 HD
ATOM      9  H   UNL     1       0.356   2.387 -13.110  0.00  0.00    +0.159 HD
ENDROOT
BRANCH   1  10
ATOM     10  C   UNL     1      -0.770  -1.314 -13.458  0.00  0.00    +0.151 C 
BRANCH  10  11
ATOM     11  C   UNL     1       0.190  -2.172 -14.235  0.00  0.00    -0.028 A 
ATOM     12  C   UNL     1      -0.156  -3.483 -14.592  0.00  0.00    +0.005 A 
ATOM     13  C   UNL     1       1.445  -1.677 -14.621  0.00  0.00    +0.005 A 
ATOM     14  C   UNL     1       0.724  -4.270 -15.340  0.00  0.00    +0.000 A 
ATOM     15  C   UNL     1       2.321  -2.466 -15.367  0.00  0.00    +0.000 A 
ATOM     16  C   UNL     1       1.959  -3.762 -15.728  0.00  0.00    +0.000 A 
ENDBRANCH  10  11
ENDBRANCH   1  10
TORSDOF 2
ENDMDL
MODEL 5
REMARK VINA RESULT:    -4.845      1.256      2.001
REMARK INTER + INTRA:          -5.525
REMARK INTER:                  -5.455
REMARK INTRA:                  -0.070
REMARK UNBOUND:                -0.114
REMARK  Name = 1550473
REMARK  2 active torsions:
REMARK  status: ('A' for Active; 'I' for Inactive)
REMARK    1  A    between atoms: N_1  and  C_4
REMARK    2  A    between atoms: C_4  and  C_5
REMARK                            x       y       z     vdW  Elec       q    Type
REMARK                         _______ _______ _______ _____ _____    ______ ____
ROOT
ATOM      1  N   UNL     1      -5.456  -1.298 -18.033  0.00  0.00    -0.354 N 
ATOM      2  N   UNL     1      -7.650  -2.007 -18.250  0.00  0.00    -0.372 N 
ATOM      3  N   UNL     1      -5.976  -3.288 -19.156  0.00  0.00    -0.372 N 
ATOM      4  C   UNL     1      -6.345  -2.195 -18.480  0.00  0.00    +0.166 C 
ATOM      5  H   UNL     1      -5.802  -0.475 -17.553  0.00  0.00    +0.163 HD
ATOM      6  H   UNL     1      -8.344  -2.668 -18.572  0.00  0.00    +0.159 HD
ATOM      7  H   UNL     1      -7.990  -1.207 -17.730  0.00  0.00    +0.159 HD
ATOM      8  H   UNL     1      -5.007  -3.485 -19.367  0.00  0.00    +0.159 HD
ATOM      9  H   UNL     1      -6.657  -3.955 -19.497  0.00  0.00    +0.159 HD
ENDROOT
BRANCH   1  10
ATOM     10  C   UNL     1      -4.009  -1.437 -18.183  0.00  0.00    +0.151 C 
BRANCH  10  11
ATOM     11  C   UNL     1      -3.426  -1.938 -16.891  0.00  0.00    -0.028 A 
ATOM     12  C   UNL     1      -2.062  -2.249 -16.798  0.00  0.00    +0.005 A 
ATOM     13  C   UNL     1      -4.232  -2.098 -15.753  0.00  0.00    +0.005 A 
ATOM     14  C   UNL     1      -1.514  -2.686 -15.590  0.00  0.00    +0.000 A 
ATOM     15  C   UNL     1      -3.682  -2.535 -14.548  0.00  0.00    +0.000 A 
ATOM     16  C   UNL     1      -2.322  -2.827 -14.466  0.00  0.00    +0.000 A 
ENDBRANCH  10  11
ENDBRANCH   1  10
TORSDOF 2
ENDMDL
MODEL 6
REMARK VINA RESULT:    -4.740      5.180      6.713
REMARK INTER + INTRA:          -5.408
REMARK INTER:                  -5.243
REMARK INTRA:                  -0.165
REMARK UNBOUND:                -0.114
REMARK  Name = 1550473
REMARK  2 active torsions:
REMARK  status: ('A' for Active; 'I' for Inactive)
REMARK    1  A    between atoms: N_1  and  C_4
REMARK    2  A    between atoms: C_4  and  C_5
REMARK                            x       y       z     vdW  Elec       q    Type
REMARK                         _______ _______ _______ _____ _____    ______ ____
ROOT
ATOM      1  N   UNL     1       2.405  -5.167 -15.226  0.00  0.00    -0.354 N 
ATOM      2  N   UNL     1       4.415  -5.925 -14.359  0.00  0.00    -0.372 N 
ATOM      3  N   UNL     1       4.446  -4.269 -15.948  0.00  0.00    -0.372 N 
ATOM      4  C   UNL     1       3.743  -5.114 -15.185  0.00  0.00    +0.166 C 
ATOM      5  H   UNL     1       1.933  -5.850 -14.645  0.00  0.00    +0.163 HD
ATOM      6  H   UNL     1       5.424  -5.905 -14.304  0.00  0.00    +0.159 HD
ATOM      7  H   UNL     1       3.938  -6.575 -13.746  0.00  0.00    +0.159 HD
ATOM      8  H   UNL     1       3.999  -3.635 -16.596  0.00  0.00    +0.159 HD
ATOM      9  H   UNL     1       5.457  -4.243 -15.915  0.00  0.00    +0.159 HD
ENDROOT
BRANCH   1  10
ATOM     10  C   UNL     1       1.576  -4.290 -16.051  0.00  0.00    +0.151 C 
BRANCH  10  11
ATOM     11  C   UNL     1       0.787  -3.375 -15.156  0.00  0.00    -0.028 A 
ATOM     12  C   UNL     1      -0.463  -3.772 -14.657  0.00  0.00    +0.005 A 
ATOM     13  C   UNL     1       1.285  -2.113 -14.799  0.00  0.00    +0.005 A 
ATOM     14  C   UNL     1      -1.183  -2.935 -13.802  0.00  0.00    +0.000 A 
ATOM     15  C   UNL     1       0.562  -1.280 -13.945  0.00  0.00    +0.000 A 
ATOM     16  C   UNL     1      -0.671  -1.692 -13.445  0.00  0.00    +0.000 A 
ENDBRANCH  10  11
ENDBRANCH   1  10
TORSDOF 2
ENDMDL
MODEL 7
REMARK VINA RESULT:    -4.721      4.329      5.748
REMARK INTER + INTRA:          -5.386
REMARK INTER:                  -5.247
REMARK INTRA:                  -0.140
REMARK UNBOUND:                -0.114
REMARK  Name = 1550473
REMARK  2 active torsions:
REMARK  status: ('A' for Active; 'I' for Inactive)
REMARK    1  A    between atoms: N_1  and  C_4
REMARK    2  A    between atoms: C_4  and  C_5
REMARK                            x       y       z     vdW  Elec       q    Type
REMARK                         _______ _______ _______ _____ _____    ______ ____
ROOT
ATOM      1  N   UNL     1       1.802  -4.701 -15.583  0.00  0.00    -0.354 N 
ATOM      2  N   UNL     1       3.028  -6.648 -15.316  0.00  0.00    -0.372 N 
ATOM      3  N   UNL     1       2.322  -6.061 -17.419  0.00  0.00    -0.372 N 
ATOM      4  C   UNL     1       2.375  -5.791 -16.111  0.00  0.00    +0.166 C 
ATOM      5  H   UNL     1       1.853  -4.569 -14.579  0.00  0.00    +0.163 HD
ATOM      6  H   UNL     1       3.473  -7.477 -15.686  0.00  0.00    +0.159 HD
ATOM      7  H   UNL     1       3.116  -6.489 -14.320  0.00  0.00    +0.159 HD
ATOM      8  H   UNL     1       1.840  -5.457 -18.071  0.00  0.00    +0.159 HD
ATOM      9  H   UNL     1       2.751  -6.892 -17.807  0.00  0.00    +0.159 HD
ENDROOT
BRANCH   1  10
ATOM     10  C   UNL     1       1.115  -3.677 -16.368  0.00  0.00    +0.151 C 
BRANCH  10  11
ATOM     11  C   UNL     1      -0.203  -3.361 -15.716  0.00  0.00    -0.028 A 
ATOM     12  C   UNL     1      -1.179  -2.625 -16.404  0.00  0.00    +0.005 A 
ATOM     13  C   UNL     1      -0.485  -3.801 -14.414  0.00  0.00    +0.005 A 
ATOM     14  C   UNL     1      -2.415  -2.357 -15.810  0.00  0.00    +0.000 A 
ATOM     15  C   UNL     1      -1.719  -3.530 -13.824  0.00  0.00    +0.000 A 
ATOM     16  C   UNL     1      -2.685  -2.811 -14.523  0.00  0.00    +0.000 A 
ENDBRANCH  10  11
ENDBRANCH   1  10
TORSDOF 2
ENDMDL
MODEL 8
REMARK VINA RESULT:    -4.621     15.393     16.134
REMARK INTER + INTRA:          -5.275
REMARK INTER:                  -5.171
REMARK INTRA:                  -0.103
REMARK UNBOUND:                -0.114
REMARK  Name = 1550473
REMARK  2 active torsions:
REMARK  status: ('A' for Active; 'I' for Inactive)
REMARK    1  A    between atoms: N_1  and  C_4
REMARK    2  A    between atoms: C_4  and  C_5
REMARK                            x       y       z     vdW  Elec       q    Type
REMARK                         _______ _______ _______ _____ _____    ______ ____
ROOT
ATOM      1  N   UNL     1     -11.066 -14.360 -10.738  0.00  0.00    -0.354 N 
ATOM      2  N   UNL     1      -9.602 -13.596  -9.114  0.00  0.00    -0.372 N 
ATOM      3  N   UNL     1     -11.840 -13.135  -8.896  0.00  0.00    -0.372 N 
ATOM      4  C   UNL     1     -10.848 -13.701  -9.592  0.00  0.00    +0.166 C 
ATOM      5  H   UNL     1     -10.268 -14.740 -11.234  0.00  0.00    +0.163 HD
ATOM      6  H   UNL     1      -9.408 -13.107  -8.250  0.00  0.00    +0.159 HD
ATOM      7  H   UNL     1      -8.812 -14.016  -9.588  0.00  0.00    +0.159 HD
ATOM      8  H   UNL     1     -12.801 -13.174  -9.206  0.00  0.00    +0.159 HD
ATOM      9  H   UNL     1     -11.663 -12.632  -8.035  0.00  0.00    +0.159 HD
ENDROOT
BRANCH   1  10
ATOM     10  C   UNL     1     -12.390 -14.578 -11.317  0.00  0.00    +0.151 C 
BRANCH  10  11
ATOM     11  C   UNL     1     -12.234 -15.087 -12.723  0.00  0.00    -0.028 A 
ATOM     12  C   UNL     1     -11.600 -14.303 -13.698  0.00  0.00    +0.005 A 
ATOM     13  C   UNL     1     -12.712 -16.356 -13.086  0.00  0.00    +0.005 A 
ATOM     14  C   UNL     1     -11.428 -14.788 -14.997  0.00  0.00    +0.000 A 
ATOM     15  C   UNL     1     -12.539 -16.836 -14.384  0.00  0.00    +0.000 A 
ATOM     16  C   UNL     1     -11.895 -16.053 -15.338  0.00  0.00    +0.000 A 
ENDBRANCH  10  11
ENDBRANCH   1  10
TORSDOF 2
ENDMDL
MODEL 9
REMARK VINA RESULT:    -4.229     32.871     34.361
REMARK INTER + INTRA:          -4.837
REMARK INTER:                  -4.715
REMARK INTRA:                  -0.122
REMARK UNBOUND:                -0.114
REMARK  Name = 1550473
REMARK  2 active torsions:
REMARK  status: ('A' for Active; 'I' for Inactive)
REMARK    1  A    between atoms: N_1  and  C_4
REMARK    2  A    between atoms: C_4  and  C_5
REMARK                            x       y       z     vdW  Elec       q    Type
REMARK                         _______ _______ _______ _____ _____    ______ ____
ROOT
ATOM      1  N   UNL     1       8.016   8.499  13.615  0.00  0.00    -0.354 N 
ATOM      2  N   UNL     1       7.580   8.726  11.351  0.00  0.00    -0.372 N 
ATOM      3  N   UNL     1       9.099   7.149  12.035  0.00  0.00    -0.372 N 
ATOM      4  C   UNL     1       8.237   8.121  12.348  0.00  0.00    +0.166 C 
ATOM      5  H   UNL     1       7.372   9.263  13.783  0.00  0.00    +0.163 HD
ATOM      6  H   UNL     1       7.723   8.460  10.386  0.00  0.00    +0.159 HD
ATOM      7  H   UNL     1       6.902   9.458  11.526  0.00  0.00    +0.159 HD
ATOM      8  H   UNL     1       9.631   6.657  12.741  0.00  0.00    +0.159 HD
ATOM      9  H   UNL     1       9.265   6.876  11.075  0.00  0.00    +0.159 HD
ENDROOT
BRANCH   1  10
ATOM     10  C   UNL     1       8.639   7.868  14.777  0.00  0.00    +0.151 C 
BRANCH  10  11
ATOM     11  C   UNL     1       7.570   7.234  15.624  0.00  0.00    -0.028 A 
ATOM     12  C   UNL     1       6.235   7.223  15.195  0.00  0.00    +0.005 A 
ATOM     13  C   UNL     1       7.888   6.638  16.854  0.00  0.00    +0.005 A 
ATOM     14  C   UNL     1       5.247   6.608  15.967  0.00  0.00    +0.000 A 
ATOM     15  C   UNL     1       6.898   6.026  17.623  0.00  0.00    +0.000 A 
ATOM     16  C   UNL     1       5.578   6.009  17.178  0.00  0.00    +0.000 A 
ENDBRANCH  10  11
ENDBRANCH   1  10
TORSDOF 2
ENDMDL
