MODEL 1
REMARK VINA RESULT:    -5.060      0.000      0.000
REMARK INTER + INTRA:          -5.748
REMARK INTER:                  -5.651
REMARK INTRA:                  -0.097
REMARK UNBOUND:                -0.097
REMARK  Name = 1550473
REMARK  2 active torsions:
REMARK  status: ('A' for Active; 'I' for Inactive)
REMARK    1  A    between atoms: N_1  and  C_4
REMARK    2  A    between atoms: C_4  and  C_5
REMARK                            x       y       z     vdW  Elec       q    Type
REMARK                         _______ _______ _______ _____ _____    ______ ____
ROOT
ATOM      1  N   UNL     1       6.025  -9.495 -13.354  0.00  0.00    -0.354 N 
ATOM      2  N   UNL     1       8.135  -8.586 -13.061  0.00  0.00    -0.372 N 
ATOM      3  N   UNL     1       7.952 -10.778 -13.716  0.00  0.00    -0.372 N 
ATOM      4  C   UNL     1       7.358  -9.628 -13.379  0.00  0.00    +0.166 C 
ATOM      5  H   UNL     1       5.635  -8.607 -13.061  0.00  0.00    +0.163 HD
ATOM      6  H   UNL     1       9.143  -8.656 -13.074  0.00  0.00    +0.159 HD
ATOM      7  H   UNL     1       7.743  -7.686 -12.813  0.00  0.00    +0.159 HD
ATOM      8  H   UNL     1       7.423 -11.603 -13.961  0.00  0.00    +0.159 HD
ATOM      9  H   UNL     1       8.961 -10.870 -13.724  0.00  0.00    +0.159 HD
ENDROOT
BRANCH   1  10
ATOM     10  C   UNL     1       5.090 -10.553 -13.736  0.00  0.00    +0.151 C 
BRANCH  10  11
ATOM     11  C   UNL     1       3.741  -9.944 -13.999  0.00  0.00    -0.028 A 
ATOM     12  C   UNL     1       3.480  -9.288 -15.211  0.00  0.00    +0.005 A 
ATOM     13  C   UNL     1       2.716 -10.024 -13.044  0.00  0.00    +0.005 A 
ATOM     14  C   UNL     1       2.218  -8.748 -15.469  0.00  0.00    +0.000 A 
ATOM     15  C   UNL     1       1.457  -9.483 -13.304  0.00  0.00    +0.000 A 
ATOM     16  C   UNL     1       1.208  -8.848 -14.518  0.00  0.00    +0.000 A 
ENDBRANCH  10  11
ENDBRANCH   1  10
TORSDOF 2
ENDMDL
MODEL 2
REMARK VINA RESULT:    -4.781      2.790      3.545
REMARK INTER + INTRA:          -5.437
REMARK INTER:                  -5.280
REMARK INTRA:                  -0.157
REMARK UNBOUND:                -0.097
REMARK  Name = 1550473
REMARK  2 active torsions:
REMARK  status: ('A' for Active; 'I' for Inactive)
REMARK    1  A    between atoms: N_1  and  C_4
REMARK    2  A    between atoms: C_4  and  C_5
REMARK                            x       y       z     vdW  Elec       q    Type
REMARK                         _______ _______ _______ _____ _____    ______ ____
ROOT
ATOM      1  N   UNL     1       4.273  -9.314 -17.327  0.00  0.00    -0.354 N 
ATOM      2  N   UNL     1       4.438 -10.834 -19.067  0.00  0.00    -0.372 N 
ATOM      3  N   UNL     1       5.861 -11.037 -17.278  0.00  0.00    -0.372 N 
ATOM      4  C   UNL     1       4.858 -10.386 -17.878  0.00  0.00    +0.166 C 
ATOM      5  H   UNL     1       3.538  -8.847 -17.846  0.00  0.00    +0.163 HD
ATOM      6  H   UNL     1       4.858 -11.642 -19.506  0.00  0.00    +0.159 HD
ATOM      7  H   UNL     1       3.673 -10.393 -19.563  0.00  0.00    +0.159 HD
ATOM      8  H   UNL     1       6.228 -10.746 -16.382  0.00  0.00    +0.159 HD
ATOM      9  H   UNL     1       6.302 -11.841 -17.707  0.00  0.00    +0.159 HD
ENDROOT
BRANCH   1  10
ATOM     10  C   UNL     1       4.619  -8.779 -16.012  0.00  0.00    +0.151 C 
BRANCH  10  11
ATOM     11  C   UNL     1       3.486  -9.043 -15.059  0.00  0.00    -0.028 A 
ATOM     12  C   UNL     1       2.184  -8.624 -15.369  0.00  0.00    +0.005 A 
ATOM     13  C   UNL     1       3.707  -9.718 -13.849  0.00  0.00    +0.005 A 
ATOM     14  C   UNL     1       1.125  -8.896 -14.498  0.00  0.00    +0.000 A 
ATOM     15  C   UNL     1       2.647  -9.987 -12.982  0.00  0.00    +0.000 A 
ATOM     16  C   UNL     1       1.357  -9.578 -13.308  0.00  0.00    +0.000 A 
ENDBRANCH  10  11
ENDBRANCH   1  10
TORSDOF 2
ENDMDL
MODEL 3
REMARK VINA RESULT:    -4.781      2.832      5.073
REMARK INTER + INTRA:          -5.437
REMARK INTER:                  -5.312
REMARK INTRA:                  -0.124
REMARK UNBOUND:                -0.097
REMARK  Name = 1550473
REMARK  2 active torsions:
REMARK  status: ('A' for Active; 'I' for Inactive)
REMARK    1  A    between atoms: N_1  and  C_4
REMARK    2  A    between atoms: C_4  and  C_5
REMARK                            x       y       z     vdW  Elec       q    Type
REMARK                         _______ _______ _______ _____ _____    ______ ____
ROOT
ATOM      1  N   UNL     1       2.875  -9.659 -13.973  0.00  0.00    -0.354 N 
ATOM      2  N   UNL     1       1.161  -8.554 -15.071  0.00  0.00    -0.372 N 
ATOM      3  N   UNL     1       0.738  -9.502 -13.024  0.00  0.00    -0.372 N 
ATOM      4  C   UNL     1       1.601  -9.246 -14.013  0.00  0.00    +0.166 C 
ATOM      5  H   UNL     1       3.471  -9.459 -14.769  0.00  0.00    +0.163 HD
ATOM      6  H   UNL     1       0.206  -8.226 -15.127  0.00  0.00    +0.159 HD
ATOM      7  H   UNL     1       1.771  -8.316 -15.843  0.00  0.00    +0.159 HD
ATOM      8  H   UNL     1       1.007 -10.025 -12.201  0.00  0.00    +0.159 HD
ATOM      9  H   UNL     1      -0.225  -9.192 -13.068  0.00  0.00    +0.159 HD
ENDROOT
BRANCH   1  10
ATOM     10  C   UNL     1       3.469 -10.373 -12.844  0.00  0.00    +0.151 C 
BRANCH  10  11
ATOM     11  C   UNL     1       4.784 -10.962 -13.272  0.00  0.00    -0.028 A 
ATOM     12  C   UNL     1       5.105 -11.076 -14.633  0.00  0.00    +0.005 A 
ATOM     13  C   UNL     1       5.717 -11.404 -12.321  0.00  0.00    +0.005 A 
ATOM     14  C   UNL     1       6.339 -11.595 -15.030  0.00  0.00    +0.000 A 
ATOM     15  C   UNL     1       6.948 -11.923 -12.722  0.00  0.00    +0.000 A 
ATOM     16  C   UNL     1       7.260 -12.016 -14.076  0.00  0.00    +0.000 A 
ENDBRANCH  10  11
ENDBRANCH   1  10
TORSDOF 2
ENDMDL
MODEL 4
REMARK VINA RESULT:    -4.724      3.633      4.534
REMARK INTER + INTRA:          -5.373
REMARK INTER:                  -5.251
REMARK INTRA:                  -0.121
REMARK UNBOUND:                -0.097
REMARK  Name = 1550473
REMARK  2 active torsions:
REMARK  status: ('A' for Active; 'I' for Inactive)
REMARK    1  A    between atoms: N_1  and  C_4
REMARK    2  A    between atoms: C_4  and  C_5
REMARK                            x       y       z     vdW  Elec       q    Type
REMARK                         _______ _______ _______ _____ _____    ______ ____
ROOT
ATOM      1  N   UNL     1       4.222  -7.287 -17.407  0.00  0.00    -0.354 N 
ATOM      2  N   UNL     1       4.283  -5.505 -18.884  0.00  0.00    -0.372 N 
ATOM      3  N   UNL     1       4.507  -7.635 -19.707  0.00  0.00    -0.372 N 
ATOM      4  C   UNL     1       4.337  -6.823 -18.658  0.00  0.00    +0.166 C 
ATOM      5  H   UNL     1       4.125  -6.618 -16.652  0.00  0.00    +0.163 HD
ATOM      6  H   UNL     1       4.363  -5.125 -19.818  0.00  0.00    +0.159 HD
ATOM      7  H   UNL     1       4.140  -4.841 -18.133  0.00  0.00    +0.159 HD
ATOM      8  H   UNL     1       4.562  -8.639 -19.603  0.00  0.00    +0.159 HD
ATOM      9  H   UNL     1       4.601  -7.273 -20.648  0.00  0.00    +0.159 HD
ENDROOT
BRANCH   1  10
ATOM     10  C   UNL     1       4.214  -8.707 -17.059  0.00  0.00    +0.151 C 
BRANCH  10  11
ATOM     11  C   UNL     1       3.279  -8.924 -15.902  0.00  0.00    -0.028 A 
ATOM     12  C   UNL     1       3.742  -9.500 -14.710  0.00  0.00    +0.005 A 
ATOM     13  C   UNL     1       1.929  -8.551 -15.989  0.00  0.00    +0.005 A 
ATOM     14  C   UNL     1       2.881  -9.675 -13.624  0.00  0.00    +0.000 A 
ATOM     15  C   UNL     1       1.072  -8.728 -14.902  0.00  0.00    +0.000 A 
ATOM     16  C   UNL     1       1.549  -9.287 -13.720  0.00  0.00    +0.000 A 
ENDBRANCH  10  11
ENDBRANCH   1  10
TORSDOF 2
ENDMDL
MODEL 5
REMARK VINA RESULT:    -4.656     20.624     22.461
REMARK INTER + INTRA:          -5.297
REMARK INTER:                  -5.187
REMARK INTRA:                  -0.111
REMARK UNBOUND:                -0.097
REMARK  Name = 1550473
REMARK  2 active torsions:
REMARK  status: ('A' for Active; 'I' for Inactive)
REMARK    1  A    between atoms: N_1  and  C_4
REMARK    2  A    between atoms: C_4  and  C_5
REMARK                            x       y       z     vdW  Elec       q    Type
REMARK                         _______ _______ _______ _____ _____    ______ ____
ROOT
ATOM      1  N   UNL     1     -16.343  -9.707  -9.943  0.00  0.00    -0.354 N 
ATOM      2  N   UNL     1     -14.512  -8.290  -9.885  0.00  0.00    -0.372 N 
ATOM      3  N   UNL     1     -14.501 -10.056 -11.349  0.00  0.00    -0.372 N 
ATOM      4  C   UNL     1     -15.130  -9.362 -10.394  0.00  0.00    +0.166 C 
ATOM      5  H   UNL     1     -16.753  -9.157  -9.196  0.00  0.00    +0.163 HD
ATOM      6  H   UNL     1     -13.598  -8.003 -10.208  0.00  0.00    +0.159 HD
ATOM      7  H   UNL     1     -14.944  -7.715  -9.171  0.00  0.00    +0.159 HD
ATOM      8  H   UNL     1     -14.910 -10.879 -11.770  0.00  0.00    +0.159 HD
ATOM      9  H   UNL     1     -13.580  -9.792 -11.677  0.00  0.00    +0.159 HD
ENDROOT
BRANCH   1  10
ATOM     10  C   UNL     1     -17.124 -10.825 -10.469  0.00  0.00    +0.151 C 
BRANCH  10  11
ATOM     11  C   UNL     1     -18.400 -10.297 -11.063  0.00  0.00    -0.028 A 
ATOM     12  C   UNL     1     -19.532 -11.119 -11.164  0.00  0.00    +0.005 A 
ATOM     13  C   UNL     1     -18.486  -8.973 -11.520  0.00  0.00    +0.005 A 
ATOM     14  C   UNL     1     -20.727 -10.620 -11.688  0.00  0.00    +0.000 A 
ATOM     15  C   UNL     1     -19.681  -8.479 -12.044  0.00  0.00    +0.000 A 
ATOM     16  C   UNL     1     -20.801  -9.302 -12.125  0.00  0.00    +0.000 A 
ENDBRANCH  10  11
ENDBRANCH   1  10
TORSDOF 2
ENDMDL
MODEL 6
REMARK VINA RESULT:    -4.641     15.311     16.842
REMARK INTER + INTRA:          -5.281
REMARK INTER:                  -5.161
REMARK INTRA:                  -0.120
REMARK UNBOUND:                -0.097
REMARK  Name = 1550473
REMARK  2 active torsions:
REMARK  status: ('A' for Active; 'I' for Inactive)
REMARK    1  A    between atoms: N_1  and  C_4
REMARK    2  A    between atoms: C_4  and  C_5
REMARK                            x       y       z     vdW  Elec       q    Type
REMARK                         _______ _______ _______ _____ _____    ______ ____
ROOT
ATOM      1  N   UNL     1      -9.730 -14.850 -16.070  0.00  0.00    -0.354 N 
ATOM      2  N   UNL     1      -7.983 -13.340 -16.246  0.00  0.00    -0.372 N 
ATOM      3  N   UNL     1      -7.974 -15.207 -17.579  0.00  0.00    -0.372 N 
ATOM      4  C   UNL     1      -8.573 -14.477 -16.632  0.00  0.00    +0.166 C 
ATOM      5  H   UNL     1     -10.118 -14.268 -15.336  0.00  0.00    +0.163 HD
ATOM      6  H   UNL     1      -7.111 -13.031 -16.654  0.00  0.00    +0.159 HD
ATOM      7  H   UNL     1      -8.396 -12.737 -15.544  0.00  0.00    +0.159 HD
ATOM      8  H   UNL     1      -8.364 -16.079 -17.911  0.00  0.00    +0.159 HD
ATOM      9  H   UNL     1      -7.095 -14.921 -17.992  0.00  0.00    +0.159 HD
ENDROOT
BRANCH   1  10
ATOM     10  C   UNL     1     -10.481 -16.043 -16.457  0.00  0.00    +0.151 C 
BRANCH  10  11
ATOM     11  C   UNL     1     -11.650 -15.632 -17.310  0.00  0.00    -0.028 A 
ATOM     12  C   UNL     1     -11.450 -15.182 -18.623  0.00  0.00    +0.005 A 
ATOM     13  C   UNL     1     -12.960 -15.696 -16.812  0.00  0.00    +0.005 A 
ATOM     14  C   UNL     1     -12.538 -14.829 -19.425  0.00  0.00    +0.000 A 
ATOM     15  C   UNL     1     -14.044 -15.342 -17.616  0.00  0.00    +0.000 A 
ATOM     16  C   UNL     1     -13.832 -14.911 -18.923  0.00  0.00    +0.000 A 
ENDBRANCH  10  11
ENDBRANCH   1  10
TORSDOF 2
ENDMDL
MODEL 7
REMARK VINA RESULT:    -4.471      2.963      3.768
REMARK INTER + INTRA:          -5.090
REMARK INTER:                  -4.913
REMARK INTRA:                  -0.177
REMARK UNBOUND:                -0.097
REMARK  Name = 1550473
REMARK  2 active torsions:
REMARK  status: ('A' for Active; 'I' for Inactive)
REMARK    1  A    between atoms: N_1  and  C_4
REMARK    2  A    between atoms: C_4  and  C_5
REMARK                            x       y       z     vdW  Elec       q    Type
REMARK                         _______ _______ _______ _____ _____    ______ ____
ROOT
ATOM      1  N   UNL     1       3.699  -5.891 -15.154  0.00  0.00    -0.354 N 
ATOM      2  N   UNL     1       4.723  -4.027 -14.236  0.00  0.00    -0.372 N 
ATOM      3  N   UNL     1       6.030  -5.776 -14.941  0.00  0.00    -0.372 N 
ATOM      4  C   UNL     1       4.813  -5.246 -14.783  0.00  0.00    +0.166 C 
ATOM      5  H   UNL     1       2.805  -5.447 -14.980  0.00  0.00    +0.163 HD
ATOM      6  H   UNL     1       5.546  -3.515 -13.950  0.00  0.00    +0.159 HD
ATOM      7  H   UNL     1       3.830  -3.567 -14.106  0.00  0.00    +0.159 HD
ATOM      8  H   UNL     1       6.166  -6.695 -15.342  0.00  0.00    +0.159 HD
ATOM      9  H   UNL     1       6.865  -5.284 -14.650  0.00  0.00    +0.159 HD
ENDROOT
BRANCH   1  10
ATOM     10  C   UNL     1       3.691  -7.199 -15.808  0.00  0.00    +0.151 C 
BRANCH  10  11
ATOM     11  C   UNL     1       3.228  -8.237 -14.824  0.00  0.00    -0.028 A 
ATOM     12  C   UNL     1       4.151  -9.090 -14.201  0.00  0.00    +0.005 A 
ATOM     13  C   UNL     1       1.867  -8.370 -14.506  0.00  0.00    +0.005 A 
ATOM     14  C   UNL     1       3.724 -10.035 -13.265  0.00  0.00    +0.000 A 
ATOM     15  C   UNL     1       1.445  -9.315 -13.572  0.00  0.00    +0.000 A 
ATOM     16  C   UNL     1       2.374 -10.146 -12.949  0.00  0.00    +0.000 A 
ENDBRANCH  10  11
ENDBRANCH   1  10
TORSDOF 2
ENDMDL
MODEL 8
REMARK VINA RESULT:    -4.287     20.456     22.271
REMARK INTER + INTRA:          -4.885
REMARK INTER:                  -4.751
REMARK INTRA:                  -0.135
REMARK UNBOUND:                -0.097
REMARK  Name = 1550473
REMARK  2 active torsions:
REMARK  status: ('A' for Active; 'I' for Inactive)
REMARK    1  A    between atoms: N_1  and  C_4
REMARK    2  A    between atoms: C_4  and  C_5
REMARK                            x       y       z     vdW  Elec       q    Type
REMARK                         _______ _______ _______ _____ _____    ______ ____
ROOT
ATOM      1  N   UNL     1     -16.227  -9.413  -9.763  0.00  0.00    -0.354 N 
ATOM      2  N   UNL     1     -14.619  -8.974 -11.371  0.00  0.00    -0.372 N 
ATOM      3  N   UNL     1     -14.159 -10.515  -9.734  0.00  0.00    -0.372 N 
ATOM      4  C   UNL     1     -15.010  -9.639 -10.277  0.00  0.00    +0.166 C 
ATOM      5  H   UNL     1     -16.814  -8.714 -10.204  0.00  0.00    +0.163 HD
ATOM      6  H   UNL     1     -13.708  -9.126 -11.784  0.00  0.00    +0.159 HD
ATOM      7  H   UNL     1     -15.225  -8.310 -11.836  0.00  0.00    +0.159 HD
ATOM      8  H   UNL     1     -14.391 -11.044  -8.904  0.00  0.00    +0.159 HD
ATOM      9  H   UNL     1     -13.238 -10.672 -10.126  0.00  0.00    +0.159 HD
ENDROOT
BRANCH   1  10
ATOM     10  C   UNL     1     -16.770 -10.123  -8.606  0.00  0.00    +0.151 C 
BRANCH  10  11
ATOM     11  C   UNL     1     -17.848 -11.064  -9.069  0.00  0.00    -0.028 A 
ATOM     12  C   UNL     1     -18.392 -10.945 -10.356  0.00  0.00    +0.005 A 
ATOM     13  C   UNL     1     -18.326 -12.080  -8.227  0.00  0.00    +0.005 A 
ATOM     14  C   UNL     1     -19.372 -11.837 -10.798  0.00  0.00    +0.000 A 
ATOM     15  C   UNL     1     -19.305 -12.968  -8.671  0.00  0.00    +0.000 A 
ATOM     16  C   UNL     1     -19.826 -12.848  -9.957  0.00  0.00    +0.000 A 
ENDBRANCH  10  11
ENDBRANCH   1  10
TORSDOF 2
ENDMDL
MODEL 9
REMARK VINA RESULT:    -4.199     15.392     16.698
REMARK INTER + INTRA:          -4.786
REMARK INTER:                  -4.612
REMARK INTRA:                  -0.174
REMARK UNBOUND:                -0.097
REMARK  Name = 1550473
REMARK  2 active torsions:
REMARK  status: ('A' for Active; 'I' for Inactive)
REMARK    1  A    between atoms: N_1  and  C_4
REMARK    2  A    between atoms: C_4  and  C_5
REMARK                            x       y       z     vdW  Elec       q    Type
REMARK                         _______ _______ _______ _____ _____    ______ ____
ROOT
ATOM      1  N   UNL     1      -2.404 -13.237   0.690  0.00  0.00    -0.354 N 
ATOM      2  N   UNL     1      -2.103 -15.343  -0.226  0.00  0.00    -0.372 N 
ATOM      3  N   UNL     1      -1.831 -13.501  -1.567  0.00  0.00    -0.372 N 
ATOM      4  C   UNL     1      -2.114 -14.012  -0.364  0.00  0.00    +0.166 C 
ATOM      5  H   UNL     1      -2.639 -13.687   1.568  0.00  0.00    +0.163 HD
ATOM      6  H   UNL     1      -1.885 -15.953  -1.002  0.00  0.00    +0.159 HD
ATOM      7  H   UNL     1      -2.294 -15.788   0.664  0.00  0.00    +0.159 HD
ATOM      8  H   UNL     1      -1.829 -12.505  -1.739  0.00  0.00    +0.159 HD
ATOM      9  H   UNL     1      -1.622 -14.096  -2.359  0.00  0.00    +0.159 HD
ENDROOT
BRANCH   1  10
ATOM     10  C   UNL     1      -2.390 -11.776   0.659  0.00  0.00    +0.151 C 
BRANCH  10  11
ATOM     11  C   UNL     1      -1.148 -11.281   1.348  0.00  0.00    -0.028 A 
ATOM     12  C   UNL     1      -0.935 -11.546   2.708  0.00  0.00    +0.005 A 
ATOM     13  C   UNL     1      -0.178 -10.552   0.643  0.00  0.00    +0.005 A 
ATOM     14  C   UNL     1       0.232 -11.112   3.341  0.00  0.00    +0.000 A 
ATOM     15  C   UNL     1       0.986 -10.120   1.279  0.00  0.00    +0.000 A 
ATOM     16  C   UNL     1       1.192 -10.403   2.627  0.00  0.00    +0.000 A 
ENDBRANCH  10  11
ENDBRANCH   1  10
TORSDOF 2
ENDMDL
