MODEL 1
REMARK VINA RESULT:    -6.942      0.000      0.000
REMARK INTER + INTRA:          -7.858
REMARK INTER:                  -7.753
REMARK INTRA:                  -0.105
REMARK UNBOUND:                -0.105
REMARK  Name = 1550473
REMARK  2 active torsions:
REMARK  status: ('A' for Active; 'I' for Inactive)
REMARK    1  A    between atoms: N_1  and  C_4
REMARK    2  A    between atoms: C_4  and  C_5
REMARK                            x       y       z     vdW  Elec       q    Type
REMARK                         _______ _______ _______ _____ _____    ______ ____
ROOT
ATOM      1  N   UNL     1     -14.724   4.535 -14.024  0.00  0.00    -0.354 N 
ATOM      2  N   UNL     1     -16.380   6.018 -14.674  0.00  0.00    -0.372 N 
ATOM      3  N   UNL     1     -14.876   5.280 -16.241  0.00  0.00    -0.372 N 
ATOM      4  C   UNL     1     -15.315   5.268 -14.978  0.00  0.00    +0.166 C 
ATOM      5  H   UNL     1     -15.086   4.593 -13.079  0.00  0.00    +0.163 HD
ATOM      6  H   UNL     1     -16.849   6.579 -15.373  0.00  0.00    +0.159 HD
ATOM      7  H   UNL     1     -16.768   6.038 -13.738  0.00  0.00    +0.159 HD
ATOM      8  H   UNL     1     -14.073   4.740 -16.534  0.00  0.00    +0.159 HD
ATOM      9  H   UNL     1     -15.324   5.843 -16.953  0.00  0.00    +0.159 HD
ENDROOT
BRANCH   1  10
ATOM     10  C   UNL     1     -13.591   3.643 -14.263  0.00  0.00    +0.151 C 
BRANCH  10  11
ATOM     11  C   UNL     1     -13.188   3.003 -12.963  0.00  0.00    -0.028 A 
ATOM     12  C   UNL     1     -14.143   2.366 -12.157  0.00  0.00    +0.005 A 
ATOM     13  C   UNL     1     -11.852   3.024 -12.535  0.00  0.00    +0.005 A 
ATOM     14  C   UNL     1     -13.765   1.745 -10.964  0.00  0.00    +0.000 A 
ATOM     15  C   UNL     1     -11.478   2.403 -11.343  0.00  0.00    +0.000 A 
ATOM     16  C   UNL     1     -12.434   1.762 -10.559  0.00  0.00    +0.000 A 
ENDBRANCH  10  11
ENDBRANCH   1  10
TORSDOF 2
ENDMDL
MODEL 2
REMARK VINA RESULT:    -6.385      1.027      2.153
REMARK INTER + INTRA:          -7.236
REMARK INTER:                  -7.109
REMARK INTRA:                  -0.127
REMARK UNBOUND:                -0.105
REMARK  Name = 1550473
REMARK  2 active torsions:
REMARK  status: ('A' for Active; 'I' for Inactive)
REMARK    1  A    between atoms: N_1  and  C_4
REMARK    2  A    between atoms: C_4  and  C_5
REMARK                            x       y       z     vdW  Elec       q    Type
REMARK                         _______ _______ _______ _____ _____    ______ ____
ROOT
ATOM      1  N   UNL     1     -14.891   4.363 -15.558  0.00  0.00    -0.354 N 
ATOM      2  N   UNL     1     -14.728   6.063 -17.122  0.00  0.00    -0.372 N 
ATOM      3  N   UNL     1     -15.883   6.452 -15.178  0.00  0.00    -0.372 N 
ATOM      4  C   UNL     1     -15.170   5.616 -15.941  0.00  0.00    +0.166 C 
ATOM      5  H   UNL     1     -14.371   3.770 -16.195  0.00  0.00    +0.163 HD
ATOM      6  H   UNL     1     -14.920   7.005 -17.436  0.00  0.00    +0.159 HD
ATOM      7  H   UNL     1     -14.170   5.483 -17.737  0.00  0.00    +0.159 HD
ATOM      8  H   UNL     1     -16.250   6.174 -14.278  0.00  0.00    +0.159 HD
ATOM      9  H   UNL     1     -16.095   7.394 -15.480  0.00  0.00    +0.159 HD
ENDROOT
BRANCH   1  10
ATOM     10  C   UNL     1     -15.279   3.796 -14.268  0.00  0.00    +0.151 C 
BRANCH  10  11
ATOM     11  C   UNL     1     -14.043   3.367 -13.527  0.00  0.00    -0.028 A 
ATOM     12  C   UNL     1     -12.770   3.711 -14.007  0.00  0.00    +0.005 A 
ATOM     13  C   UNL     1     -14.137   2.621 -12.343  0.00  0.00    +0.005 A 
ATOM     14  C   UNL     1     -11.622   3.338 -13.303  0.00  0.00    +0.000 A 
ATOM     15  C   UNL     1     -12.988   2.250 -11.644  0.00  0.00    +0.000 A 
ATOM     16  C   UNL     1     -11.731   2.611 -12.123  0.00  0.00    +0.000 A 
ENDBRANCH  10  11
ENDBRANCH   1  10
TORSDOF 2
ENDMDL
MODEL 3
REMARK VINA RESULT:    -5.990      8.693      9.599
REMARK INTER + INTRA:          -6.795
REMARK INTER:                  -6.645
REMARK INTRA:                  -0.150
REMARK UNBOUND:                -0.105
REMARK  Name = 1550473
REMARK  2 active torsions:
REMARK  status: ('A' for Active; 'I' for Inactive)
REMARK    1  A    between atoms: N_1  and  C_4
REMARK    2  A    between atoms: C_4  and  C_5
REMARK                            x       y       z     vdW  Elec       q    Type
REMARK                         _______ _______ _______ _____ _____    ______ ____
ROOT
ATOM      1  N   UNL     1      -7.479   6.046  -6.522  0.00  0.00    -0.354 N 
ATOM      2  N   UNL     1      -7.811   4.940  -4.514  0.00  0.00    -0.372 N 
ATOM      3  N   UNL     1      -9.521   5.001  -6.042  0.00  0.00    -0.372 N 
ATOM      4  C   UNL     1      -8.271   5.336  -5.707  0.00  0.00    +0.166 C 
ATOM      5  H   UNL     1      -6.552   6.293  -6.197  0.00  0.00    +0.163 HD
ATOM      6  H   UNL     1      -8.384   4.400  -3.880  0.00  0.00    +0.159 HD
ATOM      7  H   UNL     1      -6.867   5.149  -4.211  0.00  0.00    +0.159 HD
ATOM      8  H   UNL     1      -9.930   5.275  -6.926  0.00  0.00    +0.159 HD
ATOM      9  H   UNL     1     -10.114   4.471  -5.416  0.00  0.00    +0.159 HD
ENDROOT
BRANCH   1  10
ATOM     10  C   UNL     1      -7.865   6.480  -7.863  0.00  0.00    +0.151 C 
BRANCH  10  11
ATOM     11  C   UNL     1      -6.894   5.913  -8.862  0.00  0.00    -0.028 A 
ATOM     12  C   UNL     1      -6.771   4.525  -9.027  0.00  0.00    +0.005 A 
ATOM     13  C   UNL     1      -6.098   6.758  -9.650  0.00  0.00    +0.005 A 
ATOM     14  C   UNL     1      -5.891   3.999  -9.975  0.00  0.00    +0.000 A 
ATOM     15  C   UNL     1      -5.220   6.228 -10.595  0.00  0.00    +0.000 A 
ATOM     16  C   UNL     1      -5.119   4.849 -10.759  0.00  0.00    +0.000 A 
ENDBRANCH  10  11
ENDBRANCH   1  10
TORSDOF 2
ENDMDL
MODEL 4
REMARK VINA RESULT:    -5.946      2.984      3.933
REMARK INTER + INTRA:          -6.746
REMARK INTER:                  -6.649
REMARK INTRA:                  -0.097
REMARK UNBOUND:                -0.105
REMARK  Name = 1550473
REMARK  2 active torsions:
REMARK  status: ('A' for Active; 'I' for Inactive)
REMARK    1  A    between atoms: N_1  and  C_4
REMARK    2  A    between atoms: C_4  and  C_5
REMARK                            x       y       z     vdW  Elec       q    Type
REMARK                         _______ _______ _______ _____ _____    ______ ____
ROOT
ATOM      1  N   UNL     1     -16.791   3.275 -11.519  0.00  0.00    -0.354 N 
ATOM      2  N   UNL     1     -18.332   4.001  -9.950  0.00  0.00    -0.372 N 
ATOM      3  N   UNL     1     -18.743   2.052 -11.090  0.00  0.00    -0.372 N 
ATOM      4  C   UNL     1     -17.947   3.103 -10.864  0.00  0.00    +0.166 C 
ATOM      5  H   UNL     1     -16.247   4.108 -11.324  0.00  0.00    +0.163 HD
ATOM      6  H   UNL     1     -19.197   3.896  -9.437  0.00  0.00    +0.159 HD
ATOM      7  H   UNL     1     -17.764   4.809  -9.724  0.00  0.00    +0.159 HD
ATOM      8  H   UNL     1     -18.513   1.342 -11.771  0.00  0.00    +0.159 HD
ATOM      9  H   UNL     1     -19.619   1.936 -10.595  0.00  0.00    +0.159 HD
ENDROOT
BRANCH   1  10
ATOM     10  C   UNL     1     -16.254   2.328 -12.495  0.00  0.00    +0.151 C 
BRANCH  10  11
ATOM     11  C   UNL     1     -14.796   2.621 -12.714  0.00  0.00    -0.028 A 
ATOM     12  C   UNL     1     -14.372   3.303 -13.863  0.00  0.00    +0.005 A 
ATOM     13  C   UNL     1     -13.833   2.225 -11.772  0.00  0.00    +0.005 A 
ATOM     14  C   UNL     1     -13.020   3.603 -14.053  0.00  0.00    +0.000 A 
ATOM     15  C   UNL     1     -12.485   2.525 -11.966  0.00  0.00    +0.000 A 
ATOM     16  C   UNL     1     -12.079   3.216 -13.105  0.00  0.00    +0.000 A 
ENDBRANCH  10  11
ENDBRANCH   1  10
TORSDOF 2
ENDMDL
MODEL 5
REMARK VINA RESULT:    -5.822      7.077      7.679
REMARK INTER + INTRA:          -6.608
REMARK INTER:                  -6.509
REMARK INTRA:                  -0.099
REMARK UNBOUND:                -0.105
REMARK  Name = 1550473
REMARK  2 active torsions:
REMARK  status: ('A' for Active; 'I' for Inactive)
REMARK    1  A    between atoms: N_1  and  C_4
REMARK    2  A    between atoms: C_4  and  C_5
REMARK                            x       y       z     vdW  Elec       q    Type
REMARK                         _______ _______ _______ _____ _____    ______ ____
ROOT
ATOM      1  N   UNL     1     -11.152  10.475 -11.074  0.00  0.00    -0.354 N 
ATOM      2  N   UNL     1     -12.416  11.254 -12.852  0.00  0.00    -0.372 N 
ATOM      3  N   UNL     1     -12.494  12.384 -10.856  0.00  0.00    -0.372 N 
ATOM      4  C   UNL     1     -12.013  11.368 -11.580  0.00  0.00    +0.166 C 
ATOM      5  H   UNL     1     -10.848   9.710 -11.665  0.00  0.00    +0.163 HD
ATOM      6  H   UNL     1     -13.062  11.914 -13.263  0.00  0.00    +0.159 HD
ATOM      7  H   UNL     1     -12.075  10.515 -13.454  0.00  0.00    +0.159 HD
ATOM      8  H   UNL     1     -12.235  12.523  -9.889  0.00  0.00    +0.159 HD
ATOM      9  H   UNL     1     -13.151  13.049 -11.246  0.00  0.00    +0.159 HD
ENDROOT
BRANCH   1  10
ATOM     10  C   UNL     1     -10.610  10.540  -9.717  0.00  0.00    +0.151 C 
BRANCH  10  11
ATOM     11  C   UNL     1     -10.042   9.197  -9.350  0.00  0.00    -0.028 A 
ATOM     12  C   UNL     1      -8.654   9.003  -9.294  0.00  0.00    +0.005 A 
ATOM     13  C   UNL     1     -10.886   8.117  -9.053  0.00  0.00    +0.005 A 
ATOM     14  C   UNL     1      -8.126   7.764  -8.924  0.00  0.00    +0.000 A 
ATOM     15  C   UNL     1     -10.355   6.881  -8.684  0.00  0.00    +0.000 A 
ATOM     16  C   UNL     1      -8.975   6.706  -8.618  0.00  0.00    +0.000 A 
ENDBRANCH  10  11
ENDBRANCH   1  10
TORSDOF 2
ENDMDL
MODEL 6
REMARK VINA RESULT:    -5.687     11.857     12.893
REMARK INTER + INTRA:          -6.456
REMARK INTER:                  -6.312
REMARK INTRA:                  -0.144
REMARK UNBOUND:                -0.105
REMARK  Name = 1550473
REMARK  2 active torsions:
REMARK  status: ('A' for Active; 'I' for Inactive)
REMARK    1  A    between atoms: N_1  and  C_4
REMARK    2  A    between atoms: C_4  and  C_5
REMARK                            x       y       z     vdW  Elec       q    Type
REMARK                         _______ _______ _______ _____ _____    ______ ____
ROOT
ATOM      1  N   UNL     1      -6.767  -4.499  -7.346  0.00  0.00    -0.354 N 
ATOM      2  N   UNL     1      -7.663  -6.318  -6.225  0.00  0.00    -0.372 N 
ATOM      3  N   UNL     1      -5.574  -5.572  -5.638  0.00  0.00    -0.372 N 
ATOM      4  C   UNL     1      -6.660  -5.451  -6.409  0.00  0.00    +0.166 C 
ATOM      5  H   UNL     1      -7.604  -4.480  -7.918  0.00  0.00    +0.163 HD
ATOM      6  H   UNL     1      -7.612  -7.045  -5.524  0.00  0.00    +0.159 HD
ATOM      7  H   UNL     1      -8.517  -6.267  -6.768  0.00  0.00    +0.159 HD
ATOM      8  H   UNL     1      -4.780  -4.953  -5.730  0.00  0.00    +0.159 HD
ATOM      9  H   UNL     1      -5.499  -6.300  -4.938  0.00  0.00    +0.159 HD
ENDROOT
BRANCH   1  10
ATOM     10  C   UNL     1      -5.755  -3.473  -7.589  0.00  0.00    +0.151 C 
BRANCH  10  11
ATOM     11  C   UNL     1      -5.376  -3.492  -9.044  0.00  0.00    -0.028 A 
ATOM     12  C   UNL     1      -6.210  -4.108  -9.989  0.00  0.00    +0.005 A 
ATOM     13  C   UNL     1      -4.188  -2.891  -9.486  0.00  0.00    +0.005 A 
ATOM     14  C   UNL     1      -5.874  -4.099 -11.345  0.00  0.00    +0.000 A 
ATOM     15  C   UNL     1      -3.855  -2.885 -10.840  0.00  0.00    +0.000 A 
ATOM     16  C   UNL     1      -4.700  -3.487 -11.770  0.00  0.00    +0.000 A 
ENDBRANCH  10  11
ENDBRANCH   1  10
TORSDOF 2
ENDMDL
MODEL 7
REMARK VINA RESULT:    -5.551      5.766      6.574
REMARK INTER + INTRA:          -6.305
REMARK INTER:                  -6.201
REMARK INTRA:                  -0.104
REMARK UNBOUND:                -0.105
REMARK  Name = 1550473
REMARK  2 active torsions:
REMARK  status: ('A' for Active; 'I' for Inactive)
REMARK    1  A    between atoms: N_1  and  C_4
REMARK    2  A    between atoms: C_4  and  C_5
REMARK                            x       y       z     vdW  Elec       q    Type
REMARK                         _______ _______ _______ _____ _____    ______ ____
ROOT
ATOM      1  N   UNL     1     -19.477  -0.020 -13.890  0.00  0.00    -0.354 N 
ATOM      2  N   UNL     1     -20.210  -0.796 -15.946  0.00  0.00    -0.372 N 
ATOM      3  N   UNL     1     -20.722  -1.998 -14.060  0.00  0.00    -0.372 N 
ATOM      4  C   UNL     1     -20.132  -0.935 -14.617  0.00  0.00    +0.166 C 
ATOM      5  H   UNL     1     -19.025   0.747 -14.375  0.00  0.00    +0.163 HD
ATOM      6  H   UNL     1     -20.700  -1.468 -16.520  0.00  0.00    +0.159 HD
ATOM      7  H   UNL     1     -19.797  -0.004 -16.423  0.00  0.00    +0.159 HD
ATOM      8  H   UNL     1     -20.695  -2.164 -13.062  0.00  0.00    +0.159 HD
ATOM      9  H   UNL     1     -21.208  -2.688 -14.619  0.00  0.00    +0.159 HD
ENDROOT
BRANCH   1  10
ATOM     10  C   UNL     1     -19.380  -0.050 -12.432  0.00  0.00    +0.151 C 
BRANCH  10  11
ATOM     11  C   UNL     1     -18.578   1.134 -11.968  0.00  0.00    -0.028 A 
ATOM     12  C   UNL     1     -19.073   1.981 -10.965  0.00  0.00    +0.005 A 
ATOM     13  C   UNL     1     -17.319   1.412 -12.523  0.00  0.00    +0.005 A 
ATOM     14  C   UNL     1     -18.315   3.064 -10.513  0.00  0.00    +0.000 A 
ATOM     15  C   UNL     1     -16.566   2.495 -12.070  0.00  0.00    +0.000 A 
ATOM     16  C   UNL     1     -17.063   3.319 -11.063  0.00  0.00    +0.000 A 
ENDBRANCH  10  11
ENDBRANCH   1  10
TORSDOF 2
ENDMDL
MODEL 8
REMARK VINA RESULT:    -5.500      6.332      7.086
REMARK INTER + INTRA:          -6.248
REMARK INTER:                  -6.070
REMARK INTRA:                  -0.178
REMARK UNBOUND:                -0.105
REMARK  Name = 1550473
REMARK  2 active torsions:
REMARK  status: ('A' for Active; 'I' for Inactive)
REMARK    1  A    between atoms: N_1  and  C_4
REMARK    2  A    between atoms: C_4  and  C_5
REMARK                            x       y       z     vdW  Elec       q    Type
REMARK                         _______ _______ _______ _____ _____    ______ ____
ROOT
ATOM      1  N   UNL     1     -10.932   9.011  -9.351  0.00  0.00    -0.354 N 
ATOM      2  N   UNL     1     -11.247  10.052 -11.395  0.00  0.00    -0.372 N 
ATOM      3  N   UNL     1      -9.218  10.264 -10.344  0.00  0.00    -0.372 N 
ATOM      4  C   UNL     1     -10.461   9.770 -10.349  0.00  0.00    +0.166 C 
ATOM      5  H   UNL     1     -11.892   8.692  -9.400  0.00  0.00    +0.163 HD
ATOM      6  H   UNL     1     -10.918  10.620 -12.165  0.00  0.00    +0.159 HD
ATOM      7  H   UNL     1     -12.192   9.694 -11.464  0.00  0.00    +0.159 HD
ATOM      8  H   UNL     1      -8.577  10.092  -9.581  0.00  0.00    +0.159 HD
ATOM      9  H   UNL     1      -8.875  10.843 -11.099  0.00  0.00    +0.159 HD
ENDROOT
BRANCH   1  10
ATOM     10  C   UNL     1     -10.140   8.600  -8.192  0.00  0.00    +0.151 C 
BRANCH  10  11
ATOM     11  C   UNL     1      -9.720   7.167  -8.367  0.00  0.00    -0.028 A 
ATOM     12  C   UNL     1     -10.679   6.144  -8.405  0.00  0.00    +0.005 A 
ATOM     13  C   UNL     1      -8.366   6.825  -8.502  0.00  0.00    +0.005 A 
ATOM     14  C   UNL     1     -10.293   4.815  -8.597  0.00  0.00    +0.000 A 
ATOM     15  C   UNL     1      -7.984   5.497  -8.693  0.00  0.00    +0.000 A 
ATOM     16  C   UNL     1      -8.947   4.493  -8.743  0.00  0.00    +0.000 A 
ENDBRANCH  10  11
ENDBRANCH   1  10
TORSDOF 2
ENDMDL
MODEL 9
REMARK VINA RESULT:    -5.342     11.458     12.549
REMARK INTER + INTRA:          -6.071
REMARK INTER:                  -5.968
REMARK INTRA:                  -0.103
REMARK UNBOUND:                -0.105
REMARK  Name = 1550473
REMARK  2 active torsions:
REMARK  status: ('A' for Active; 'I' for Inactive)
REMARK    1  A    between atoms: N_1  and  C_4
REMARK    2  A    between atoms: C_4  and  C_5
REMARK                            x       y       z     vdW  Elec       q    Type
REMARK                         _______ _______ _______ _____ _____    ______ ____
ROOT
ATOM      1  N   UNL     1      -4.230  -2.707 -10.766  0.00  0.00    -0.354 N 
ATOM      2  N   UNL     1      -2.938  -2.522  -8.853  0.00  0.00    -0.372 N 
ATOM      3  N   UNL     1      -4.869  -3.759  -8.772  0.00  0.00    -0.372 N 
ATOM      4  C   UNL     1      -4.023  -2.998  -9.475  0.00  0.00    +0.166 C 
ATOM      5  H   UNL     1      -3.567  -2.100 -11.235  0.00  0.00    +0.163 HD
ATOM      6  H   UNL     1      -2.754  -2.728  -7.880  0.00  0.00    +0.159 HD
ATOM      7  H   UNL     1      -2.253  -1.954  -9.336  0.00  0.00    +0.159 HD
ATOM      8  H   UNL     1      -5.710  -4.144  -9.182  0.00  0.00    +0.159 HD
ATOM      9  H   UNL     1      -4.708  -3.967  -7.795  0.00  0.00    +0.159 HD
ENDROOT
BRANCH   1  10
ATOM     10  C   UNL     1      -5.352  -3.219 -11.551  0.00  0.00    +0.151 C 
BRANCH  10  11
ATOM     11  C   UNL     1      -4.947  -3.293 -12.997  0.00  0.00    -0.028 A 
ATOM     12  C   UNL     1      -4.488  -2.149 -13.667  0.00  0.00    +0.005 A 
ATOM     13  C   UNL     1      -5.014  -4.504 -13.702  0.00  0.00    +0.005 A 
ATOM     14  C   UNL     1      -4.083  -2.223 -15.002  0.00  0.00    +0.000 A 
ATOM     15  C   UNL     1      -4.610  -4.574 -15.035  0.00  0.00    +0.000 A 
ATOM     16  C   UNL     1      -4.142  -3.434 -15.684  0.00  0.00    +0.000 A 
ENDBRANCH  10  11
ENDBRANCH   1  10
TORSDOF 2
ENDMDL
