MODEL 1
REMARK VINA RESULT:    -5.508      0.000      0.000
REMARK INTER + INTRA:          -6.279
REMARK INTER:                  -6.152
REMARK INTRA:                  -0.127
REMARK UNBOUND:                -0.127
REMARK  Name = 1550473
REMARK  2 active torsions:
REMARK  status: ('A' for Active; 'I' for Inactive)
REMARK    1  A    between atoms: N_1  and  C_4
REMARK    2  A    between atoms: C_4  and  C_5
REMARK                            x       y       z     vdW  Elec       q    Type
REMARK                         _______ _______ _______ _____ _____    ______ ____
ROOT
ATOM      1  N   UNL     1       5.453  21.589  26.956  0.00  0.00    -0.354 N 
ATOM      2  N   UNL     1       3.744  21.625  25.393  0.00  0.00    -0.372 N 
ATOM      3  N   UNL     1       4.338  19.621  26.341  0.00  0.00    -0.372 N 
ATOM      4  C   UNL     1       4.523  20.942  26.240  0.00  0.00    +0.166 C 
ATOM      5  H   UNL     1       5.563  22.586  26.812  0.00  0.00    +0.163 HD
ATOM      6  H   UNL     1       3.031  21.164  24.843  0.00  0.00    +0.159 HD
ATOM      7  H   UNL     1       3.825  22.628  25.285  0.00  0.00    +0.159 HD
ATOM      8  H   UNL     1       4.897  19.047  26.958  0.00  0.00    +0.159 HD
ATOM      9  H   UNL     1       3.638  19.141  25.789  0.00  0.00    +0.159 HD
ENDROOT
BRANCH   1  10
ATOM     10  C   UNL     1       6.316  20.947  27.945  0.00  0.00    +0.151 C 
BRANCH  10  11
ATOM     11  C   UNL     1       6.844  21.992  28.889  0.00  0.00    -0.028 A 
ATOM     12  C   UNL     1       7.765  21.649  29.889  0.00  0.00    +0.005 A 
ATOM     13  C   UNL     1       6.430  23.329  28.785  0.00  0.00    +0.005 A 
ATOM     14  C   UNL     1       8.279  22.625  30.746  0.00  0.00    +0.000 A 
ATOM     15  C   UNL     1       6.944  24.300  29.643  0.00  0.00    +0.000 A 
ATOM     16  C   UNL     1       7.870  23.949  30.622  0.00  0.00    +0.000 A 
ENDBRANCH  10  11
ENDBRANCH   1  10
TORSDOF 2
ENDMDL
MODEL 2
REMARK VINA RESULT:    -5.132      4.362      5.972
REMARK INTER + INTRA:          -5.859
REMARK INTER:                  -5.744
REMARK INTRA:                  -0.115
REMARK UNBOUND:                -0.127
REMARK  Name = 1550473
REMARK  2 active torsions:
REMARK  status: ('A' for Active; 'I' for Inactive)
REMARK    1  A    between atoms: N_1  and  C_4
REMARK    2  A    between atoms: C_4  and  C_5
REMARK                            x       y       z     vdW  Elec       q    Type
REMARK                         _______ _______ _______ _____ _____    ______ ____
ROOT
ATOM      1  N   UNL     1       7.800  22.512  33.113  0.00  0.00    -0.354 N 
ATOM      2  N   UNL     1       7.882  21.393  35.139  0.00  0.00    -0.372 N 
ATOM      3  N   UNL     1       9.728  22.566  34.444  0.00  0.00    -0.372 N 
ATOM      4  C   UNL     1       8.472  22.165  34.219  0.00  0.00    +0.166 C 
ATOM      5  H   UNL     1       6.862  22.151  32.987  0.00  0.00    +0.163 HD
ATOM      6  H   UNL     1       8.363  21.118  35.985  0.00  0.00    +0.159 HD
ATOM      7  H   UNL     1       6.928  21.071  35.032  0.00  0.00    +0.159 HD
ATOM      8  H   UNL     1      10.232  23.145  33.786  0.00  0.00    +0.159 HD
ATOM      9  H   UNL     1      10.230  22.291  35.280  0.00  0.00    +0.159 HD
ENDROOT
BRANCH   1  10
ATOM     10  C   UNL     1       8.333  23.394  32.075  0.00  0.00    +0.151 C 
BRANCH  10  11
ATOM     11  C   UNL     1       7.673  23.063  30.765  0.00  0.00    -0.028 A 
ATOM     12  C   UNL     1       7.749  21.766  30.237  0.00  0.00    +0.005 A 
ATOM     13  C   UNL     1       6.967  24.042  30.048  0.00  0.00    +0.005 A 
ATOM     14  C   UNL     1       7.111  21.451  29.034  0.00  0.00    +0.000 A 
ATOM     15  C   UNL     1       6.333  23.724  28.848  0.00  0.00    +0.000 A 
ATOM     16  C   UNL     1       6.403  22.428  28.342  0.00  0.00    +0.000 A 
ENDBRANCH  10  11
ENDBRANCH   1  10
TORSDOF 2
ENDMDL
MODEL 3
REMARK VINA RESULT:    -4.993      1.101      1.963
REMARK INTER + INTRA:          -5.703
REMARK INTER:                  -5.553
REMARK INTRA:                  -0.150
REMARK UNBOUND:                -0.127
REMARK  Name = 1550473
REMARK  2 active torsions:
REMARK  status: ('A' for Active; 'I' for Inactive)
REMARK    1  A    between atoms: N_1  and  C_4
REMARK    2  A    between atoms: C_4  and  C_5
REMARK                            x       y       z     vdW  Elec       q    Type
REMARK                         _______ _______ _______ _____ _____    ______ ____
ROOT
ATOM      1  N   UNL     1       5.811  21.702  26.292  0.00  0.00    -0.354 N 
ATOM      2  N   UNL     1       5.360  22.695  24.249  0.00  0.00    -0.372 N 
ATOM      3  N   UNL     1       3.658  22.466  25.771  0.00  0.00    -0.372 N 
ATOM      4  C   UNL     1       4.943  22.281  25.451  0.00  0.00    +0.166 C 
ATOM      5  H   UNL     1       6.765  21.563  25.978  0.00  0.00    +0.163 HD
ATOM      6  H   UNL     1       4.729  23.138  23.595  0.00  0.00    +0.159 HD
ATOM      7  H   UNL     1       6.324  22.596  23.956  0.00  0.00    +0.159 HD
ATOM      8  H   UNL     1       3.279  22.171  26.661  0.00  0.00    +0.159 HD
ATOM      9  H   UNL     1       3.008  22.898  25.125  0.00  0.00    +0.159 HD
ENDROOT
BRANCH   1  10
ATOM     10  C   UNL     1       5.472  21.265  27.645  0.00  0.00    +0.151 C 
BRANCH  10  11
ATOM     11  C   UNL     1       6.353  21.983  28.629  0.00  0.00    -0.028 A 
ATOM     12  C   UNL     1       6.281  23.377  28.764  0.00  0.00    +0.005 A 
ATOM     13  C   UNL     1       7.259  21.274  29.433  0.00  0.00    +0.005 A 
ATOM     14  C   UNL     1       7.078  24.041  29.699  0.00  0.00    +0.000 A 
ATOM     15  C   UNL     1       8.054  21.941  30.365  0.00  0.00    +0.000 A 
ATOM     16  C   UNL     1       7.961  23.324  30.499  0.00  0.00    +0.000 A 
ENDBRANCH  10  11
ENDBRANCH   1  10
TORSDOF 2
ENDMDL
MODEL 4
REMARK VINA RESULT:    -4.548     15.729     17.323
REMARK INTER + INTRA:          -5.207
REMARK INTER:                  -5.081
REMARK INTRA:                  -0.126
REMARK UNBOUND:                -0.127
REMARK  Name = 1550473
REMARK  2 active torsions:
REMARK  status: ('A' for Active; 'I' for Inactive)
REMARK    1  A    between atoms: N_1  and  C_4
REMARK    2  A    between atoms: C_4  and  C_5
REMARK                            x       y       z     vdW  Elec       q    Type
REMARK                         _______ _______ _______ _____ _____    ______ ____
ROOT
ATOM      1  N   UNL     1      -6.525  12.806  19.014  0.00  0.00    -0.354 N 
ATOM      2  N   UNL     1      -8.372  13.654  17.903  0.00  0.00    -0.372 N 
ATOM      3  N   UNL     1      -8.038  11.384  17.926  0.00  0.00    -0.372 N 
ATOM      4  C   UNL     1      -7.633  12.607  18.287  0.00  0.00    +0.166 C 
ATOM      5  H   UNL     1      -6.256  13.759  19.229  0.00  0.00    +0.163 HD
ATOM      6  H   UNL     1      -9.215  13.535  17.357  0.00  0.00    +0.159 HD
ATOM      7  H   UNL     1      -8.126  14.603  18.159  0.00  0.00    +0.159 HD
ATOM      8  H   UNL     1      -7.522  10.553  18.179  0.00  0.00    +0.159 HD
ATOM      9  H   UNL     1      -8.872  11.245  17.370  0.00  0.00    +0.159 HD
ENDROOT
BRANCH   1  10
ATOM     10  C   UNL     1      -5.681  11.730  19.528  0.00  0.00    +0.151 C 
BRANCH  10  11
ATOM     11  C   UNL     1      -4.267  12.229  19.648  0.00  0.00    -0.028 A 
ATOM     12  C   UNL     1      -3.198  11.326  19.732  0.00  0.00    +0.005 A 
ATOM     13  C   UNL     1      -3.991  13.605  19.672  0.00  0.00    +0.005 A 
ATOM     14  C   UNL     1      -1.882  11.790  19.812  0.00  0.00    +0.000 A 
ATOM     15  C   UNL     1      -2.676  14.064  19.754  0.00  0.00    +0.000 A 
ATOM     16  C   UNL     1      -1.622  13.156  19.822  0.00  0.00    +0.000 A 
ENDBRANCH  10  11
ENDBRANCH   1  10
TORSDOF 2
ENDMDL
MODEL 5
REMARK VINA RESULT:    -4.449     13.745     15.721
REMARK INTER + INTRA:          -5.096
REMARK INTER:                  -4.971
REMARK INTRA:                  -0.124
REMARK UNBOUND:                -0.127
REMARK  Name = 1550473
REMARK  2 active torsions:
REMARK  status: ('A' for Active; 'I' for Inactive)
REMARK    1  A    between atoms: N_1  and  C_4
REMARK    2  A    between atoms: C_4  and  C_5
REMARK                            x       y       z     vdW  Elec       q    Type
REMARK                         _______ _______ _______ _____ _____    ______ ____
ROOT
ATOM      1  N   UNL     1      -2.057  10.523  30.553  0.00  0.00    -0.354 N 
ATOM      2  N   UNL     1       0.149  11.206  30.369  0.00  0.00    -0.372 N 
ATOM      3  N   UNL     1      -0.635   9.592  28.939  0.00  0.00    -0.372 N 
ATOM      4  C   UNL     1      -0.862  10.434  29.953  0.00  0.00    +0.166 C 
ATOM      5  H   UNL     1      -2.156  11.159  31.335  0.00  0.00    +0.163 HD
ATOM      6  H   UNL     1       1.060  11.163  29.933  0.00  0.00    +0.159 HD
ATOM      7  H   UNL     1       0.034  11.874  31.121  0.00  0.00    +0.159 HD
ATOM      8  H   UNL     1      -1.355   8.977  28.582  0.00  0.00    +0.159 HD
ATOM      9  H   UNL     1       0.273   9.526  28.498  0.00  0.00    +0.159 HD
ENDROOT
BRANCH   1  10
ATOM     10  C   UNL     1      -3.237   9.765  30.141  0.00  0.00    +0.151 C 
BRANCH  10  11
ATOM     11  C   UNL     1      -4.472  10.518  30.552  0.00  0.00    -0.028 A 
ATOM     12  C   UNL     1      -4.485  11.921  30.549  0.00  0.00    +0.005 A 
ATOM     13  C   UNL     1      -5.635   9.835  30.941  0.00  0.00    +0.005 A 
ATOM     14  C   UNL     1      -5.642  12.620  30.902  0.00  0.00    +0.000 A 
ATOM     15  C   UNL     1      -6.787  10.537  31.294  0.00  0.00    +0.000 A 
ATOM     16  C   UNL     1      -6.791  11.930  31.272  0.00  0.00    +0.000 A 
ENDBRANCH  10  11
ENDBRANCH   1  10
TORSDOF 2
ENDMDL
MODEL 6
REMARK VINA RESULT:    -4.242      7.047      8.380
REMARK INTER + INTRA:          -4.865
REMARK INTER:                  -4.766
REMARK INTRA:                  -0.099
REMARK UNBOUND:                -0.127
REMARK  Name = 1550473
REMARK  2 active torsions:
REMARK  status: ('A' for Active; 'I' for Inactive)
REMARK    1  A    between atoms: N_1  and  C_4
REMARK    2  A    between atoms: C_4  and  C_5
REMARK                            x       y       z     vdW  Elec       q    Type
REMARK                         _______ _______ _______ _____ _____    ______ ____
ROOT
ATOM      1  N   UNL     1       6.771  19.789  36.392  0.00  0.00    -0.354 N 
ATOM      2  N   UNL     1       6.588  17.549  36.950  0.00  0.00    -0.372 N 
ATOM      3  N   UNL     1       7.258  19.041  38.559  0.00  0.00    -0.372 N 
ATOM      4  C   UNL     1       6.874  18.809  37.299  0.00  0.00    +0.166 C 
ATOM      5  H   UNL     1       6.504  19.543  35.446  0.00  0.00    +0.163 HD
ATOM      6  H   UNL     1       6.654  16.788  37.613  0.00  0.00    +0.159 HD
ATOM      7  H   UNL     1       6.278  17.312  36.015  0.00  0.00    +0.159 HD
ATOM      8  H   UNL     1       7.493  19.969  38.884  0.00  0.00    +0.159 HD
ATOM      9  H   UNL     1       7.341  18.292  39.234  0.00  0.00    +0.159 HD
ENDROOT
BRANCH   1  10
ATOM     10  C   UNL     1       7.007  21.202  36.684  0.00  0.00    +0.151 C 
BRANCH  10  11
ATOM     11  C   UNL     1       6.953  21.985  35.402  0.00  0.00    -0.028 A 
ATOM     12  C   UNL     1       5.956  22.949  35.198  0.00  0.00    +0.005 A 
ATOM     13  C   UNL     1       7.901  21.770  34.388  0.00  0.00    +0.005 A 
ATOM     14  C   UNL     1       5.923  23.698  34.018  0.00  0.00    +0.000 A 
ATOM     15  C   UNL     1       7.864  22.519  33.212  0.00  0.00    +0.000 A 
ATOM     16  C   UNL     1       6.877  23.485  33.029  0.00  0.00    +0.000 A 
ENDBRANCH  10  11
ENDBRANCH   1  10
TORSDOF 2
ENDMDL
MODEL 7
REMARK VINA RESULT:    -4.208     60.083     62.640
REMARK INTER + INTRA:          -4.827
REMARK INTER:                  -4.752
REMARK INTRA:                  -0.075
REMARK UNBOUND:                -0.127
REMARK  Name = 1550473
REMARK  2 active torsions:
REMARK  status: ('A' for Active; 'I' for Inactive)
REMARK    1  A    between atoms: N_1  and  C_4
REMARK    2  A    between atoms: C_4  and  C_5
REMARK                            x       y       z     vdW  Elec       q    Type
REMARK                         _______ _______ _______ _____ _____    ______ ____
ROOT
ATOM      1  N   UNL     1       8.785 -17.560 -17.983  0.00  0.00    -0.354 N 
ATOM      2  N   UNL     1       7.958 -16.215 -16.288  0.00  0.00    -0.372 N 
ATOM      3  N   UNL     1       7.102 -18.329 -16.544  0.00  0.00    -0.372 N 
ATOM      4  C   UNL     1       7.952 -17.379 -16.949  0.00  0.00    +0.166 C 
ATOM      5  H   UNL     1       9.383 -16.791 -18.259  0.00  0.00    +0.163 HD
ATOM      6  H   UNL     1       7.343 -16.051 -15.502  0.00  0.00    +0.159 HD
ATOM      7  H   UNL     1       8.590 -15.464 -16.538  0.00  0.00    +0.159 HD
ATOM      8  H   UNL     1       7.044 -19.227 -17.004  0.00  0.00    +0.159 HD
ATOM      9  H   UNL     1       6.471 -18.179 -15.767  0.00  0.00    +0.159 HD
ENDROOT
BRANCH   1  10
ATOM     10  C   UNL     1       8.895 -18.809 -18.735  0.00  0.00    +0.151 C 
BRANCH  10  11
ATOM     11  C   UNL     1       8.265 -18.624 -20.088  0.00  0.00    -0.028 A 
ATOM     12  C   UNL     1       7.552 -17.454 -20.388  0.00  0.00    +0.005 A 
ATOM     13  C   UNL     1       8.384 -19.613 -21.077  0.00  0.00    +0.005 A 
ATOM     14  C   UNL     1       6.993 -17.269 -21.655  0.00  0.00    +0.000 A 
ATOM     15  C   UNL     1       7.823 -19.425 -22.340  0.00  0.00    +0.000 A 
ATOM     16  C   UNL     1       7.130 -18.252 -22.630  0.00  0.00    +0.000 A 
ENDBRANCH  10  11
ENDBRANCH   1  10
TORSDOF 2
ENDMDL
MODEL 8
REMARK VINA RESULT:    -4.181      3.100      4.141
REMARK INTER + INTRA:          -4.797
REMARK INTER:                  -4.693
REMARK INTRA:                  -0.104
REMARK UNBOUND:                -0.127
REMARK  Name = 1550473
REMARK  2 active torsions:
REMARK  status: ('A' for Active; 'I' for Inactive)
REMARK    1  A    between atoms: N_1  and  C_4
REMARK    2  A    between atoms: C_4  and  C_5
REMARK                            x       y       z     vdW  Elec       q    Type
REMARK                         _______ _______ _______ _____ _____    ______ ____
ROOT
ATOM      1  N   UNL     1       4.680  25.254  29.496  0.00  0.00    -0.354 N 
ATOM      2  N   UNL     1       2.448  25.844  29.674  0.00  0.00    -0.372 N 
ATOM      3  N   UNL     1       3.600  26.423  27.776  0.00  0.00    -0.372 N 
ATOM      4  C   UNL     1       3.591  25.838  28.979  0.00  0.00    +0.166 C 
ATOM      5  H   UNL     1       4.616  24.854  30.425  0.00  0.00    +0.163 HD
ATOM      6  H   UNL     1       1.609  26.274  29.308  0.00  0.00    +0.159 HD
ATOM      7  H   UNL     1       2.375  25.404  30.583  0.00  0.00    +0.159 HD
ATOM      8  H   UNL     1       4.433  26.458  27.204  0.00  0.00    +0.159 HD
ATOM      9  H   UNL     1       2.774  26.869  27.398  0.00  0.00    +0.159 HD
ENDROOT
BRANCH   1  10
ATOM     10  C   UNL     1       5.960  25.145  28.798  0.00  0.00    +0.151 C 
BRANCH  10  11
ATOM     11  C   UNL     1       6.631  23.861  29.199  0.00  0.00    -0.028 A 
ATOM     12  C   UNL     1       6.357  22.669  28.512  0.00  0.00    +0.005 A 
ATOM     13  C   UNL     1       7.547  23.830  30.262  0.00  0.00    +0.005 A 
ATOM     14  C   UNL     1       7.003  21.482  28.866  0.00  0.00    +0.000 A 
ATOM     15  C   UNL     1       8.189  22.642  30.613  0.00  0.00    +0.000 A 
ATOM     16  C   UNL     1       7.918  21.469  29.912  0.00  0.00    +0.000 A 
ENDBRANCH  10  11
ENDBRANCH   1  10
TORSDOF 2
ENDMDL
MODEL 9
REMARK VINA RESULT:    -4.009      2.265      3.031
REMARK INTER + INTRA:          -4.604
REMARK INTER:                  -4.428
REMARK INTRA:                  -0.176
REMARK UNBOUND:                -0.127
REMARK  Name = 1550473
REMARK  2 active torsions:
REMARK  status: ('A' for Active; 'I' for Inactive)
REMARK    1  A    between atoms: N_1  and  C_4
REMARK    2  A    between atoms: C_4  and  C_5
REMARK                            x       y       z     vdW  Elec       q    Type
REMARK                         _______ _______ _______ _____ _____    ______ ____
ROOT
ATOM      1  N   UNL     1       5.293  23.669  28.121  0.00  0.00    -0.354 N 
ATOM      2  N   UNL     1       3.147  23.028  27.531  0.00  0.00    -0.372 N 
ATOM      3  N   UNL     1       3.421  24.793  28.972  0.00  0.00    -0.372 N 
ATOM      4  C   UNL     1       3.967  23.836  28.214  0.00  0.00    +0.166 C 
ATOM      5  H   UNL     1       5.643  22.906  27.553  0.00  0.00    +0.163 HD
ATOM      6  H   UNL     1       2.142  23.133  27.579  0.00  0.00    +0.159 HD
ATOM      7  H   UNL     1       3.501  22.296  26.928  0.00  0.00    +0.159 HD
ATOM      8  H   UNL     1       3.985  25.432  29.516  0.00  0.00    +0.159 HD
ATOM      9  H   UNL     1       2.417  24.906  29.042  0.00  0.00    +0.159 HD
ENDROOT
BRANCH   1  10
ATOM     10  C   UNL     1       6.274  24.529  28.781  0.00  0.00    +0.151 C 
BRANCH  10  11
ATOM     11  C   UNL     1       6.709  23.880  30.066  0.00  0.00    -0.028 A 
ATOM     12  C   UNL     1       7.518  22.735  30.047  0.00  0.00    +0.005 A 
ATOM     13  C   UNL     1       6.321  24.410  31.306  0.00  0.00    +0.005 A 
ATOM     14  C   UNL     1       7.947  22.150  31.241  0.00  0.00    +0.000 A 
ATOM     15  C   UNL     1       6.751  23.823  32.496  0.00  0.00    +0.000 A 
ATOM     16  C   UNL     1       7.566  22.694  32.463  0.00  0.00    +0.000 A 
ENDBRANCH  10  11
ENDBRANCH   1  10
TORSDOF 2
ENDMDL
