MODEL 1
REMARK VINA RESULT:    -5.915      0.000      0.000
REMARK INTER + INTRA:          -6.780
REMARK INTER:                  -6.607
REMARK INTRA:                  -0.173
REMARK UNBOUND:                -0.173
REMARK  Name = 1550473
REMARK  2 active torsions:
REMARK  status: ('A' for Active; 'I' for Inactive)
REMARK    1  A    between atoms: N_1  and  C_4
REMARK    2  A    between atoms: C_4  and  C_5
REMARK                            x       y       z     vdW  Elec       q    Type
REMARK                         _______ _______ _______ _____ _____    ______ ____
ROOT
ATOM      1  N   UNL     1      17.378 -11.280 -15.690  0.00  0.00    -0.354 N 
ATOM      2  N   UNL     1      17.921  -9.423 -16.963  0.00  0.00    -0.372 N 
ATOM      3  N   UNL     1      19.587 -10.507 -15.816  0.00  0.00    -0.372 N 
ATOM      4  C   UNL     1      18.294 -10.416 -16.147  0.00  0.00    +0.166 C 
ATOM      5  H   UNL     1      16.410 -11.139 -15.954  0.00  0.00    +0.163 HD
ATOM      6  H   UNL     1      18.591  -8.758 -17.326  0.00  0.00    +0.159 HD
ATOM      7  H   UNL     1      16.960  -9.312 -17.262  0.00  0.00    +0.159 HD
ATOM      8  H   UNL     1      19.932 -11.230 -15.198  0.00  0.00    +0.159 HD
ATOM      9  H   UNL     1      20.270  -9.844 -16.160  0.00  0.00    +0.159 HD
ENDROOT
BRANCH   1  10
ATOM     10  C   UNL     1      17.689 -12.427 -14.839  0.00  0.00    +0.151 C 
BRANCH  10  11
ATOM     11  C   UNL     1      17.144 -12.178 -13.460  0.00  0.00    -0.028 A 
ATOM     12  C   UNL     1      15.889 -12.682 -13.088  0.00  0.00    +0.005 A 
ATOM     13  C   UNL     1      17.880 -11.443 -12.518  0.00  0.00    +0.005 A 
ATOM     14  C   UNL     1      15.395 -12.477 -11.798  0.00  0.00    +0.000 A 
ATOM     15  C   UNL     1      17.384 -11.240 -11.230  0.00  0.00    +0.000 A 
ATOM     16  C   UNL     1      16.142 -11.758 -10.870  0.00  0.00    +0.000 A 
ENDBRANCH  10  11
ENDBRANCH   1  10
TORSDOF 2
ENDMDL
MODEL 2
REMARK VINA RESULT:    -5.519      3.492      5.148
REMARK INTER + INTRA:          -6.338
REMARK INTER:                  -6.188
REMARK INTRA:                  -0.150
REMARK UNBOUND:                -0.173
REMARK  Name = 1550473
REMARK  2 active torsions:
REMARK  status: ('A' for Active; 'I' for Inactive)
REMARK    1  A    between atoms: N_1  and  C_4
REMARK    2  A    between atoms: C_4  and  C_5
REMARK                            x       y       z     vdW  Elec       q    Type
REMARK                         _______ _______ _______ _____ _____    ______ ____
ROOT
ATOM      1  N   UNL     1      18.464  -9.966 -16.185  0.00  0.00    -0.354 N 
ATOM      2  N   UNL     1      18.903  -7.734 -16.621  0.00  0.00    -0.372 N 
ATOM      3  N   UNL     1      20.610  -9.076 -15.880  0.00  0.00    -0.372 N 
ATOM      4  C   UNL     1      19.325  -8.941 -16.225  0.00  0.00    +0.166 C 
ATOM      5  H   UNL     1      17.496  -9.791 -16.430  0.00  0.00    +0.163 HD
ATOM      6  H   UNL     1      19.530  -6.943 -16.664  0.00  0.00    +0.159 HD
ATOM      7  H   UNL     1      17.945  -7.573 -16.909  0.00  0.00    +0.159 HD
ATOM      8  H   UNL     1      20.991  -9.959 -15.567  0.00  0.00    +0.159 HD
ATOM      9  H   UNL     1      21.251  -8.293 -15.906  0.00  0.00    +0.159 HD
ENDROOT
BRANCH   1  10
ATOM     10  C   UNL     1      18.835 -11.332 -15.820  0.00  0.00    +0.151 C 
BRANCH  10  11
ATOM     11  C   UNL     1      18.676 -12.222 -17.022  0.00  0.00    -0.028 A 
ATOM     12  C   UNL     1      17.889 -11.816 -18.109  0.00  0.00    +0.005 A 
ATOM     13  C   UNL     1      19.314 -13.471 -17.081  0.00  0.00    +0.005 A 
ATOM     14  C   UNL     1      17.765 -12.630 -19.238  0.00  0.00    +0.000 A 
ATOM     15  C   UNL     1      19.187 -14.280 -18.210  0.00  0.00    +0.000 A 
ATOM     16  C   UNL     1      18.415 -13.858 -19.289  0.00  0.00    +0.000 A 
ENDBRANCH  10  11
ENDBRANCH   1  10
TORSDOF 2
ENDMDL
MODEL 3
REMARK VINA RESULT:    -5.352     14.450     15.477
REMARK INTER + INTRA:          -6.151
REMARK INTER:                  -6.034
REMARK INTRA:                  -0.117
REMARK UNBOUND:                -0.173
REMARK  Name = 1550473
REMARK  2 active torsions:
REMARK  status: ('A' for Active; 'I' for Inactive)
REMARK    1  A    between atoms: N_1  and  C_4
REMARK    2  A    between atoms: C_4  and  C_5
REMARK                            x       y       z     vdW  Elec       q    Type
REMARK                         _______ _______ _______ _____ _____    ______ ____
ROOT
ATOM      1  N   UNL     1      13.487 -13.163   0.978  0.00  0.00    -0.354 N 
ATOM      2  N   UNL     1      15.328 -11.763   1.109  0.00  0.00    -0.372 N 
ATOM      3  N   UNL     1      13.426 -11.207   2.267  0.00  0.00    -0.372 N 
ATOM      4  C   UNL     1      14.067 -12.052   1.452  0.00  0.00    +0.166 C 
ATOM      5  H   UNL     1      14.016 -13.747   0.340  0.00  0.00    +0.163 HD
ATOM      6  H   UNL     1      15.792 -10.934   1.453  0.00  0.00    +0.159 HD
ATOM      7  H   UNL     1      15.869 -12.372   0.508  0.00  0.00    +0.159 HD
ATOM      8  H   UNL     1      12.471 -11.364   2.559  0.00  0.00    +0.159 HD
ATOM      9  H   UNL     1      13.871 -10.365   2.613  0.00  0.00    +0.159 HD
ENDROOT
BRANCH   1  10
ATOM     10  C   UNL     1      12.137 -13.596   1.333  0.00  0.00    +0.151 C 
BRANCH  10  11
ATOM     11  C   UNL     1      11.439 -14.092   0.097  0.00  0.00    -0.028 A 
ATOM     12  C   UNL     1      10.148 -13.645  -0.219  0.00  0.00    +0.005 A 
ATOM     13  C   UNL     1      12.066 -15.005  -0.765  0.00  0.00    +0.005 A 
ATOM     14  C   UNL     1       9.511 -14.083  -1.383  0.00  0.00    +0.000 A 
ATOM     15  C   UNL     1      11.426 -15.440  -1.926  0.00  0.00    +0.000 A 
ATOM     16  C   UNL     1      10.150 -14.976  -2.236  0.00  0.00    +0.000 A 
ENDBRANCH  10  11
ENDBRANCH   1  10
TORSDOF 2
ENDMDL
MODEL 4
REMARK VINA RESULT:    -5.273     13.255     14.382
REMARK INTER + INTRA:          -6.063
REMARK INTER:                  -5.892
REMARK INTRA:                  -0.171
REMARK UNBOUND:                -0.173
REMARK  Name = 1550473
REMARK  2 active torsions:
REMARK  status: ('A' for Active; 'I' for Inactive)
REMARK    1  A    between atoms: N_1  and  C_4
REMARK    2  A    between atoms: C_4  and  C_5
REMARK                            x       y       z     vdW  Elec       q    Type
REMARK                         _______ _______ _______ _____ _____    ______ ____
ROOT
ATOM      1  N   UNL     1      13.992 -13.372  -0.280  0.00  0.00    -0.354 N 
ATOM      2  N   UNL     1      15.836 -12.765  -1.544  0.00  0.00    -0.372 N 
ATOM      3  N   UNL     1      15.511 -14.982  -1.050  0.00  0.00    -0.372 N 
ATOM      4  C   UNL     1      15.101 -13.713  -0.949  0.00  0.00    +0.166 C 
ATOM      5  H   UNL     1      13.752 -12.389  -0.215  0.00  0.00    +0.163 HD
ATOM      6  H   UNL     1      16.676 -12.992  -2.059  0.00  0.00    +0.159 HD
ATOM      7  H   UNL     1      15.569 -11.788  -1.516  0.00  0.00    +0.159 HD
ATOM      8  H   UNL     1      15.005 -15.744  -0.619  0.00  0.00    +0.159 HD
ATOM      9  H   UNL     1      16.355 -15.228  -1.551  0.00  0.00    +0.159 HD
ENDROOT
BRANCH   1  10
ATOM     10  C   UNL     1      13.094 -14.333   0.357  0.00  0.00    +0.151 C 
BRANCH  10  11
ATOM     11  C   UNL     1      11.816 -14.408  -0.432  0.00  0.00    -0.028 A 
ATOM     12  C   UNL     1      11.727 -15.225  -1.569  0.00  0.00    +0.005 A 
ATOM     13  C   UNL     1      10.687 -13.669  -0.044  0.00  0.00    +0.005 A 
ATOM     14  C   UNL     1      10.531 -15.318  -2.284  0.00  0.00    +0.000 A 
ATOM     15  C   UNL     1       9.495 -13.764  -0.762  0.00  0.00    +0.000 A 
ATOM     16  C   UNL     1       9.417 -14.591  -1.881  0.00  0.00    +0.000 A 
ENDBRANCH  10  11
ENDBRANCH   1  10
TORSDOF 2
ENDMDL
MODEL 5
REMARK VINA RESULT:    -5.231      2.296      5.046
REMARK INTER + INTRA:          -6.015
REMARK INTER:                  -5.884
REMARK INTRA:                  -0.132
REMARK UNBOUND:                -0.173
REMARK  Name = 1550473
REMARK  2 active torsions:
REMARK  status: ('A' for Active; 'I' for Inactive)
REMARK    1  A    between atoms: N_1  and  C_4
REMARK    2  A    between atoms: C_4  and  C_5
REMARK                            x       y       z     vdW  Elec       q    Type
REMARK                         _______ _______ _______ _____ _____    ______ ____
ROOT
ATOM      1  N   UNL     1      18.189 -11.530 -13.581  0.00  0.00    -0.354 N 
ATOM      2  N   UNL     1      18.374 -10.913 -11.357  0.00  0.00    -0.372 N 
ATOM      3  N   UNL     1      16.416 -11.861 -12.085  0.00  0.00    -0.372 N 
ATOM      4  C   UNL     1      17.656 -11.440 -12.356  0.00  0.00    +0.166 C 
ATOM      5  H   UNL     1      19.123 -11.165 -13.728  0.00  0.00    +0.163 HD
ATOM      6  H   UNL     1      18.000 -10.835 -10.421  0.00  0.00    +0.159 HD
ATOM      7  H   UNL     1      19.324 -10.590 -11.496  0.00  0.00    +0.159 HD
ATOM      8  H   UNL     1      15.820 -12.263 -12.797  0.00  0.00    +0.159 HD
ATOM      9  H   UNL     1      16.019 -11.781 -11.157  0.00  0.00    +0.159 HD
ENDROOT
BRANCH   1  10
ATOM     10  C   UNL     1      17.511 -12.136 -14.726  0.00  0.00    +0.151 C 
BRANCH  10  11
ATOM     11  C   UNL     1      17.920 -11.413 -15.979  0.00  0.00    -0.028 A 
ATOM     12  C   UNL     1      17.824 -12.043 -17.228  0.00  0.00    +0.005 A 
ATOM     13  C   UNL     1      18.399 -10.095 -15.924  0.00  0.00    +0.005 A 
ATOM     14  C   UNL     1      18.175 -11.361 -18.396  0.00  0.00    +0.000 A 
ATOM     15  C   UNL     1      18.750  -9.418 -17.092  0.00  0.00    +0.000 A 
ATOM     16  C   UNL     1      18.635 -10.050 -18.328  0.00  0.00    +0.000 A 
ENDBRANCH  10  11
ENDBRANCH   1  10
TORSDOF 2
ENDMDL
MODEL 6
REMARK VINA RESULT:    -5.141     33.149     34.172
REMARK INTER + INTRA:          -5.915
REMARK INTER:                  -5.829
REMARK INTRA:                  -0.086
REMARK UNBOUND:                -0.173
REMARK  Name = 1550473
REMARK  2 active torsions:
REMARK  status: ('A' for Active; 'I' for Inactive)
REMARK    1  A    between atoms: N_1  and  C_4
REMARK    2  A    between atoms: C_4  and  C_5
REMARK                            x       y       z     vdW  Elec       q    Type
REMARK                         _______ _______ _______ _____ _____    ______ ____
ROOT
ATOM      1  N   UNL     1     -13.302   2.476 -14.861  0.00  0.00    -0.354 N 
ATOM      2  N   UNL     1     -11.648   1.933 -13.334  0.00  0.00    -0.372 N 
ATOM      3  N   UNL     1     -13.758   1.083 -13.032  0.00  0.00    -0.372 N 
ATOM      4  C   UNL     1     -12.916   1.833 -13.751  0.00  0.00    +0.166 C 
ATOM      5  H   UNL     1     -12.624   3.053 -15.344  0.00  0.00    +0.163 HD
ATOM      6  H   UNL     1     -11.326   1.456 -12.502  0.00  0.00    +0.159 HD
ATOM      7  H   UNL     1     -10.960   2.473 -13.844  0.00  0.00    +0.159 HD
ATOM      8  H   UNL     1     -14.729   0.972 -13.290  0.00  0.00    +0.159 HD
ATOM      9  H   UNL     1     -13.457   0.608 -12.190  0.00  0.00    +0.159 HD
ENDROOT
BRANCH   1  10
ATOM     10  C   UNL     1     -14.646   2.389 -15.429  0.00  0.00    +0.151 C 
BRANCH  10  11
ATOM     11  C   UNL     1     -14.594   1.573 -16.691  0.00  0.00    -0.028 A 
ATOM     12  C   UNL     1     -13.979   0.313 -16.699  0.00  0.00    +0.005 A 
ATOM     13  C   UNL     1     -15.163   2.052 -17.881  0.00  0.00    +0.005 A 
ATOM     14  C   UNL     1     -13.956  -0.459 -17.863  0.00  0.00    +0.000 A 
ATOM     15  C   UNL     1     -15.137   1.279 -19.042  0.00  0.00    +0.000 A 
ATOM     16  C   UNL     1     -14.536   0.023 -19.032  0.00  0.00    +0.000 A 
ENDBRANCH  10  11
ENDBRANCH   1  10
TORSDOF 2
ENDMDL
MODEL 7
REMARK VINA RESULT:    -5.096     36.900     38.462
REMARK INTER + INTRA:          -5.865
REMARK INTER:                  -5.738
REMARK INTRA:                  -0.127
REMARK UNBOUND:                -0.173
REMARK  Name = 1550473
REMARK  2 active torsions:
REMARK  status: ('A' for Active; 'I' for Inactive)
REMARK    1  A    between atoms: N_1  and  C_4
REMARK    2  A    between atoms: C_4  and  C_5
REMARK                            x       y       z     vdW  Elec       q    Type
REMARK                         _______ _______ _______ _____ _____    ______ ____
ROOT
ATOM      1  N   UNL     1     -13.541  -3.933   5.314  0.00  0.00    -0.354 N 
ATOM      2  N   UNL     1     -11.726  -4.721   6.517  0.00  0.00    -0.372 N 
ATOM      3  N   UNL     1     -12.544  -2.630   6.988  0.00  0.00    -0.372 N 
ATOM      4  C   UNL     1     -12.616  -3.754   6.266  0.00  0.00    +0.166 C 
ATOM      5  H   UNL     1     -13.523  -4.795   4.782  0.00  0.00    +0.163 HD
ATOM      6  H   UNL     1     -11.018  -4.616   7.231  0.00  0.00    +0.159 HD
ATOM      7  H   UNL     1     -11.739  -5.601   6.014  0.00  0.00    +0.159 HD
ATOM      8  H   UNL     1     -13.183  -1.859   6.844  0.00  0.00    +0.159 HD
ATOM      9  H   UNL     1     -11.836  -2.502   7.699  0.00  0.00    +0.159 HD
ENDROOT
BRANCH   1  10
ATOM     10  C   UNL     1     -14.589  -2.963   5.000  0.00  0.00    +0.151 C 
BRANCH  10  11
ATOM     11  C   UNL     1     -15.810  -3.698   4.519  0.00  0.00    -0.028 A 
ATOM     12  C   UNL     1     -16.158  -4.939   5.073  0.00  0.00    +0.005 A 
ATOM     13  C   UNL     1     -16.627  -3.155   3.515  0.00  0.00    +0.005 A 
ATOM     14  C   UNL     1     -17.309  -5.607   4.648  0.00  0.00    +0.000 A 
ATOM     15  C   UNL     1     -17.774  -3.826   3.093  0.00  0.00    +0.000 A 
ATOM     16  C   UNL     1     -18.116  -5.051   3.662  0.00  0.00    +0.000 A 
ENDBRANCH  10  11
ENDBRANCH   1  10
TORSDOF 2
ENDMDL
MODEL 8
REMARK VINA RESULT:    -5.073      3.566      4.480
REMARK INTER + INTRA:          -5.839
REMARK INTER:                  -5.709
REMARK INTRA:                  -0.130
REMARK UNBOUND:                -0.173
REMARK  Name = 1550473
REMARK  2 active torsions:
REMARK  status: ('A' for Active; 'I' for Inactive)
REMARK    1  A    between atoms: N_1  and  C_4
REMARK    2  A    between atoms: C_4  and  C_5
REMARK                            x       y       z     vdW  Elec       q    Type
REMARK                         _______ _______ _______ _____ _____    ______ ____
ROOT
ATOM      1  N   UNL     1      18.120  -9.933 -17.278  0.00  0.00    -0.354 N 
ATOM      2  N   UNL     1      18.413  -8.125 -18.695  0.00  0.00    -0.372 N 
ATOM      3  N   UNL     1      19.003  -7.911 -16.488  0.00  0.00    -0.372 N 
ATOM      4  C   UNL     1      18.511  -8.667 -17.475  0.00  0.00    +0.166 C 
ATOM      5  H   UNL     1      17.727 -10.443 -18.060  0.00  0.00    +0.163 HD
ATOM      6  H   UNL     1      18.703  -7.173 -18.875  0.00  0.00    +0.159 HD
ATOM      7  H   UNL     1      18.062  -8.652 -19.486  0.00  0.00    +0.159 HD
ATOM      8  H   UNL     1      19.098  -8.259 -15.543  0.00  0.00    +0.159 HD
ATOM      9  H   UNL     1      19.288  -6.953 -16.646  0.00  0.00    +0.159 HD
ENDROOT
BRANCH   1  10
ATOM     10  C   UNL     1      18.235 -10.635 -16.000  0.00  0.00    +0.151 C 
BRANCH  10  11
ATOM     11  C   UNL     1      19.011 -11.906 -16.206  0.00  0.00    -0.028 A 
ATOM     12  C   UNL     1      18.657 -12.799 -17.228  0.00  0.00    +0.005 A 
ATOM     13  C   UNL     1      20.106 -12.221 -15.387  0.00  0.00    +0.005 A 
ATOM     14  C   UNL     1      19.396 -13.966 -17.439  0.00  0.00    +0.000 A 
ATOM     15  C   UNL     1      20.841 -13.387 -15.600  0.00  0.00    +0.000 A 
ATOM     16  C   UNL     1      20.487 -14.258 -16.628  0.00  0.00    +0.000 A 
ENDBRANCH  10  11
ENDBRANCH   1  10
TORSDOF 2
ENDMDL
MODEL 9
REMARK VINA RESULT:    -4.897     34.084     35.078
REMARK INTER + INTRA:          -5.643
REMARK INTER:                  -5.477
REMARK INTRA:                  -0.166
REMARK UNBOUND:                -0.173
REMARK  Name = 1550473
REMARK  2 active torsions:
REMARK  status: ('A' for Active; 'I' for Inactive)
REMARK    1  A    between atoms: N_1  and  C_4
REMARK    2  A    between atoms: C_4  and  C_5
REMARK                            x       y       z     vdW  Elec       q    Type
REMARK                         _______ _______ _______ _____ _____    ______ ____
ROOT
ATOM      1  N   UNL     1     -14.779   3.548 -15.750  0.00  0.00    -0.354 N 
ATOM      2  N   UNL     1     -16.238   3.983 -14.006  0.00  0.00    -0.372 N 
ATOM      3  N   UNL     1     -14.577   2.431 -13.701  0.00  0.00    -0.372 N 
ATOM      4  C   UNL     1     -15.187   3.316 -14.496  0.00  0.00    +0.166 C 
ATOM      5  H   UNL     1     -15.302   4.210 -16.312  0.00  0.00    +0.163 HD
ATOM      6  H   UNL     1     -16.567   3.831 -13.061  0.00  0.00    +0.159 HD
ATOM      7  H   UNL     1     -16.732   4.677 -14.554  0.00  0.00    +0.159 HD
ATOM      8  H   UNL     1     -13.781   1.890 -14.013  0.00  0.00    +0.159 HD
ATOM      9  H   UNL     1     -14.898   2.256 -12.757  0.00  0.00    +0.159 HD
ENDROOT
BRANCH   1  10
ATOM     10  C   UNL     1     -13.612   2.914 -16.362  0.00  0.00    +0.151 C 
BRANCH  10  11
ATOM     11  C   UNL     1     -14.075   1.839 -17.305  0.00  0.00    -0.028 A 
ATOM     12  C   UNL     1     -13.395   0.614 -17.379  0.00  0.00    +0.005 A 
ATOM     13  C   UNL     1     -15.198   2.036 -18.124  0.00  0.00    +0.005 A 
ATOM     14  C   UNL     1     -13.843  -0.396 -18.233  0.00  0.00    +0.000 A 
ATOM     15  C   UNL     1     -15.641   1.025 -18.977  0.00  0.00    +0.000 A 
ATOM     16  C   UNL     1     -14.965  -0.192 -19.029  0.00  0.00    +0.000 A 
ENDBRANCH  10  11
ENDBRANCH   1  10
TORSDOF 2
ENDMDL
