MODEL 1
REMARK VINA RESULT:    -4.846      0.000      0.000
REMARK INTER + INTRA:          -5.506
REMARK INTER:                  -5.412
REMARK INTRA:                  -0.094
REMARK UNBOUND:                -0.094
REMARK  Name = 1550473
REMARK  2 active torsions:
REMARK  status: ('A' for Active; 'I' for Inactive)
REMARK    1  A    between atoms: N_1  and  C_4
REMARK    2  A    between atoms: C_4  and  C_5
REMARK                            x       y       z     vdW  Elec       q    Type
REMARK                         _______ _______ _______ _____ _____    ______ ____
ROOT
ATOM      1  N   UNL     1      18.681  -3.955   3.851  0.00  0.00    -0.354 N 
ATOM      2  N   UNL     1      19.557  -3.400   1.780  0.00  0.00    -0.372 N 
ATOM      3  N   UNL     1      20.968  -4.199   3.403  0.00  0.00    -0.372 N 
ATOM      4  C   UNL     1      19.732  -3.855   3.026  0.00  0.00    +0.166 C 
ATOM      5  H   UNL     1      17.775  -3.650   3.515  0.00  0.00    +0.163 HD
ATOM      6  H   UNL     1      20.331  -3.318   1.134  0.00  0.00    +0.159 HD
ATOM      7  H   UNL     1      18.643  -3.139   1.431  0.00  0.00    +0.159 HD
ATOM      8  H   UNL     1      21.168  -4.544   4.332  0.00  0.00    +0.159 HD
ATOM      9  H   UNL     1      21.757  -4.112   2.775  0.00  0.00    +0.159 HD
ENDROOT
BRANCH   1  10
ATOM     10  C   UNL     1      18.755  -4.489   5.210  0.00  0.00    +0.151 C 
BRANCH  10  11
ATOM     11  C   UNL     1      17.405  -4.368   5.859  0.00  0.00    -0.028 A 
ATOM     12  C   UNL     1      16.935  -3.122   6.299  0.00  0.00    +0.005 A 
ATOM     13  C   UNL     1      16.587  -5.495   6.033  0.00  0.00    +0.005 A 
ATOM     14  C   UNL     1      15.667  -3.004   6.875  0.00  0.00    +0.000 A 
ATOM     15  C   UNL     1      15.323  -5.374   6.610  0.00  0.00    +0.000 A 
ATOM     16  C   UNL     1      14.863  -4.128   7.028  0.00  0.00    +0.000 A 
ENDBRANCH  10  11
ENDBRANCH   1  10
TORSDOF 2
ENDMDL
MODEL 2
REMARK VINA RESULT:    -4.687     28.338     29.642
REMARK INTER + INTRA:          -5.330
REMARK INTER:                  -5.199
REMARK INTRA:                  -0.131
REMARK UNBOUND:                -0.094
REMARK  Name = 1550473
REMARK  2 active torsions:
REMARK  status: ('A' for Active; 'I' for Inactive)
REMARK    1  A    between atoms: N_1  and  C_4
REMARK    2  A    between atoms: C_4  and  C_5
REMARK                            x       y       z     vdW  Elec       q    Type
REMARK                         _______ _______ _______ _____ _____    ______ ____
ROOT
ATOM      1  N   UNL     1      -8.080 -15.491  -2.367  0.00  0.00    -0.354 N 
ATOM      2  N   UNL     1      -5.863 -16.162  -2.353  0.00  0.00    -0.372 N 
ATOM      3  N   UNL     1      -6.954 -15.981  -4.363  0.00  0.00    -0.372 N 
ATOM      4  C   UNL     1      -6.981 -15.874  -3.031  0.00  0.00    +0.166 C 
ATOM      5  H   UNL     1      -8.044 -15.459  -1.355  0.00  0.00    +0.163 HD
ATOM      6  H   UNL     1      -5.017 -16.451  -2.826  0.00  0.00    +0.159 HD
ATOM      7  H   UNL     1      -5.817 -16.085  -1.344  0.00  0.00    +0.159 HD
ATOM      8  H   UNL     1      -7.766 -15.784  -4.933  0.00  0.00    +0.159 HD
ATOM      9  H   UNL     1      -6.120 -16.280  -4.854  0.00  0.00    +0.159 HD
ENDROOT
BRANCH   1  10
ATOM     10  C   UNL     1      -9.332 -15.103  -3.015  0.00  0.00    +0.151 C 
BRANCH  10  11
ATOM     11  C   UNL     1      -9.953 -13.971  -2.244  0.00  0.00    -0.028 A 
ATOM     12  C   UNL     1      -9.546 -13.696  -0.930  0.00  0.00    +0.005 A 
ATOM     13  C   UNL     1     -10.945 -13.166  -2.824  0.00  0.00    +0.005 A 
ATOM     14  C   UNL     1     -10.101 -12.626  -0.225  0.00  0.00    +0.000 A 
ATOM     15  C   UNL     1     -11.497 -12.099  -2.116  0.00  0.00    +0.000 A 
ATOM     16  C   UNL     1     -11.074 -11.828  -0.817  0.00  0.00    +0.000 A 
ENDBRANCH  10  11
ENDBRANCH   1  10
TORSDOF 2
ENDMDL
MODEL 3
REMARK VINA RESULT:    -4.631     17.314     18.413
REMARK INTER + INTRA:          -5.267
REMARK INTER:                  -5.149
REMARK INTRA:                  -0.118
REMARK UNBOUND:                -0.094
REMARK  Name = 1550473
REMARK  2 active torsions:
REMARK  status: ('A' for Active; 'I' for Inactive)
REMARK    1  A    between atoms: N_1  and  C_4
REMARK    2  A    between atoms: C_4  and  C_5
REMARK                            x       y       z     vdW  Elec       q    Type
REMARK                         _______ _______ _______ _____ _____    ______ ____
ROOT
ATOM      1  N   UNL     1       8.934  12.499   0.382  0.00  0.00    -0.354 N 
ATOM      2  N   UNL     1       6.794  12.181  -0.445  0.00  0.00    -0.372 N 
ATOM      3  N   UNL     1       8.397  13.066  -1.828  0.00  0.00    -0.372 N 
ATOM      4  C   UNL     1       8.057  12.585  -0.627  0.00  0.00    +0.166 C 
ATOM      5  H   UNL     1       8.607  12.153   1.276  0.00  0.00    +0.163 HD
ATOM      6  H   UNL     1       6.111  12.231  -1.188  0.00  0.00    +0.159 HD
ATOM      7  H   UNL     1       6.481  11.793   0.437  0.00  0.00    +0.159 HD
ATOM      8  H   UNL     1       9.333  13.393  -2.028  0.00  0.00    +0.159 HD
ATOM      9  H   UNL     1       7.724  13.135  -2.581  0.00  0.00    +0.159 HD
ENDROOT
BRANCH   1  10
ATOM     10  C   UNL     1      10.346  12.862   0.271  0.00  0.00    +0.151 C 
BRANCH  10  11
ATOM     11  C   UNL     1      11.181  11.612   0.329  0.00  0.00    -0.028 A 
ATOM     12  C   UNL     1      12.175  11.465   1.307  0.00  0.00    +0.005 A 
ATOM     13  C   UNL     1      10.978  10.569  -0.588  0.00  0.00    +0.005 A 
ATOM     14  C   UNL     1      12.930  10.292   1.381  0.00  0.00    +0.000 A 
ATOM     15  C   UNL     1      11.735   9.400  -0.512  0.00  0.00    +0.000 A 
ATOM     16  C   UNL     1      12.709   9.261   0.474  0.00  0.00    +0.000 A 
ENDBRANCH  10  11
ENDBRANCH   1  10
TORSDOF 2
ENDMDL
MODEL 4
REMARK VINA RESULT:    -4.517     19.592     21.254
REMARK INTER + INTRA:          -5.139
REMARK INTER:                  -5.002
REMARK INTRA:                  -0.136
REMARK UNBOUND:                -0.094
REMARK  Name = 1550473
REMARK  2 active torsions:
REMARK  status: ('A' for Active; 'I' for Inactive)
REMARK    1  A    between atoms: N_1  and  C_4
REMARK    2  A    between atoms: C_4  and  C_5
REMARK                            x       y       z     vdW  Elec       q    Type
REMARK                         _______ _______ _______ _____ _____    ______ ____
ROOT
ATOM      1  N   UNL     1      39.966  -0.811   8.352  0.00  0.00    -0.354 N 
ATOM      2  N   UNL     1      41.678   0.540   9.131  0.00  0.00    -0.372 N 
ATOM      3  N   UNL     1      40.461  -0.688  10.640  0.00  0.00    -0.372 N 
ATOM      4  C   UNL     1      40.689  -0.330   9.372  0.00  0.00    +0.166 C 
ATOM      5  H   UNL     1      40.170  -0.477   7.417  0.00  0.00    +0.163 HD
ATOM      6  H   UNL     1      42.244   0.917   9.880  0.00  0.00    +0.159 HD
ATOM      7  H   UNL     1      41.910   0.837   8.191  0.00  0.00    +0.159 HD
ATOM      8  H   UNL     1      39.725  -1.336  10.889  0.00  0.00    +0.159 HD
ATOM      9  H   UNL     1      41.008  -0.312  11.404  0.00  0.00    +0.159 HD
ENDROOT
BRANCH   1  10
ATOM     10  C   UNL     1      38.902  -1.803   8.501  0.00  0.00    +0.151 C 
BRANCH  10  11
ATOM     11  C   UNL     1      37.649  -1.279   7.856  0.00  0.00    -0.028 A 
ATOM     12  C   UNL     1      37.378   0.097   7.839  0.00  0.00    +0.005 A 
ATOM     13  C   UNL     1      36.731  -2.154   7.254  0.00  0.00    +0.005 A 
ATOM     14  C   UNL     1      36.229   0.586   7.213  0.00  0.00    +0.000 A 
ATOM     15  C   UNL     1      35.584  -1.661   6.631  0.00  0.00    +0.000 A 
ATOM     16  C   UNL     1      35.335  -0.291   6.609  0.00  0.00    +0.000 A 
ENDBRANCH  10  11
ENDBRANCH   1  10
TORSDOF 2
ENDMDL
MODEL 5
REMARK VINA RESULT:    -4.393     22.269     23.096
REMARK INTER + INTRA:          -5.001
REMARK INTER:                  -4.830
REMARK INTRA:                  -0.171
REMARK UNBOUND:                -0.094
REMARK  Name = 1550473
REMARK  2 active torsions:
REMARK  status: ('A' for Active; 'I' for Inactive)
REMARK    1  A    between atoms: N_1  and  C_4
REMARK    2  A    between atoms: C_4  and  C_5
REMARK                            x       y       z     vdW  Elec       q    Type
REMARK                         _______ _______ _______ _____ _____    ______ ____
ROOT
ATOM      1  N   UNL     1      -0.821   5.112  13.866  0.00  0.00    -0.354 N 
ATOM      2  N   UNL     1      -0.035   6.697  12.372  0.00  0.00    -0.372 N 
ATOM      3  N   UNL     1      -2.179   6.888  13.166  0.00  0.00    -0.372 N 
ATOM      4  C   UNL     1      -1.019   6.223  13.145  0.00  0.00    +0.166 C 
ATOM      5  H   UNL     1       0.071   4.637  13.783  0.00  0.00    +0.163 HD
ATOM      6  H   UNL     1      -0.154   7.535  11.820  0.00  0.00    +0.159 HD
ATOM      7  H   UNL     1       0.871   6.246  12.327  0.00  0.00    +0.159 HD
ATOM      8  H   UNL     1      -2.964   6.579  13.723  0.00  0.00    +0.159 HD
ATOM      9  H   UNL     1      -2.322   7.723  12.610  0.00  0.00    +0.159 HD
ENDROOT
BRANCH   1  10
ATOM     10  C   UNL     1      -1.810   4.542  14.780  0.00  0.00    +0.151 C 
BRANCH  10  11
ATOM     11  C   UNL     1      -2.304   3.238  14.219  0.00  0.00    -0.028 A 
ATOM     12  C   UNL     1      -1.665   2.033  14.549  0.00  0.00    +0.005 A 
ATOM     13  C   UNL     1      -3.413   3.198  13.360  0.00  0.00    +0.005 A 
ATOM     14  C   UNL     1      -2.142   0.818  14.052  0.00  0.00    +0.000 A 
ATOM     15  C   UNL     1      -3.886   1.983  12.865  0.00  0.00    +0.000 A 
ATOM     16  C   UNL     1      -3.251   0.793  13.213  0.00  0.00    +0.000 A 
ENDBRANCH  10  11
ENDBRANCH   1  10
TORSDOF 2
ENDMDL
MODEL 6
REMARK VINA RESULT:    -4.216     30.348     31.874
REMARK INTER + INTRA:          -4.804
REMARK INTER:                  -4.636
REMARK INTRA:                  -0.168
REMARK UNBOUND:                -0.094
REMARK  Name = 1550473
REMARK  2 active torsions:
REMARK  status: ('A' for Active; 'I' for Inactive)
REMARK    1  A    between atoms: N_1  and  C_4
REMARK    2  A    between atoms: C_4  and  C_5
REMARK                            x       y       z     vdW  Elec       q    Type
REMARK                         _______ _______ _______ _____ _____    ______ ____
ROOT
ATOM      1  N   UNL     1     -13.320 -11.128  -0.447  0.00  0.00    -0.354 N 
ATOM      2  N   UNL     1     -14.858 -11.728   1.179  0.00  0.00    -0.372 N 
ATOM      3  N   UNL     1     -15.009 -12.689  -0.900  0.00  0.00    -0.372 N 
ATOM      4  C   UNL     1     -14.387 -11.846  -0.069  0.00  0.00    +0.166 C 
ATOM      5  H   UNL     1     -12.912 -10.484   0.221  0.00  0.00    +0.163 HD
ATOM      6  H   UNL     1     -15.658 -12.259   1.493  0.00  0.00    +0.159 HD
ATOM      7  H   UNL     1     -14.420 -11.118   1.858  0.00  0.00    +0.159 HD
ATOM      8  H   UNL     1     -14.706 -12.819  -1.856  0.00  0.00    +0.159 HD
ATOM      9  H   UNL     1     -15.819 -13.221  -0.606  0.00  0.00    +0.159 HD
ENDROOT
BRANCH   1  10
ATOM     10  C   UNL     1     -12.696 -11.223  -1.765  0.00  0.00    +0.151 C 
BRANCH  10  11
ATOM     11  C   UNL     1     -11.532 -12.172  -1.690  0.00  0.00    -0.028 A 
ATOM     12  C   UNL     1     -10.669 -12.154  -0.585  0.00  0.00    +0.005 A 
ATOM     13  C   UNL     1     -11.289 -13.095  -2.719  0.00  0.00    +0.005 A 
ATOM     14  C   UNL     1      -9.605 -13.055  -0.500  0.00  0.00    +0.000 A 
ATOM     15  C   UNL     1     -10.224 -13.992  -2.632  0.00  0.00    +0.000 A 
ATOM     16  C   UNL     1      -9.384 -13.973  -1.521  0.00  0.00    +0.000 A 
ENDBRANCH  10  11
ENDBRANCH   1  10
TORSDOF 2
ENDMDL
MODEL 7
REMARK VINA RESULT:    -4.186     22.043     23.296
REMARK INTER + INTRA:          -4.770
REMARK INTER:                  -4.637
REMARK INTRA:                  -0.133
REMARK UNBOUND:                -0.094
REMARK  Name = 1550473
REMARK  2 active torsions:
REMARK  status: ('A' for Active; 'I' for Inactive)
REMARK    1  A    between atoms: N_1  and  C_4
REMARK    2  A    between atoms: C_4  and  C_5
REMARK                            x       y       z     vdW  Elec       q    Type
REMARK                         _______ _______ _______ _____ _____    ______ ____
ROOT
ATOM      1  N   UNL     1      -1.914   1.143  15.646  0.00  0.00    -0.354 N 
ATOM      2  N   UNL     1      -0.868  -0.711  16.558  0.00  0.00    -0.372 N 
ATOM      3  N   UNL     1       0.306   1.253  16.388  0.00  0.00    -0.372 N 
ATOM      4  C   UNL     1      -0.830   0.576  16.191  0.00  0.00    +0.166 C 
ATOM      5  H   UNL     1      -2.735   0.567  15.496  0.00  0.00    +0.163 HD
ATOM      6  H   UNL     1      -0.066  -1.165  16.975  0.00  0.00    +0.159 HD
ATOM      7  H   UNL     1      -1.704  -1.272  16.448  0.00  0.00    +0.159 HD
ATOM      8  H   UNL     1       0.401   2.226  16.128  0.00  0.00    +0.159 HD
ATOM      9  H   UNL     1       1.123   0.813  16.793  0.00  0.00    +0.159 HD
ENDROOT
BRANCH   1  10
ATOM     10  C   UNL     1      -1.995   2.551  15.262  0.00  0.00    +0.151 C 
BRANCH  10  11
ATOM     11  C   UNL     1      -2.878   2.681  14.052  0.00  0.00    -0.028 A 
ATOM     12  C   UNL     1      -3.202   3.946  13.539  0.00  0.00    +0.005 A 
ATOM     13  C   UNL     1      -3.391   1.543  13.411  0.00  0.00    +0.005 A 
ATOM     14  C   UNL     1      -3.998   4.066  12.397  0.00  0.00    +0.000 A 
ATOM     15  C   UNL     1      -4.187   1.667  12.272  0.00  0.00    +0.000 A 
ATOM     16  C   UNL     1      -4.488   2.928  11.764  0.00  0.00    +0.000 A 
ENDBRANCH  10  11
ENDBRANCH   1  10
TORSDOF 2
ENDMDL
MODEL 8
REMARK VINA RESULT:    -4.168     30.630     31.303
REMARK INTER + INTRA:          -4.750
REMARK INTER:                  -4.622
REMARK INTRA:                  -0.128
REMARK UNBOUND:                -0.094
REMARK  Name = 1550473
REMARK  2 active torsions:
REMARK  status: ('A' for Active; 'I' for Inactive)
REMARK    1  A    between atoms: N_1  and  C_4
REMARK    2  A    between atoms: C_4  and  C_5
REMARK                            x       y       z     vdW  Elec       q    Type
REMARK                         _______ _______ _______ _____ _____    ______ ____
ROOT
ATOM      1  N   UNL     1     -11.178   5.822   1.755  0.00  0.00    -0.354 N 
ATOM      2  N   UNL     1     -12.548   4.166   0.892  0.00  0.00    -0.372 N 
ATOM      3  N   UNL     1     -13.512   6.005   1.869  0.00  0.00    -0.372 N 
ATOM      4  C   UNL     1     -12.406   5.344   1.512  0.00  0.00    +0.166 C 
ATOM      5  H   UNL     1     -10.380   5.258   1.486  0.00  0.00    +0.163 HD
ATOM      6  H   UNL     1     -13.462   3.782   0.692  0.00  0.00    +0.159 HD
ATOM      7  H   UNL     1     -11.749   3.626   0.583  0.00  0.00    +0.159 HD
ATOM      8  H   UNL     1     -13.473   6.896   2.346  0.00  0.00    +0.159 HD
ATOM      9  H   UNL     1     -14.435   5.631   1.688  0.00  0.00    +0.159 HD
ENDROOT
BRANCH   1  10
ATOM     10  C   UNL     1     -10.914   7.119   2.376  0.00  0.00    +0.151 C 
BRANCH  10  11
ATOM     11  C   UNL     1     -10.271   8.027   1.364  0.00  0.00    -0.028 A 
ATOM     12  C   UNL     1      -9.990   9.363   1.684  0.00  0.00    +0.005 A 
ATOM     13  C   UNL     1      -9.936   7.555   0.086  0.00  0.00    +0.005 A 
ATOM     14  C   UNL     1      -9.365  10.198   0.754  0.00  0.00    +0.000 A 
ATOM     15  C   UNL     1      -9.313   8.392  -0.840  0.00  0.00    +0.000 A 
ATOM     16  C   UNL     1      -9.025   9.713  -0.504  0.00  0.00    +0.000 A 
ENDBRANCH  10  11
ENDBRANCH   1  10
TORSDOF 2
ENDMDL
MODEL 9
REMARK VINA RESULT:    -4.127      9.093      9.712
REMARK INTER + INTRA:          -4.704
REMARK INTER:                  -4.576
REMARK INTRA:                  -0.128
REMARK UNBOUND:                -0.094
REMARK  Name = 1550473
REMARK  2 active torsions:
REMARK  status: ('A' for Active; 'I' for Inactive)
REMARK    1  A    between atoms: N_1  and  C_4
REMARK    2  A    between atoms: C_4  and  C_5
REMARK                            x       y       z     vdW  Elec       q    Type
REMARK                         _______ _______ _______ _____ _____    ______ ____
ROOT
ATOM      1  N   UNL     1      16.101 -10.914  -2.594  0.00  0.00    -0.354 N 
ATOM      2  N   UNL     1      17.964 -12.249  -2.263  0.00  0.00    -0.372 N 
ATOM      3  N   UNL     1      17.735 -11.142  -4.259  0.00  0.00    -0.372 N 
ATOM      4  C   UNL     1      17.255 -11.426  -3.044  0.00  0.00    +0.166 C 
ATOM      5  H   UNL     1      15.777 -11.192  -1.675  0.00  0.00    +0.163 HD
ATOM      6  H   UNL     1      18.840 -12.648  -2.573  0.00  0.00    +0.159 HD
ATOM      7  H   UNL     1      17.661 -12.489  -1.326  0.00  0.00    +0.159 HD
ATOM      8  H   UNL     1      17.244 -10.532  -4.899  0.00  0.00    +0.159 HD
ATOM      9  H   UNL     1      18.604 -11.541  -4.592  0.00  0.00    +0.159 HD
ENDROOT
BRANCH   1  10
ATOM     10  C   UNL     1      15.280  -9.965  -3.345  0.00  0.00    +0.151 C 
BRANCH  10  11
ATOM     11  C   UNL     1      14.589  -9.043  -2.379  0.00  0.00    -0.028 A 
ATOM     12  C   UNL     1      15.235  -8.626  -1.206  0.00  0.00    +0.005 A 
ATOM     13  C   UNL     1      13.290  -8.577  -2.635  0.00  0.00    +0.005 A 
ATOM     14  C   UNL     1      14.604  -7.746  -0.323  0.00  0.00    +0.000 A 
ATOM     15  C   UNL     1      12.664  -7.699  -1.751  0.00  0.00    +0.000 A 
ATOM     16  C   UNL     1      13.322  -7.281  -0.596  0.00  0.00    +0.000 A 
ENDBRANCH  10  11
ENDBRANCH   1  10
TORSDOF 2
ENDMDL
