MODEL 1
REMARK VINA RESULT:    -5.415      0.000      0.000
REMARK INTER + INTRA:          -6.138
REMARK INTER:                  -6.048
REMARK INTRA:                  -0.090
REMARK UNBOUND:                -0.090
REMARK  Name = 1550473
REMARK  2 active torsions:
REMARK  status: ('A' for Active; 'I' for Inactive)
REMARK    1  A    between atoms: N_1  and  C_4
REMARK    2  A    between atoms: C_4  and  C_5
REMARK                            x       y       z     vdW  Elec       q    Type
REMARK                         _______ _______ _______ _____ _____    ______ ____
ROOT
ATOM      1  N   UNL     1      -4.018  16.078  12.658  0.00  0.00    -0.354 N 
ATOM      2  N   UNL     1      -5.424  17.638  13.635  0.00  0.00    -0.372 N 
ATOM      3  N   UNL     1      -3.177  17.730  14.091  0.00  0.00    -0.372 N 
ATOM      4  C   UNL     1      -4.195  17.139  13.456  0.00  0.00    +0.166 C 
ATOM      5  H   UNL     1      -4.835  15.657  12.230  0.00  0.00    +0.163 HD
ATOM      6  H   UNL     1      -5.587  18.440  14.229  0.00  0.00    +0.159 HD
ATOM      7  H   UNL     1      -6.232  17.244  13.170  0.00  0.00    +0.159 HD
ATOM      8  H   UNL     1      -2.225  17.399  14.002  0.00  0.00    +0.159 HD
ATOM      9  H   UNL     1      -3.322  18.527  14.698  0.00  0.00    +0.159 HD
ENDROOT
BRANCH   1  10
ATOM     10  C   UNL     1      -2.715  15.491  12.354  0.00  0.00    +0.151 C 
BRANCH  10  11
ATOM     11  C   UNL     1      -2.308  15.892  10.962  0.00  0.00    -0.028 A 
ATOM     12  C   UNL     1      -1.062  15.508  10.446  0.00  0.00    +0.005 A 
ATOM     13  C   UNL     1      -3.168  16.650  10.153  0.00  0.00    +0.005 A 
ATOM     14  C   UNL     1      -0.696  15.855   9.143  0.00  0.00    +0.000 A 
ATOM     15  C   UNL     1      -2.799  16.995   8.852  0.00  0.00    +0.000 A 
ATOM     16  C   UNL     1      -1.564  16.595   8.347  0.00  0.00    +0.000 A 
ENDBRANCH  10  11
ENDBRANCH   1  10
TORSDOF 2
ENDMDL
MODEL 2
REMARK VINA RESULT:    -5.358     44.049     44.999
REMARK INTER + INTRA:          -6.074
REMARK INTER:                  -6.011
REMARK INTRA:                  -0.063
REMARK UNBOUND:                -0.090
REMARK  Name = 1550473
REMARK  2 active torsions:
REMARK  status: ('A' for Active; 'I' for Inactive)
REMARK    1  A    between atoms: N_1  and  C_4
REMARK    2  A    between atoms: C_4  and  C_5
REMARK                            x       y       z     vdW  Elec       q    Type
REMARK                         _______ _______ _______ _____ _____    ______ ____
ROOT
ATOM      1  N   UNL     1     -10.803 -20.892 -15.407  0.00  0.00    -0.354 N 
ATOM      2  N   UNL     1     -10.709 -20.916 -17.722  0.00  0.00    -0.372 N 
ATOM      3  N   UNL     1      -8.834 -20.318 -16.542  0.00  0.00    -0.372 N 
ATOM      4  C   UNL     1     -10.114 -20.707 -16.541  0.00  0.00    +0.166 C 
ATOM      5  H   UNL     1     -11.778 -21.158 -15.475  0.00  0.00    +0.163 HD
ATOM      6  H   UNL     1     -10.214 -20.788 -18.594  0.00  0.00    +0.159 HD
ATOM      7  H   UNL     1     -11.671 -21.227 -17.785  0.00  0.00    +0.159 HD
ATOM      8  H   UNL     1      -8.329 -20.138 -15.685  0.00  0.00    +0.159 HD
ATOM      9  H   UNL     1      -8.325 -20.173 -17.405  0.00  0.00    +0.159 HD
ENDROOT
BRANCH   1  10
ATOM     10  C   UNL     1     -10.232 -20.744 -14.070  0.00  0.00    +0.151 C 
BRANCH  10  11
ATOM     11  C   UNL     1     -10.728 -19.461 -13.463  0.00  0.00    -0.028 A 
ATOM     12  C   UNL     1     -10.482 -19.170 -12.113  0.00  0.00    +0.005 A 
ATOM     13  C   UNL     1     -11.439 -18.529 -14.234  0.00  0.00    +0.005 A 
ATOM     14  C   UNL     1     -10.917 -17.965 -11.556  0.00  0.00    +0.000 A 
ATOM     15  C   UNL     1     -11.873 -17.327 -13.674  0.00  0.00    +0.000 A 
ATOM     16  C   UNL     1     -11.609 -17.044 -12.336  0.00  0.00    +0.000 A 
ENDBRANCH  10  11
ENDBRANCH   1  10
TORSDOF 2
ENDMDL
MODEL 3
REMARK VINA RESULT:    -5.208     41.062     42.548
REMARK INTER + INTRA:          -5.907
REMARK INTER:                  -5.771
REMARK INTRA:                  -0.136
REMARK UNBOUND:                -0.090
REMARK  Name = 1550473
REMARK  2 active torsions:
REMARK  status: ('A' for Active; 'I' for Inactive)
REMARK    1  A    between atoms: N_1  and  C_4
REMARK    2  A    between atoms: C_4  and  C_5
REMARK                            x       y       z     vdW  Elec       q    Type
REMARK                         _______ _______ _______ _____ _____    ______ ____
ROOT
ATOM      1  N   UNL     1       4.531  -9.120 -20.155  0.00  0.00    -0.354 N 
ATOM      2  N   UNL     1       2.284  -8.562 -20.107  0.00  0.00    -0.372 N 
ATOM      3  N   UNL     1       3.228  -9.524 -18.250  0.00  0.00    -0.372 N 
ATOM      4  C   UNL     1       3.363  -9.074 -19.501  0.00  0.00    +0.166 C 
ATOM      5  H   UNL     1       4.561  -8.790 -21.113  0.00  0.00    +0.163 HD
ATOM      6  H   UNL     1       1.389  -8.511 -19.638  0.00  0.00    +0.159 HD
ATOM      7  H   UNL     1       2.327  -8.191 -21.048  0.00  0.00    +0.159 HD
ATOM      8  H   UNL     1       4.002  -9.928 -17.739  0.00  0.00    +0.159 HD
ATOM      9  H   UNL     1       2.338  -9.493 -17.768  0.00  0.00    +0.159 HD
ENDROOT
BRANCH   1  10
ATOM     10  C   UNL     1       5.778  -9.608 -19.567  0.00  0.00    +0.151 C 
BRANCH  10  11
ATOM     11  C   UNL     1       6.557 -10.352 -20.616  0.00  0.00    -0.028 A 
ATOM     12  C   UNL     1       6.012 -10.563 -21.892  0.00  0.00    +0.005 A 
ATOM     13  C   UNL     1       7.842 -10.844 -20.343  0.00  0.00    +0.005 A 
ATOM     14  C   UNL     1       6.748 -11.228 -22.876  0.00  0.00    +0.000 A 
ATOM     15  C   UNL     1       8.573 -11.509 -21.328  0.00  0.00    +0.000 A 
ATOM     16  C   UNL     1       8.026 -11.698 -22.595  0.00  0.00    +0.000 A 
ENDBRANCH  10  11
ENDBRANCH   1  10
TORSDOF 2
ENDMDL
MODEL 4
REMARK VINA RESULT:    -5.167     24.496     26.104
REMARK INTER + INTRA:          -5.860
REMARK INTER:                  -5.723
REMARK INTRA:                  -0.138
REMARK UNBOUND:                -0.090
REMARK  Name = 1550473
REMARK  2 active torsions:
REMARK  status: ('A' for Active; 'I' for Inactive)
REMARK    1  A    between atoms: N_1  and  C_4
REMARK    2  A    between atoms: C_4  and  C_5
REMARK                            x       y       z     vdW  Elec       q    Type
REMARK                         _______ _______ _______ _____ _____    ______ ____
ROOT
ATOM      1  N   UNL     1       3.285  -1.293  -8.356  0.00  0.00    -0.354 N 
ATOM      2  N   UNL     1       3.219  -0.809 -10.620  0.00  0.00    -0.372 N 
ATOM      3  N   UNL     1       1.458  -0.166  -9.297  0.00  0.00    -0.372 N 
ATOM      4  C   UNL     1       2.652  -0.758  -9.409  0.00  0.00    +0.166 C 
ATOM      5  H   UNL     1       4.173  -1.755  -8.513  0.00  0.00    +0.163 HD
ATOM      6  H   UNL     1       2.767  -0.411 -11.433  0.00  0.00    +0.159 HD
ATOM      7  H   UNL     1       4.129  -1.230 -10.766  0.00  0.00    +0.159 HD
ATOM      8  H   UNL     1       0.974  -0.100  -8.412  0.00  0.00    +0.159 HD
ATOM      9  H   UNL     1       0.984   0.228 -10.101  0.00  0.00    +0.159 HD
ENDROOT
BRANCH   1  10
ATOM     10  C   UNL     1       2.778  -1.243  -6.986  0.00  0.00    +0.151 C 
BRANCH  10  11
ATOM     11  C   UNL     1       3.818  -0.615  -6.100  0.00  0.00    -0.028 A 
ATOM     12  C   UNL     1       3.439   0.198  -5.022  0.00  0.00    +0.005 A 
ATOM     13  C   UNL     1       5.185  -0.834  -6.330  0.00  0.00    +0.005 A 
ATOM     14  C   UNL     1       4.404   0.757  -4.181  0.00  0.00    +0.000 A 
ATOM     15  C   UNL     1       6.146  -0.273  -5.489  0.00  0.00    +0.000 A 
ATOM     16  C   UNL     1       5.754   0.520  -4.413  0.00  0.00    +0.000 A 
ENDBRANCH  10  11
ENDBRANCH   1  10
TORSDOF 2
ENDMDL
MODEL 5
REMARK VINA RESULT:    -5.071      2.874      5.006
REMARK INTER + INTRA:          -5.753
REMARK INTER:                  -5.604
REMARK INTRA:                  -0.150
REMARK UNBOUND:                -0.090
REMARK  Name = 1550473
REMARK  2 active torsions:
REMARK  status: ('A' for Active; 'I' for Inactive)
REMARK    1  A    between atoms: N_1  and  C_4
REMARK    2  A    between atoms: C_4  and  C_5
REMARK                            x       y       z     vdW  Elec       q    Type
REMARK                         _______ _______ _______ _____ _____    ______ ____
ROOT
ATOM      1  N   UNL     1      -1.012  15.394  12.073  0.00  0.00    -0.354 N 
ATOM      2  N   UNL     1      -1.044  15.320   9.758  0.00  0.00    -0.372 N 
ATOM      3  N   UNL     1      -2.198  13.723  10.935  0.00  0.00    -0.372 N 
ATOM      4  C   UNL     1      -1.419  14.811  10.938  0.00  0.00    +0.166 C 
ATOM      5  H   UNL     1      -0.398  16.198  12.007  0.00  0.00    +0.163 HD
ATOM      6  H   UNL     1      -1.339  14.903   8.885  0.00  0.00    +0.159 HD
ATOM      7  H   UNL     1      -0.468  16.151   9.695  0.00  0.00    +0.159 HD
ATOM      8  H   UNL     1      -2.511  13.287  11.792  0.00  0.00    +0.159 HD
ATOM      9  H   UNL     1      -2.494  13.285  10.072  0.00  0.00    +0.159 HD
ENDROOT
BRANCH   1  10
ATOM     10  C   UNL     1      -1.408  14.951  13.408  0.00  0.00    +0.151 C 
BRANCH  10  11
ATOM     11  C   UNL     1      -2.644  15.698  13.828  0.00  0.00    -0.028 A 
ATOM     12  C   UNL     1      -3.900  15.075  13.793  0.00  0.00    +0.005 A 
ATOM     13  C   UNL     1      -2.564  17.029  14.268  0.00  0.00    +0.005 A 
ATOM     14  C   UNL     1      -5.043  15.760  14.211  0.00  0.00    +0.000 A 
ATOM     15  C   UNL     1      -3.708  17.709  14.684  0.00  0.00    +0.000 A 
ATOM     16  C   UNL     1      -4.947  17.074  14.658  0.00  0.00    +0.000 A 
ENDBRANCH  10  11
ENDBRANCH   1  10
TORSDOF 2
ENDMDL
MODEL 6
REMARK VINA RESULT:    -4.633      5.316      7.026
REMARK INTER + INTRA:          -5.264
REMARK INTER:                  -5.099
REMARK INTRA:                  -0.165
REMARK UNBOUND:                -0.090
REMARK  Name = 1550473
REMARK  2 active torsions:
REMARK  status: ('A' for Active; 'I' for Inactive)
REMARK    1  A    between atoms: N_1  and  C_4
REMARK    2  A    between atoms: C_4  and  C_5
REMARK                            x       y       z     vdW  Elec       q    Type
REMARK                         _______ _______ _______ _____ _____    ______ ____
ROOT
ATOM      1  N   UNL     1      -9.170  15.404  16.511  0.00  0.00    -0.354 N 
ATOM      2  N   UNL     1     -10.754  13.769  16.085  0.00  0.00    -0.372 N 
ATOM      3  N   UNL     1      -8.867  13.205  17.263  0.00  0.00    -0.372 N 
ATOM      4  C   UNL     1      -9.585  14.135  16.624  0.00  0.00    +0.166 C 
ATOM      5  H   UNL     1      -9.746  16.054  15.988  0.00  0.00    +0.163 HD
ATOM      6  H   UNL     1     -11.094  12.819  16.157  0.00  0.00    +0.159 HD
ATOM      7  H   UNL     1     -11.349  14.431  15.603  0.00  0.00    +0.159 HD
ATOM      8  H   UNL     1      -7.973  13.416  17.686  0.00  0.00    +0.159 HD
ATOM      9  H   UNL     1      -9.186  12.247  17.335  0.00  0.00    +0.159 HD
ENDROOT
BRANCH   1  10
ATOM     10  C   UNL     1      -7.938  15.918  17.108  0.00  0.00    +0.151 C 
BRANCH  10  11
ATOM     11  C   UNL     1      -6.928  16.158  16.019  0.00  0.00    -0.028 A 
ATOM     12  C   UNL     1      -6.682  17.456  15.550  0.00  0.00    +0.005 A 
ATOM     13  C   UNL     1      -6.210  15.091  15.457  0.00  0.00    +0.005 A 
ATOM     14  C   UNL     1      -5.723  17.683  14.560  0.00  0.00    +0.000 A 
ATOM     15  C   UNL     1      -5.253  15.322  14.469  0.00  0.00    +0.000 A 
ATOM     16  C   UNL     1      -5.009  16.618  14.022  0.00  0.00    +0.000 A 
ENDBRANCH  10  11
ENDBRANCH   1  10
TORSDOF 2
ENDMDL
MODEL 7
REMARK VINA RESULT:    -4.602     46.884     48.418
REMARK INTER + INTRA:          -5.230
REMARK INTER:                  -5.051
REMARK INTRA:                  -0.179
REMARK UNBOUND:                -0.090
REMARK  Name = 1550473
REMARK  2 active torsions:
REMARK  status: ('A' for Active; 'I' for Inactive)
REMARK    1  A    between atoms: N_1  and  C_4
REMARK    2  A    between atoms: C_4  and  C_5
REMARK                            x       y       z     vdW  Elec       q    Type
REMARK                         _______ _______ _______ _____ _____    ______ ____
ROOT
ATOM      1  N   UNL     1      -9.822  -5.738 -33.016  0.00  0.00    -0.354 N 
ATOM      2  N   UNL     1     -10.279  -7.943 -33.557  0.00  0.00    -0.372 N 
ATOM      3  N   UNL     1     -11.950  -6.651 -32.659  0.00  0.00    -0.372 N 
ATOM      4  C   UNL     1     -10.683  -6.762 -33.072  0.00  0.00    +0.166 C 
ATOM      5  H   UNL     1      -8.867  -5.894 -33.317  0.00  0.00    +0.163 HD
ATOM      6  H   UNL     1     -10.907  -8.733 -33.615  0.00  0.00    +0.159 HD
ATOM      7  H   UNL     1      -9.337  -8.084 -33.899  0.00  0.00    +0.159 HD
ATOM      8  H   UNL     1     -12.315  -5.789 -32.277  0.00  0.00    +0.159 HD
ATOM      9  H   UNL     1     -12.591  -7.434 -32.698  0.00  0.00    +0.159 HD
ENDROOT
BRANCH   1  10
ATOM     10  C   UNL     1     -10.176  -4.396 -32.556  0.00  0.00    +0.151 C 
BRANCH  10  11
ATOM     11  C   UNL     1      -9.690  -4.216 -31.144  0.00  0.00    -0.028 A 
ATOM     12  C   UNL     1     -10.558  -4.420 -30.061  0.00  0.00    +0.005 A 
ATOM     13  C   UNL     1      -8.361  -3.848 -30.883  0.00  0.00    +0.005 A 
ATOM     14  C   UNL     1     -10.099  -4.283 -28.749  0.00  0.00    +0.000 A 
ATOM     15  C   UNL     1      -7.908  -3.711 -29.571  0.00  0.00    +0.000 A 
ATOM     16  C   UNL     1      -8.776  -3.931 -28.504  0.00  0.00    +0.000 A 
ENDBRANCH  10  11
ENDBRANCH   1  10
TORSDOF 2
ENDMDL
MODEL 8
REMARK VINA RESULT:    -4.539     28.078     29.656
REMARK INTER + INTRA:          -5.160
REMARK INTER:                  -5.003
REMARK INTRA:                  -0.156
REMARK UNBOUND:                -0.090
REMARK  Name = 1550473
REMARK  2 active torsions:
REMARK  status: ('A' for Active; 'I' for Inactive)
REMARK    1  A    between atoms: N_1  and  C_4
REMARK    2  A    between atoms: C_4  and  C_5
REMARK                            x       y       z     vdW  Elec       q    Type
REMARK                         _______ _______ _______ _____ _____    ______ ____
ROOT
ATOM      1  N   UNL     1       5.211  -3.686 -10.905  0.00  0.00    -0.354 N 
ATOM      2  N   UNL     1       4.264  -5.466 -12.044  0.00  0.00    -0.372 N 
ATOM      3  N   UNL     1       5.538  -5.892 -10.183  0.00  0.00    -0.372 N 
ATOM      4  C   UNL     1       5.012  -5.005 -11.035  0.00  0.00    +0.166 C 
ATOM      5  H   UNL     1       4.810  -3.068 -11.600  0.00  0.00    +0.163 HD
ATOM      6  H   UNL     1       4.094  -6.456 -12.165  0.00  0.00    +0.159 HD
ATOM      7  H   UNL     1       3.827  -4.843 -12.711  0.00  0.00    +0.159 HD
ATOM      8  H   UNL     1       6.117  -5.608  -9.404  0.00  0.00    +0.159 HD
ATOM      9  H   UNL     1       5.388  -6.887 -10.295  0.00  0.00    +0.159 HD
ENDROOT
BRANCH   1  10
ATOM     10  C   UNL     1       5.965  -3.077  -9.810  0.00  0.00    +0.151 C 
BRANCH  10  11
ATOM     11  C   UNL     1       5.011  -2.359  -8.897  0.00  0.00    -0.028 A 
ATOM     12  C   UNL     1       5.306  -2.209  -7.534  0.00  0.00    +0.005 A 
ATOM     13  C   UNL     1       3.812  -1.820  -9.389  0.00  0.00    +0.005 A 
ATOM     14  C   UNL     1       4.434  -1.516  -6.691  0.00  0.00    +0.000 A 
ATOM     15  C   UNL     1       2.944  -1.129  -8.544  0.00  0.00    +0.000 A 
ATOM     16  C   UNL     1       3.256  -0.975  -7.196  0.00  0.00    +0.000 A 
ENDBRANCH  10  11
ENDBRANCH   1  10
TORSDOF 2
ENDMDL
MODEL 9
REMARK VINA RESULT:    -4.347      3.182      3.825
REMARK INTER + INTRA:          -4.946
REMARK INTER:                  -4.796
REMARK INTRA:                  -0.150
REMARK UNBOUND:                -0.090
REMARK  Name = 1550473
REMARK  2 active torsions:
REMARK  status: ('A' for Active; 'I' for Inactive)
REMARK    1  A    between atoms: N_1  and  C_4
REMARK    2  A    between atoms: C_4  and  C_5
REMARK                            x       y       z     vdW  Elec       q    Type
REMARK                         _______ _______ _______ _____ _____    ______ ____
ROOT
ATOM      1  N   UNL     1      -1.663  16.495  11.238  0.00  0.00    -0.354 N 
ATOM      2  N   UNL     1      -3.644  15.645  12.084  0.00  0.00    -0.372 N 
ATOM      3  N   UNL     1      -3.582  16.350   9.901  0.00  0.00    -0.372 N 
ATOM      4  C   UNL     1      -2.951  16.170  11.066  0.00  0.00    +0.166 C 
ATOM      5  H   UNL     1      -1.251  16.362  12.154  0.00  0.00    +0.163 HD
ATOM      6  H   UNL     1      -4.616  15.386  11.983  0.00  0.00    +0.159 HD
ATOM      7  H   UNL     1      -3.217  15.470  12.985  0.00  0.00    +0.159 HD
ATOM      8  H   UNL     1      -3.117  16.747   9.096  0.00  0.00    +0.159 HD
ATOM      9  H   UNL     1      -4.558  16.108   9.784  0.00  0.00    +0.159 HD
ENDROOT
BRANCH   1  10
ATOM     10  C   UNL     1      -0.804  17.023  10.179  0.00  0.00    +0.151 C 
BRANCH  10  11
ATOM     11  C   UNL     1      -0.891  18.525  10.179  0.00  0.00    -0.028 A 
ATOM     12  C   UNL     1      -0.564  19.256  11.330  0.00  0.00    +0.005 A 
ATOM     13  C   UNL     1      -1.293  19.222   9.029  0.00  0.00    +0.005 A 
ATOM     14  C   UNL     1      -0.615  20.652  11.321  0.00  0.00    +0.000 A 
ATOM     15  C   UNL     1      -1.344  20.615   9.025  0.00  0.00    +0.000 A 
ATOM     16  C   UNL     1      -1.002  21.330  10.171  0.00  0.00    +0.000 A 
ENDBRANCH  10  11
ENDBRANCH   1  10
TORSDOF 2
ENDMDL
