MODEL 1
REMARK VINA RESULT:    -4.582      0.000      0.000
REMARK INTER + INTRA:          -5.259
REMARK INTER:                  -5.118
REMARK INTRA:                  -0.142
REMARK UNBOUND:                -0.142
REMARK  Name = 1550473
REMARK  2 active torsions:
REMARK  status: ('A' for Active; 'I' for Inactive)
REMARK    1  A    between atoms: N_1  and  C_4
REMARK    2  A    between atoms: C_4  and  C_5
REMARK                            x       y       z     vdW  Elec       q    Type
REMARK                         _______ _______ _______ _____ _____    ______ ____
ROOT
ATOM      1  N   UNL     1     -21.309 -35.771  14.603  0.00  0.00    -0.354 N 
ATOM      2  N   UNL     1     -19.221 -35.621  15.596  0.00  0.00    -0.372 N 
ATOM      3  N   UNL     1     -19.501 -34.798  13.472  0.00  0.00    -0.372 N 
ATOM      4  C   UNL     1     -20.023 -35.397  14.548  0.00  0.00    +0.166 C 
ATOM      5  H   UNL     1     -21.636 -36.247  15.436  0.00  0.00    +0.163 HD
ATOM      6  H   UNL     1     -18.248 -35.347  15.585  0.00  0.00    +0.159 HD
ATOM      7  H   UNL     1     -19.563 -36.056  16.445  0.00  0.00    +0.159 HD
ATOM      8  H   UNL     1     -20.052 -34.606  12.646  0.00  0.00    +0.159 HD
ATOM      9  H   UNL     1     -18.526 -34.527  13.438  0.00  0.00    +0.159 HD
ENDROOT
BRANCH   1  10
ATOM     10  C   UNL     1     -22.278 -35.524  13.538  0.00  0.00    +0.151 C 
BRANCH  10  11
ATOM     11  C   UNL     1     -23.388 -34.661  14.073  0.00  0.00    -0.028 A 
ATOM     12  C   UNL     1     -23.464 -33.304  13.727  0.00  0.00    +0.005 A 
ATOM     13  C   UNL     1     -24.369 -35.196  14.922  0.00  0.00    +0.005 A 
ATOM     14  C   UNL     1     -24.511 -32.510  14.200  0.00  0.00    +0.000 A 
ATOM     15  C   UNL     1     -25.412 -34.400  15.393  0.00  0.00    +0.000 A 
ATOM     16  C   UNL     1     -25.485 -33.057  15.030  0.00  0.00    +0.000 A 
ENDBRANCH  10  11
ENDBRANCH   1  10
TORSDOF 2
ENDMDL
MODEL 2
REMARK VINA RESULT:    -4.253     54.307     55.570
REMARK INTER + INTRA:          -4.892
REMARK INTER:                  -4.765
REMARK INTRA:                  -0.127
REMARK UNBOUND:                -0.142
REMARK  Name = 1550473
REMARK  2 active torsions:
REMARK  status: ('A' for Active; 'I' for Inactive)
REMARK    1  A    between atoms: N_1  and  C_4
REMARK    2  A    between atoms: C_4  and  C_5
REMARK                            x       y       z     vdW  Elec       q    Type
REMARK                         _______ _______ _______ _____ _____    ______ ____
ROOT
ATOM      1  N   UNL     1      11.492   3.200  -6.877  0.00  0.00    -0.354 N 
ATOM      2  N   UNL     1      10.381   1.747  -8.299  0.00  0.00    -0.372 N 
ATOM      3  N   UNL     1      10.953   3.832  -9.068  0.00  0.00    -0.372 N 
ATOM      4  C   UNL     1      10.949   2.938  -8.074  0.00  0.00    +0.166 C 
ATOM      5  H   UNL     1      11.429   2.491  -6.155  0.00  0.00    +0.163 HD
ATOM      6  H   UNL     1       9.966   1.520  -9.193  0.00  0.00    +0.159 HD
ATOM      7  H   UNL     1      10.361   1.024  -7.590  0.00  0.00    +0.159 HD
ATOM      8  H   UNL     1      11.361   4.751  -8.961  0.00  0.00    +0.159 HD
ATOM      9  H   UNL     1      10.533   3.627  -9.966  0.00  0.00    +0.159 HD
ENDROOT
BRANCH   1  10
ATOM     10  C   UNL     1      12.182   4.445  -6.547  0.00  0.00    +0.151 C 
BRANCH  10  11
ATOM     11  C   UNL     1      12.115   4.665  -5.061  0.00  0.00    -0.028 A 
ATOM     12  C   UNL     1      11.645   3.652  -4.212  0.00  0.00    +0.005 A 
ATOM     13  C   UNL     1      12.524   5.882  -4.495  0.00  0.00    +0.005 A 
ATOM     14  C   UNL     1      11.611   3.845  -2.828  0.00  0.00    +0.000 A 
ATOM     15  C   UNL     1      12.487   6.071  -3.113  0.00  0.00    +0.000 A 
ATOM     16  C   UNL     1      12.033   5.051  -2.280  0.00  0.00    +0.000 A 
ENDBRANCH  10  11
ENDBRANCH   1  10
TORSDOF 2
ENDMDL
MODEL 3
REMARK VINA RESULT:    -4.220     34.035     34.842
REMARK INTER + INTRA:          -4.855
REMARK INTER:                  -4.730
REMARK INTRA:                  -0.124
REMARK UNBOUND:                -0.142
REMARK  Name = 1550473
REMARK  2 active torsions:
REMARK  status: ('A' for Active; 'I' for Inactive)
REMARK    1  A    between atoms: N_1  and  C_4
REMARK    2  A    between atoms: C_4  and  C_5
REMARK                            x       y       z     vdW  Elec       q    Type
REMARK                         _______ _______ _______ _____ _____    ______ ____
ROOT
ATOM      1  N   UNL     1      -4.109 -14.438  -6.731  0.00  0.00    -0.354 N 
ATOM      2  N   UNL     1      -5.923 -13.762  -8.002  0.00  0.00    -0.372 N 
ATOM      3  N   UNL     1      -5.639 -15.999  -7.576  0.00  0.00    -0.372 N 
ATOM      4  C   UNL     1      -5.212 -14.741  -7.428  0.00  0.00    +0.166 C 
ATOM      5  H   UNL     1      -3.822 -13.468  -6.682  0.00  0.00    +0.163 HD
ATOM      6  H   UNL     1      -6.762 -13.960  -8.531  0.00  0.00    +0.159 HD
ATOM      7  H   UNL     1      -5.659 -12.789  -7.913  0.00  0.00    +0.159 HD
ATOM      8  H   UNL     1      -5.144 -16.783  -7.173  0.00  0.00    +0.159 HD
ATOM      9  H   UNL     1      -6.470 -16.218  -8.112  0.00  0.00    +0.159 HD
ENDROOT
BRANCH   1  10
ATOM     10  C   UNL     1      -3.294 -15.424  -6.023  0.00  0.00    +0.151 C 
BRANCH  10  11
ATOM     11  C   UNL     1      -2.358 -14.707  -5.089  0.00  0.00    -0.028 A 
ATOM     12  C   UNL     1      -1.464 -15.428  -4.285  0.00  0.00    +0.005 A 
ATOM     13  C   UNL     1      -2.357 -13.306  -5.007  0.00  0.00    +0.005 A 
ATOM     14  C   UNL     1      -0.573 -14.762  -3.439  0.00  0.00    +0.000 A 
ATOM     15  C   UNL     1      -1.467 -12.644  -4.161  0.00  0.00    +0.000 A 
ATOM     16  C   UNL     1      -0.574 -13.372  -3.379  0.00  0.00    +0.000 A 
ENDBRANCH  10  11
ENDBRANCH   1  10
TORSDOF 2
ENDMDL
MODEL 4
REMARK VINA RESULT:    -4.211      3.375      4.419
REMARK INTER + INTRA:          -4.845
REMARK INTER:                  -4.674
REMARK INTRA:                  -0.172
REMARK UNBOUND:                -0.142
REMARK  Name = 1550473
REMARK  2 active torsions:
REMARK  status: ('A' for Active; 'I' for Inactive)
REMARK    1  A    between atoms: N_1  and  C_4
REMARK    2  A    between atoms: C_4  and  C_5
REMARK                            x       y       z     vdW  Elec       q    Type
REMARK                         _______ _______ _______ _____ _____    ______ ____
ROOT
ATOM      1  N   UNL     1     -21.122 -34.785  12.703  0.00  0.00    -0.354 N 
ATOM      2  N   UNL     1     -19.667 -35.210  14.455  0.00  0.00    -0.372 N 
ATOM      3  N   UNL     1     -18.944 -35.552  12.304  0.00  0.00    -0.372 N 
ATOM      4  C   UNL     1     -19.919 -35.181  13.140  0.00  0.00    +0.166 C 
ATOM      5  H   UNL     1     -21.828 -34.545  13.389  0.00  0.00    +0.163 HD
ATOM      6  H   UNL     1     -18.768 -35.501  14.814  0.00  0.00    +0.159 HD
ATOM      7  H   UNL     1     -20.360 -34.926  15.136  0.00  0.00    +0.159 HD
ATOM      8  H   UNL     1     -19.072 -35.558  11.301  0.00  0.00    +0.159 HD
ATOM      9  H   UNL     1     -18.041 -35.858  12.645  0.00  0.00    +0.159 HD
ENDROOT
BRANCH   1  10
ATOM     10  C   UNL     1     -21.480 -34.666  11.291  0.00  0.00    +0.151 C 
BRANCH  10  11
ATOM     11  C   UNL     1     -22.232 -35.898  10.869  0.00  0.00    -0.028 A 
ATOM     12  C   UNL     1     -21.575 -36.938  10.195  0.00  0.00    +0.005 A 
ATOM     13  C   UNL     1     -23.601 -36.034  11.146  0.00  0.00    +0.005 A 
ATOM     14  C   UNL     1     -22.266 -38.095   9.830  0.00  0.00    +0.000 A 
ATOM     15  C   UNL     1     -24.288 -37.191  10.779  0.00  0.00    +0.000 A 
ATOM     16  C   UNL     1     -23.620 -38.223  10.123  0.00  0.00    +0.000 A 
ENDBRANCH  10  11
ENDBRANCH   1  10
TORSDOF 2
ENDMDL
MODEL 5
REMARK VINA RESULT:    -3.960      2.502      3.019
REMARK INTER + INTRA:          -4.565
REMARK INTER:                  -4.383
REMARK INTRA:                  -0.182
REMARK UNBOUND:                -0.142
REMARK  Name = 1550473
REMARK  2 active torsions:
REMARK  status: ('A' for Active; 'I' for Inactive)
REMARK    1  A    between atoms: N_1  and  C_4
REMARK    2  A    between atoms: C_4  and  C_5
REMARK                            x       y       z     vdW  Elec       q    Type
REMARK                         _______ _______ _______ _____ _____    ______ ____
ROOT
ATOM      1  N   UNL     1     -21.566 -36.287  10.961  0.00  0.00    -0.354 N 
ATOM      2  N   UNL     1     -20.818 -38.335  11.744  0.00  0.00    -0.372 N 
ATOM      3  N   UNL     1     -19.765 -36.423  12.454  0.00  0.00    -0.372 N 
ATOM      4  C   UNL     1     -20.719 -37.000  11.716  0.00  0.00    +0.166 C 
ATOM      5  H   UNL     1     -22.248 -36.786  10.401  0.00  0.00    +0.163 HD
ATOM      6  H   UNL     1     -20.195 -38.899  12.306  0.00  0.00    +0.159 HD
ATOM      7  H   UNL     1     -21.529 -38.828  11.219  0.00  0.00    +0.159 HD
ATOM      8  H   UNL     1     -19.634 -35.421  12.472  0.00  0.00    +0.159 HD
ATOM      9  H   UNL     1     -19.124 -36.972  13.015  0.00  0.00    +0.159 HD
ENDROOT
BRANCH   1  10
ATOM     10  C   UNL     1     -21.578 -34.827  10.902  0.00  0.00    +0.151 C 
BRANCH  10  11
ATOM     11  C   UNL     1     -22.711 -34.310  11.746  0.00  0.00    -0.028 A 
ATOM     12  C   UNL     1     -24.016 -34.264  11.233  0.00  0.00    +0.005 A 
ATOM     13  C   UNL     1     -22.487 -33.872  13.060  0.00  0.00    +0.005 A 
ATOM     14  C   UNL     1     -25.074 -33.812  12.026  0.00  0.00    +0.000 A 
ATOM     15  C   UNL     1     -23.546 -33.421  13.848  0.00  0.00    +0.000 A 
ATOM     16  C   UNL     1     -24.839 -33.394  13.332  0.00  0.00    +0.000 A 
ENDBRANCH  10  11
ENDBRANCH   1  10
TORSDOF 2
ENDMDL
MODEL 6
REMARK VINA RESULT:    -3.958      1.858      2.257
REMARK INTER + INTRA:          -4.562
REMARK INTER:                  -4.392
REMARK INTRA:                  -0.169
REMARK UNBOUND:                -0.142
REMARK  Name = 1550473
REMARK  2 active torsions:
REMARK  status: ('A' for Active; 'I' for Inactive)
REMARK    1  A    between atoms: N_1  and  C_4
REMARK    2  A    between atoms: C_4  and  C_5
REMARK                            x       y       z     vdW  Elec       q    Type
REMARK                         _______ _______ _______ _____ _____    ______ ____
ROOT
ATOM      1  N   UNL     1     -21.745 -37.207  13.292  0.00  0.00    -0.354 N 
ATOM      2  N   UNL     1     -21.073 -38.207  11.314  0.00  0.00    -0.372 N 
ATOM      3  N   UNL     1     -19.813 -36.494  12.174  0.00  0.00    -0.372 N 
ATOM      4  C   UNL     1     -20.880 -37.294  12.273  0.00  0.00    +0.166 C 
ATOM      5  H   UNL     1     -22.550 -37.822  13.293  0.00  0.00    +0.163 HD
ATOM      6  H   UNL     1     -20.435 -38.299  10.535  0.00  0.00    +0.159 HD
ATOM      7  H   UNL     1     -21.854 -38.852  11.342  0.00  0.00    +0.159 HD
ATOM      8  H   UNL     1     -19.613 -35.780  12.862  0.00  0.00    +0.159 HD
ATOM      9  H   UNL     1     -19.169 -36.562  11.396  0.00  0.00    +0.159 HD
ENDROOT
BRANCH   1  10
ATOM     10  C   UNL     1     -21.596 -36.283  14.415  0.00  0.00    +0.151 C 
BRANCH  10  11
ATOM     11  C   UNL     1     -22.640 -35.206  14.308  0.00  0.00    -0.028 A 
ATOM     12  C   UNL     1     -22.459 -34.123  13.436  0.00  0.00    +0.005 A 
ATOM     13  C   UNL     1     -23.815 -35.267  15.073  0.00  0.00    +0.005 A 
ATOM     14  C   UNL     1     -23.442 -33.139  13.314  0.00  0.00    +0.000 A 
ATOM     15  C   UNL     1     -24.794 -34.281  14.948  0.00  0.00    +0.000 A 
ATOM     16  C   UNL     1     -24.609 -33.218  14.067  0.00  0.00    +0.000 A 
ENDBRANCH  10  11
ENDBRANCH   1  10
TORSDOF 2
ENDMDL
MODEL 7
REMARK VINA RESULT:    -3.837     38.755     40.048
REMARK INTER + INTRA:          -4.427
REMARK INTER:                  -4.289
REMARK INTRA:                  -0.138
REMARK UNBOUND:                -0.142
REMARK  Name = 1550473
REMARK  2 active torsions:
REMARK  status: ('A' for Active; 'I' for Inactive)
REMARK    1  A    between atoms: N_1  and  C_4
REMARK    2  A    between atoms: C_4  and  C_5
REMARK                            x       y       z     vdW  Elec       q    Type
REMARK                         _______ _______ _______ _____ _____    ______ ____
ROOT
ATOM      1  N   UNL     1     -14.796  -2.456 -10.283  0.00  0.00    -0.354 N 
ATOM      2  N   UNL     1     -15.233  -0.247  -9.743  0.00  0.00    -0.372 N 
ATOM      3  N   UNL     1     -16.992  -1.641 -10.219  0.00  0.00    -0.372 N 
ATOM      4  C   UNL     1     -15.673  -1.463 -10.086  0.00  0.00    +0.166 C 
ATOM      5  H   UNL     1     -13.807  -2.249 -10.197  0.00  0.00    +0.163 HD
ATOM      6  H   UNL     1     -15.871   0.521  -9.583  0.00  0.00    +0.159 HD
ATOM      7  H   UNL     1     -14.247  -0.055  -9.612  0.00  0.00    +0.159 HD
ATOM      8  H   UNL     1     -17.388  -2.534 -10.481  0.00  0.00    +0.159 HD
ATOM      9  H   UNL     1     -17.646  -0.882 -10.075  0.00  0.00    +0.159 HD
ENDROOT
BRANCH   1  10
ATOM     10  C   UNL     1     -15.175  -3.830 -10.607  0.00  0.00    +0.151 C 
BRANCH  10  11
ATOM     11  C   UNL     1     -14.312  -4.777  -9.818  0.00  0.00    -0.028 A 
ATOM     12  C   UNL     1     -14.220  -6.128 -10.183  0.00  0.00    +0.005 A 
ATOM     13  C   UNL     1     -13.580  -4.327  -8.709  0.00  0.00    +0.005 A 
ATOM     14  C   UNL     1     -13.395  -7.001  -9.469  0.00  0.00    +0.000 A 
ATOM     15  C   UNL     1     -12.759  -5.202  -7.998  0.00  0.00    +0.000 A 
ATOM     16  C   UNL     1     -12.665  -6.538  -8.380  0.00  0.00    +0.000 A 
ENDBRANCH  10  11
ENDBRANCH   1  10
TORSDOF 2
ENDMDL
MODEL 8
REMARK VINA RESULT:    -3.800     45.983     47.295
REMARK INTER + INTRA:          -4.386
REMARK INTER:                  -4.287
REMARK INTRA:                  -0.099
REMARK UNBOUND:                -0.142
REMARK  Name = 1550473
REMARK  2 active torsions:
REMARK  status: ('A' for Active; 'I' for Inactive)
REMARK    1  A    between atoms: N_1  and  C_4
REMARK    2  A    between atoms: C_4  and  C_5
REMARK                            x       y       z     vdW  Elec       q    Type
REMARK                         _______ _______ _______ _____ _____    ______ ____
ROOT
ATOM      1  N   UNL     1     -11.083   7.769  -5.869  0.00  0.00    -0.354 N 
ATOM      2  N   UNL     1      -9.427   8.912  -4.722  0.00  0.00    -0.372 N 
ATOM      3  N   UNL     1     -11.546   9.791  -4.779  0.00  0.00    -0.372 N 
ATOM      4  C   UNL     1     -10.698   8.818  -5.130  0.00  0.00    +0.166 C 
ATOM      5  H   UNL     1     -10.385   7.081  -6.128  0.00  0.00    +0.163 HD
ATOM      6  H   UNL     1      -9.109   9.690  -4.160  0.00  0.00    +0.159 HD
ATOM      7  H   UNL     1      -8.743   8.199  -4.943  0.00  0.00    +0.159 HD
ATOM      8  H   UNL     1     -12.517   9.783  -5.060  0.00  0.00    +0.159 HD
ATOM      9  H   UNL     1     -11.243  10.584  -4.227  0.00  0.00    +0.159 HD
ENDROOT
BRANCH   1  10
ATOM     10  C   UNL     1     -12.456   7.545  -6.320  0.00  0.00    +0.151 C 
BRANCH  10  11
ATOM     11  C   UNL     1     -12.637   6.087  -6.636  0.00  0.00    -0.028 A 
ATOM     12  C   UNL     1     -12.611   5.638  -7.965  0.00  0.00    +0.005 A 
ATOM     13  C   UNL     1     -12.830   5.147  -5.612  0.00  0.00    +0.005 A 
ATOM     14  C   UNL     1     -12.749   4.279  -8.258  0.00  0.00    +0.000 A 
ATOM     15  C   UNL     1     -12.969   3.791  -5.908  0.00  0.00    +0.000 A 
ATOM     16  C   UNL     1     -12.926   3.357  -7.231  0.00  0.00    +0.000 A 
ENDBRANCH  10  11
ENDBRANCH   1  10
TORSDOF 2
ENDMDL
MODEL 9
REMARK VINA RESULT:    -3.749     52.242     53.562
REMARK INTER + INTRA:          -4.329
REMARK INTER:                  -4.235
REMARK INTRA:                  -0.094
REMARK UNBOUND:                -0.142
REMARK  Name = 1550473
REMARK  2 active torsions:
REMARK  status: ('A' for Active; 'I' for Inactive)
REMARK    1  A    between atoms: N_1  and  C_4
REMARK    2  A    between atoms: C_4  and  C_5
REMARK                            x       y       z     vdW  Elec       q    Type
REMARK                         _______ _______ _______ _____ _____    ______ ____
ROOT
ATOM      1  N   UNL     1      10.592   2.833  -8.354  0.00  0.00    -0.354 N 
ATOM      2  N   UNL     1      11.203   4.206 -10.116  0.00  0.00    -0.372 N 
ATOM      3  N   UNL     1      11.902   4.743  -7.998  0.00  0.00    -0.372 N 
ATOM      4  C   UNL     1      11.230   3.920  -8.809  0.00  0.00    +0.166 C 
ATOM      5  H   UNL     1      10.075   2.266  -9.016  0.00  0.00    +0.163 HD
ATOM      6  H   UNL     1      11.678   5.017 -10.489  0.00  0.00    +0.159 HD
ATOM      7  H   UNL     1      10.724   3.612 -10.782  0.00  0.00    +0.159 HD
ATOM      8  H   UNL     1      11.956   4.586  -7.000  0.00  0.00    +0.159 HD
ATOM      9  H   UNL     1      12.374   5.566  -8.350  0.00  0.00    +0.159 HD
ENDROOT
BRANCH   1  10
ATOM     10  C   UNL     1      10.604   2.402  -6.957  0.00  0.00    +0.151 C 
BRANCH  10  11
ATOM     11  C   UNL     1       9.835   1.116  -6.832  0.00  0.00    -0.028 A 
ATOM     12  C   UNL     1      10.366  -0.082  -7.331  0.00  0.00    +0.005 A 
ATOM     13  C   UNL     1       8.577   1.089  -6.211  0.00  0.00    +0.005 A 
ATOM     14  C   UNL     1       9.665  -1.282  -7.189  0.00  0.00    +0.000 A 
ATOM     15  C   UNL     1       7.880  -0.112  -6.072  0.00  0.00    +0.000 A 
ATOM     16  C   UNL     1       8.425  -1.297  -6.559  0.00  0.00    +0.000 A 
ENDBRANCH  10  11
ENDBRANCH   1  10
TORSDOF 2
ENDMDL
