MODEL 1
REMARK VINA RESULT:    -6.787      0.000      0.000
REMARK INTER + INTRA:          -7.733
REMARK INTER:                  -7.580
REMARK INTRA:                  -0.153
REMARK UNBOUND:                -0.153
REMARK  Name = 1550473
REMARK  2 active torsions:
REMARK  status: ('A' for Active; 'I' for Inactive)
REMARK    1  A    between atoms: N_1  and  C_4
REMARK    2  A    between atoms: C_4  and  C_5
REMARK                            x       y       z     vdW  Elec       q    Type
REMARK                         _______ _______ _______ _____ _____    ______ ____
ROOT
ATOM      1  N   UNL     1      -4.234  -1.244  -5.175  0.00  0.00    -0.354 N 
ATOM      2  N   UNL     1      -3.414   0.657  -6.214  0.00  0.00    -0.372 N 
ATOM      3  N   UNL     1      -5.449   0.760  -5.158  0.00  0.00    -0.372 N 
ATOM      4  C   UNL     1      -4.373   0.046  -5.508  0.00  0.00    +0.166 C 
ATOM      5  H   UNL     1      -3.409  -1.738  -5.496  0.00  0.00    +0.163 HD
ATOM      6  H   UNL     1      -3.490   1.630  -6.478  0.00  0.00    +0.159 HD
ATOM      7  H   UNL     1      -2.569   0.173  -6.495  0.00  0.00    +0.159 HD
ATOM      8  H   UNL     1      -6.211   0.356  -4.630  0.00  0.00    +0.159 HD
ATOM      9  H   UNL     1      -5.548   1.732  -5.422  0.00  0.00    +0.159 HD
ENDROOT
BRANCH   1  10
ATOM     10  C   UNL     1      -5.195  -1.987  -4.362  0.00  0.00    +0.151 C 
BRANCH  10  11
ATOM     11  C   UNL     1      -6.111  -2.761  -5.269  0.00  0.00    -0.028 A 
ATOM     12  C   UNL     1      -5.630  -3.306  -6.469  0.00  0.00    +0.005 A 
ATOM     13  C   UNL     1      -7.459  -2.958  -4.932  0.00  0.00    +0.005 A 
ATOM     14  C   UNL     1      -6.473  -4.051  -7.298  0.00  0.00    +0.000 A 
ATOM     15  C   UNL     1      -8.297  -3.701  -5.763  0.00  0.00    +0.000 A 
ATOM     16  C   UNL     1      -7.803  -4.250  -6.944  0.00  0.00    +0.000 A 
ENDBRANCH  10  11
ENDBRANCH   1  10
TORSDOF 2
ENDMDL
MODEL 2
REMARK VINA RESULT:    -6.027      2.244      2.989
REMARK INTER + INTRA:          -6.885
REMARK INTER:                  -6.786
REMARK INTRA:                  -0.099
REMARK UNBOUND:                -0.153
REMARK  Name = 1550473
REMARK  2 active torsions:
REMARK  status: ('A' for Active; 'I' for Inactive)
REMARK    1  A    between atoms: N_1  and  C_4
REMARK    2  A    between atoms: C_4  and  C_5
REMARK                            x       y       z     vdW  Elec       q    Type
REMARK                         _______ _______ _______ _____ _____    ______ ____
ROOT
ATOM      1  N   UNL     1      -5.275  -3.151  -3.469  0.00  0.00    -0.354 N 
ATOM      2  N   UNL     1      -3.525  -3.458  -1.983  0.00  0.00    -0.372 N 
ATOM      3  N   UNL     1      -4.291  -1.330  -2.369  0.00  0.00    -0.372 N 
ATOM      4  C   UNL     1      -4.375  -2.641  -2.617  0.00  0.00    +0.166 C 
ATOM      5  H   UNL     1      -5.268  -4.150  -3.636  0.00  0.00    +0.163 HD
ATOM      6  H   UNL     1      -2.838  -3.104  -1.332  0.00  0.00    +0.159 HD
ATOM      7  H   UNL     1      -3.550  -4.462  -2.118  0.00  0.00    +0.159 HD
ATOM      8  H   UNL     1      -4.900  -0.660  -2.820  0.00  0.00    +0.159 HD
ATOM      9  H   UNL     1      -3.602  -0.955  -1.730  0.00  0.00    +0.159 HD
ENDROOT
BRANCH   1  10
ATOM     10  C   UNL     1      -6.281  -2.353  -4.169  0.00  0.00    +0.151 C 
BRANCH  10  11
ATOM     11  C   UNL     1      -6.821  -3.149  -5.325  0.00  0.00    -0.028 A 
ATOM     12  C   UNL     1      -8.112  -3.695  -5.272  0.00  0.00    +0.005 A 
ATOM     13  C   UNL     1      -6.050  -3.357  -6.478  0.00  0.00    +0.005 A 
ATOM     14  C   UNL     1      -8.626  -4.409  -6.357  0.00  0.00    +0.000 A 
ATOM     15  C   UNL     1      -6.566  -4.071  -7.560  0.00  0.00    +0.000 A 
ATOM     16  C   UNL     1      -7.855  -4.595  -7.499  0.00  0.00    +0.000 A 
ENDBRANCH  10  11
ENDBRANCH   1  10
TORSDOF 2
ENDMDL
MODEL 3
REMARK VINA RESULT:    -5.962      2.924      3.904
REMARK INTER + INTRA:          -6.812
REMARK INTER:                  -6.723
REMARK INTRA:                  -0.089
REMARK UNBOUND:                -0.153
REMARK  Name = 1550473
REMARK  2 active torsions:
REMARK  status: ('A' for Active; 'I' for Inactive)
REMARK    1  A    between atoms: N_1  and  C_4
REMARK    2  A    between atoms: C_4  and  C_5
REMARK                            x       y       z     vdW  Elec       q    Type
REMARK                         _______ _______ _______ _____ _____    ______ ____
ROOT
ATOM      1  N   UNL     1      -6.376  -0.317  -3.823  0.00  0.00    -0.354 N 
ATOM      2  N   UNL     1      -5.726   1.252  -5.397  0.00  0.00    -0.372 N 
ATOM      3  N   UNL     1      -6.223  -0.878  -6.093  0.00  0.00    -0.372 N 
ATOM      4  C   UNL     1      -6.113   0.006  -5.096  0.00  0.00    +0.166 C 
ATOM      5  H   UNL     1      -6.245   0.390  -3.109  0.00  0.00    +0.163 HD
ATOM      6  H   UNL     1      -5.524   1.526  -6.349  0.00  0.00    +0.159 HD
ATOM      7  H   UNL     1      -5.640   1.969  -4.688  0.00  0.00    +0.159 HD
ATOM      8  H   UNL     1      -6.504  -1.836  -5.931  0.00  0.00    +0.159 HD
ATOM      9  H   UNL     1      -6.013  -0.626  -7.051  0.00  0.00    +0.159 HD
ENDROOT
BRANCH   1  10
ATOM     10  C   UNL     1      -6.855  -1.631  -3.395  0.00  0.00    +0.151 C 
BRANCH  10  11
ATOM     11  C   UNL     1      -5.694  -2.432  -2.875  0.00  0.00    -0.028 A 
ATOM     12  C   UNL     1      -4.470  -1.808  -2.588  0.00  0.00    +0.005 A 
ATOM     13  C   UNL     1      -5.812  -3.814  -2.661  0.00  0.00    +0.005 A 
ATOM     14  C   UNL     1      -3.400  -2.547  -2.077  0.00  0.00    +0.000 A 
ATOM     15  C   UNL     1      -4.741  -4.547  -2.150  0.00  0.00    +0.000 A 
ATOM     16  C   UNL     1      -3.536  -3.913  -1.856  0.00  0.00    +0.000 A 
ENDBRANCH  10  11
ENDBRANCH   1  10
TORSDOF 2
ENDMDL
MODEL 4
REMARK VINA RESULT:    -5.925      1.948      3.264
REMARK INTER + INTRA:          -6.771
REMARK INTER:                  -6.658
REMARK INTRA:                  -0.113
REMARK UNBOUND:                -0.153
REMARK  Name = 1550473
REMARK  2 active torsions:
REMARK  status: ('A' for Active; 'I' for Inactive)
REMARK    1  A    between atoms: N_1  and  C_4
REMARK    2  A    between atoms: C_4  and  C_5
REMARK                            x       y       z     vdW  Elec       q    Type
REMARK                         _______ _______ _______ _____ _____    ______ ____
ROOT
ATOM      1  N   UNL     1      -4.078  -0.703  -5.861  0.00  0.00    -0.354 N 
ATOM      2  N   UNL     1      -3.682   1.552  -5.505  0.00  0.00    -0.372 N 
ATOM      3  N   UNL     1      -5.810   0.741  -5.223  0.00  0.00    -0.372 N 
ATOM      4  C   UNL     1      -4.529   0.515  -5.532  0.00  0.00    +0.166 C 
ATOM      5  H   UNL     1      -3.102  -0.802  -6.114  0.00  0.00    +0.163 HD
ATOM      6  H   UNL     1      -3.993   2.481  -5.257  0.00  0.00    +0.159 HD
ATOM      7  H   UNL     1      -2.697   1.441  -5.714  0.00  0.00    +0.159 HD
ATOM      8  H   UNL     1      -6.501   0.003  -5.230  0.00  0.00    +0.159 HD
ATOM      9  H   UNL     1      -6.143   1.667  -4.983  0.00  0.00    +0.159 HD
ENDROOT
BRANCH   1  10
ATOM     10  C   UNL     1      -4.906  -1.907  -5.867  0.00  0.00    +0.151 C 
BRANCH  10  11
ATOM     11  C   UNL     1      -4.861  -2.542  -4.505  0.00  0.00    -0.028 A 
ATOM     12  C   UNL     1      -5.984  -3.205  -3.990  0.00  0.00    +0.005 A 
ATOM     13  C   UNL     1      -3.695  -2.489  -3.725  0.00  0.00    +0.005 A 
ATOM     14  C   UNL     1      -5.933  -3.821  -2.737  0.00  0.00    +0.000 A 
ATOM     15  C   UNL     1      -3.648  -3.104  -2.475  0.00  0.00    +0.000 A 
ATOM     16  C   UNL     1      -4.766  -3.772  -1.982  0.00  0.00    +0.000 A 
ENDBRANCH  10  11
ENDBRANCH   1  10
TORSDOF 2
ENDMDL
MODEL 5
REMARK VINA RESULT:    -5.596      1.373      2.032
REMARK INTER + INTRA:          -6.403
REMARK INTER:                  -6.432
REMARK INTRA:                   0.028
REMARK UNBOUND:                -0.153
REMARK  Name = 1550473
REMARK  2 active torsions:
REMARK  status: ('A' for Active; 'I' for Inactive)
REMARK    1  A    between atoms: N_1  and  C_4
REMARK    2  A    between atoms: C_4  and  C_5
REMARK                            x       y       z     vdW  Elec       q    Type
REMARK                         _______ _______ _______ _____ _____    ______ ____
ROOT
ATOM      1  N   UNL     1      -5.940  -0.487  -4.258  0.00  0.00    -0.354 N 
ATOM      2  N   UNL     1      -5.474   1.537  -5.282  0.00  0.00    -0.372 N 
ATOM      3  N   UNL     1      -7.541   0.590  -5.588  0.00  0.00    -0.372 N 
ATOM      4  C   UNL     1      -6.324   0.533  -5.037  0.00  0.00    +0.166 C 
ATOM      5  H   UNL     1      -4.994  -0.487  -3.895  0.00  0.00    +0.163 HD
ATOM      6  H   UNL     1      -5.736   2.321  -5.863  0.00  0.00    +0.159 HD
ATOM      7  H   UNL     1      -4.544   1.557  -4.881  0.00  0.00    +0.159 HD
ATOM      8  H   UNL     1      -8.228  -0.139  -5.446  0.00  0.00    +0.159 HD
ATOM      9  H   UNL     1      -7.818   1.361  -6.182  0.00  0.00    +0.159 HD
ENDROOT
BRANCH   1  10
ATOM     10  C   UNL     1      -6.808  -1.603  -3.885  0.00  0.00    +0.151 C 
BRANCH  10  11
ATOM     11  C   UNL     1      -6.892  -2.566  -5.037  0.00  0.00    -0.028 A 
ATOM     12  C   UNL     1      -8.104  -3.200  -5.348  0.00  0.00    +0.005 A 
ATOM     13  C   UNL     1      -5.765  -2.844  -5.825  0.00  0.00    +0.005 A 
ATOM     14  C   UNL     1      -8.190  -4.072  -6.437  0.00  0.00    +0.000 A 
ATOM     15  C   UNL     1      -5.854  -3.716  -6.911  0.00  0.00    +0.000 A 
ATOM     16  C   UNL     1      -7.067  -4.327  -7.218  0.00  0.00    +0.000 A 
ENDBRANCH  10  11
ENDBRANCH   1  10
TORSDOF 2
ENDMDL
MODEL 6
REMARK VINA RESULT:    -5.015     11.189     12.586
REMARK INTER + INTRA:          -5.755
REMARK INTER:                  -5.596
REMARK INTRA:                  -0.159
REMARK UNBOUND:                -0.153
REMARK  Name = 1550473
REMARK  2 active torsions:
REMARK  status: ('A' for Active; 'I' for Inactive)
REMARK    1  A    between atoms: N_1  and  C_4
REMARK    2  A    between atoms: C_4  and  C_5
REMARK                            x       y       z     vdW  Elec       q    Type
REMARK                         _______ _______ _______ _____ _____    ______ ____
ROOT
ATOM      1  N   UNL     1      -9.057  -5.846 -16.631  0.00  0.00    -0.354 N 
ATOM      2  N   UNL     1      -7.368  -4.988 -15.298  0.00  0.00    -0.372 N 
ATOM      3  N   UNL     1      -8.630  -6.732 -14.504  0.00  0.00    -0.372 N 
ATOM      4  C   UNL     1      -8.364  -5.863 -15.484  0.00  0.00    +0.166 C 
ATOM      5  H   UNL     1      -8.826  -5.142 -17.322  0.00  0.00    +0.163 HD
ATOM      6  H   UNL     1      -6.825  -4.979 -14.445  0.00  0.00    +0.159 HD
ATOM      7  H   UNL     1      -7.109  -4.315 -16.010  0.00  0.00    +0.159 HD
ATOM      8  H   UNL     1      -9.372  -7.415 -14.580  0.00  0.00    +0.159 HD
ATOM      9  H   UNL     1      -8.105  -6.732 -13.638  0.00  0.00    +0.159 HD
ENDROOT
BRANCH   1  10
ATOM     10  C   UNL     1     -10.124  -6.790 -16.955  0.00  0.00    +0.151 C 
BRANCH  10  11
ATOM     11  C   UNL     1     -11.447  -6.077 -16.895  0.00  0.00    -0.028 A 
ATOM     12  C   UNL     1     -11.541  -4.721 -17.241  0.00  0.00    +0.005 A 
ATOM     13  C   UNL     1     -12.611  -6.753 -16.497  0.00  0.00    +0.005 A 
ATOM     14  C   UNL     1     -12.774  -4.066 -17.215  0.00  0.00    +0.000 A 
ATOM     15  C   UNL     1     -13.840  -6.094 -16.471  0.00  0.00    +0.000 A 
ATOM     16  C   UNL     1     -13.922  -4.752 -16.832  0.00  0.00    +0.000 A 
ENDBRANCH  10  11
ENDBRANCH   1  10
TORSDOF 2
ENDMDL
MODEL 7
REMARK VINA RESULT:    -4.891     25.278     26.378
REMARK INTER + INTRA:          -5.617
REMARK INTER:                  -5.439
REMARK INTRA:                  -0.178
REMARK UNBOUND:                -0.153
REMARK  Name = 1550473
REMARK  2 active torsions:
REMARK  status: ('A' for Active; 'I' for Inactive)
REMARK    1  A    between atoms: N_1  and  C_4
REMARK    2  A    between atoms: C_4  and  C_5
REMARK                            x       y       z     vdW  Elec       q    Type
REMARK                         _______ _______ _______ _____ _____    ______ ____
ROOT
ATOM      1  N   UNL     1       2.954   9.782  16.145  0.00  0.00    -0.354 N 
ATOM      2  N   UNL     1       2.921  11.200  17.976  0.00  0.00    -0.372 N 
ATOM      3  N   UNL     1       4.348   9.403  17.990  0.00  0.00    -0.372 N 
ATOM      4  C   UNL     1       3.410  10.117  17.359  0.00  0.00    +0.166 C 
ATOM      5  H   UNL     1       2.220  10.347  15.733  0.00  0.00    +0.163 HD
ATOM      6  H   UNL     1       3.248  11.480  18.891  0.00  0.00    +0.159 HD
ATOM      7  H   UNL     1       2.221  11.790  17.542  0.00  0.00    +0.159 HD
ATOM      8  H   UNL     1       4.753   8.572  17.581  0.00  0.00    +0.159 HD
ATOM      9  H   UNL     1       4.680   9.661  18.911  0.00  0.00    +0.159 HD
ENDROOT
BRANCH   1  10
ATOM     10  C   UNL     1       3.458   8.653  15.365  0.00  0.00    +0.151 C 
BRANCH  10  11
ATOM     11  C   UNL     1       4.528   9.141  14.429  0.00  0.00    -0.028 A 
ATOM     12  C   UNL     1       4.196   9.930  13.317  0.00  0.00    +0.005 A 
ATOM     13  C   UNL     1       5.877   8.824  14.651  0.00  0.00    +0.005 A 
ATOM     14  C   UNL     1       5.193  10.409  12.464  0.00  0.00    +0.000 A 
ATOM     15  C   UNL     1       6.869   9.304  13.796  0.00  0.00    +0.000 A 
ATOM     16  C   UNL     1       6.527  10.098  12.705  0.00  0.00    +0.000 A 
ENDBRANCH  10  11
ENDBRANCH   1  10
TORSDOF 2
ENDMDL
MODEL 8
REMARK VINA RESULT:    -4.807     25.762     26.848
REMARK INTER + INTRA:          -5.523
REMARK INTER:                  -5.384
REMARK INTRA:                  -0.138
REMARK UNBOUND:                -0.153
REMARK  Name = 1550473
REMARK  2 active torsions:
REMARK  status: ('A' for Active; 'I' for Inactive)
REMARK    1  A    between atoms: N_1  and  C_4
REMARK    2  A    between atoms: C_4  and  C_5
REMARK                            x       y       z     vdW  Elec       q    Type
REMARK                         _______ _______ _______ _____ _____    ______ ____
ROOT
ATOM      1  N   UNL     1       3.338  10.821  16.842  0.00  0.00    -0.354 N 
ATOM      2  N   UNL     1       4.176  11.656  18.833  0.00  0.00    -0.372 N 
ATOM      3  N   UNL     1       4.261   9.394  18.456  0.00  0.00    -0.372 N 
ATOM      4  C   UNL     1       3.920  10.615  18.031  0.00  0.00    +0.166 C 
ATOM      5  H   UNL     1       3.076  11.767  16.592  0.00  0.00    +0.163 HD
ATOM      6  H   UNL     1       4.618  11.532  19.735  0.00  0.00    +0.159 HD
ATOM      7  H   UNL     1       3.955  12.606  18.561  0.00  0.00    +0.159 HD
ATOM      8  H   UNL     1       4.090   8.567  17.900  0.00  0.00    +0.159 HD
ATOM      9  H   UNL     1       4.694   9.249  19.360  0.00  0.00    +0.159 HD
ENDROOT
BRANCH   1  10
ATOM     10  C   UNL     1       3.065   9.762  15.872  0.00  0.00    +0.151 C 
BRANCH  10  11
ATOM     11  C   UNL     1       4.180   9.720  14.864  0.00  0.00    -0.028 A 
ATOM     12  C   UNL     1       5.306   8.913  15.083  0.00  0.00    +0.005 A 
ATOM     13  C   UNL     1       4.114  10.480  13.686  0.00  0.00    +0.005 A 
ATOM     14  C   UNL     1       6.329   8.850  14.133  0.00  0.00    +0.000 A 
ATOM     15  C   UNL     1       5.138  10.415  12.741  0.00  0.00    +0.000 A 
ATOM     16  C   UNL     1       6.244   9.599  12.964  0.00  0.00    +0.000 A 
ENDBRANCH  10  11
ENDBRANCH   1  10
TORSDOF 2
ENDMDL
MODEL 9
REMARK VINA RESULT:    -4.765     24.187     24.779
REMARK INTER + INTRA:          -5.475
REMARK INTER:                  -5.366
REMARK INTRA:                  -0.109
REMARK UNBOUND:                -0.153
REMARK  Name = 1550473
REMARK  2 active torsions:
REMARK  status: ('A' for Active; 'I' for Inactive)
REMARK    1  A    between atoms: N_1  and  C_4
REMARK    2  A    between atoms: C_4  and  C_5
REMARK                            x       y       z     vdW  Elec       q    Type
REMARK                         _______ _______ _______ _____ _____    ______ ____
ROOT
ATOM      1  N   UNL     1      12.010 -10.037   9.134  0.00  0.00    -0.354 N 
ATOM      2  N   UNL     1      10.532  -9.864  10.909  0.00  0.00    -0.372 N 
ATOM      3  N   UNL     1      12.719  -9.245  11.222  0.00  0.00    -0.372 N 
ATOM      4  C   UNL     1      11.766  -9.716  10.412  0.00  0.00    +0.166 C 
ATOM      5  H   UNL     1      11.251 -10.417   8.580  0.00  0.00    +0.163 HD
ATOM      6  H   UNL     1      10.317  -9.627  11.868  0.00  0.00    +0.159 HD
ATOM      7  H   UNL     1       9.765 -10.201  10.340  0.00  0.00    +0.159 HD
ATOM      8  H   UNL     1      13.672  -9.115  10.910  0.00  0.00    +0.159 HD
ATOM      9  H   UNL     1      12.526  -9.013  12.189  0.00  0.00    +0.159 HD
ENDROOT
BRANCH   1  10
ATOM     10  C   UNL     1      13.305  -9.862   8.480  0.00  0.00    +0.151 C 
BRANCH  10  11
ATOM     11  C   UNL     1      13.314 -10.638   7.192  0.00  0.00    -0.028 A 
ATOM     12  C   UNL     1      13.683 -10.018   5.989  0.00  0.00    +0.005 A 
ATOM     13  C   UNL     1      12.960 -11.996   7.169  0.00  0.00    +0.005 A 
ATOM     14  C   UNL     1      13.721 -10.747   4.798  0.00  0.00    +0.000 A 
ATOM     15  C   UNL     1      12.998 -12.720   5.977  0.00  0.00    +0.000 A 
ATOM     16  C   UNL     1      13.381 -12.095   4.793  0.00  0.00    +0.000 A 
ENDBRANCH  10  11
ENDBRANCH   1  10
TORSDOF 2
ENDMDL
