MODEL 1
REMARK VINA RESULT:    -4.614      0.000      0.000
REMARK INTER + INTRA:          -5.318
REMARK INTER:                  -5.153
REMARK INTRA:                  -0.165
REMARK UNBOUND:                -0.165
REMARK  Name = 1550473
REMARK  2 active torsions:
REMARK  status: ('A' for Active; 'I' for Inactive)
REMARK    1  A    between atoms: N_1  and  C_4
REMARK    2  A    between atoms: C_4  and  C_5
REMARK                            x       y       z     vdW  Elec       q    Type
REMARK                         _______ _______ _______ _____ _____    ______ ____
ROOT
ATOM      1  N   UNL     1       5.851   2.363  17.961  0.00  0.00    -0.354 N 
ATOM      2  N   UNL     1       5.320   3.976  19.536  0.00  0.00    -0.372 N 
ATOM      3  N   UNL     1       6.938   2.427  20.036  0.00  0.00    -0.372 N 
ATOM      4  C   UNL     1       6.042   2.910  19.169  0.00  0.00    +0.166 C 
ATOM      5  H   UNL     1       5.135   2.757  17.361  0.00  0.00    +0.163 HD
ATOM      6  H   UNL     1       5.444   4.412  20.440  0.00  0.00    +0.159 HD
ATOM      7  H   UNL     1       4.637   4.396  18.917  0.00  0.00    +0.159 HD
ATOM      8  H   UNL     1       7.510   1.622  19.822  0.00  0.00    +0.159 HD
ATOM      9  H   UNL     1       7.068   2.843  20.950  0.00  0.00    +0.159 HD
ENDROOT
BRANCH   1  10
ATOM     10  C   UNL     1       6.623   1.234  17.443  0.00  0.00    +0.151 C 
BRANCH  10  11
ATOM     11  C   UNL     1       5.703   0.062  17.241  0.00  0.00    -0.028 A 
ATOM     12  C   UNL     1       5.220  -0.662  18.341  0.00  0.00    +0.005 A 
ATOM     13  C   UNL     1       5.306  -0.326  15.953  0.00  0.00    +0.005 A 
ATOM     14  C   UNL     1       4.341  -1.732  18.156  0.00  0.00    +0.000 A 
ATOM     15  C   UNL     1       4.429  -1.396  15.772  0.00  0.00    +0.000 A 
ATOM     16  C   UNL     1       3.945  -2.097  16.874  0.00  0.00    +0.000 A 
ENDBRANCH  10  11
ENDBRANCH   1  10
TORSDOF 2
ENDMDL
MODEL 2
REMARK VINA RESULT:    -4.360     41.708     44.049
REMARK INTER + INTRA:          -5.035
REMARK INTER:                  -4.944
REMARK INTRA:                  -0.090
REMARK UNBOUND:                -0.165
REMARK  Name = 1550473
REMARK  2 active torsions:
REMARK  status: ('A' for Active; 'I' for Inactive)
REMARK    1  A    between atoms: N_1  and  C_4
REMARK    2  A    between atoms: C_4  and  C_5
REMARK                            x       y       z     vdW  Elec       q    Type
REMARK                         _______ _______ _______ _____ _____    ______ ____
ROOT
ATOM      1  N   UNL     1       2.229  32.949  45.650  0.00  0.00    -0.354 N 
ATOM      2  N   UNL     1       0.250  32.314  44.626  0.00  0.00    -0.372 N 
ATOM      3  N   UNL     1       1.636  30.689  45.464  0.00  0.00    -0.372 N 
ATOM      4  C   UNL     1       1.386  31.985  45.254  0.00  0.00    +0.166 C 
ATOM      5  H   UNL     1       1.995  33.911  45.434  0.00  0.00    +0.163 HD
ATOM      6  H   UNL     1      -0.407  31.610  44.319  0.00  0.00    +0.159 HD
ATOM      7  H   UNL     1      -0.002  33.279  44.453  0.00  0.00    +0.159 HD
ATOM      8  H   UNL     1       2.479  30.374  45.927  0.00  0.00    +0.159 HD
ATOM      9  H   UNL     1       0.997  29.968  45.153  0.00  0.00    +0.159 HD
ENDROOT
BRANCH   1  10
ATOM     10  C   UNL     1       3.466  32.700  46.388  0.00  0.00    +0.151 C 
BRANCH  10  11
ATOM     11  C   UNL     1       4.112  34.016  46.722  0.00  0.00    -0.028 A 
ATOM     12  C   UNL     1       3.896  34.620  47.969  0.00  0.00    +0.005 A 
ATOM     13  C   UNL     1       4.946  34.662  45.796  0.00  0.00    +0.005 A 
ATOM     14  C   UNL     1       4.520  35.828  48.290  0.00  0.00    +0.000 A 
ATOM     15  C   UNL     1       5.566  35.869  46.121  0.00  0.00    +0.000 A 
ATOM     16  C   UNL     1       5.355  36.450  47.368  0.00  0.00    +0.000 A 
ENDBRANCH  10  11
ENDBRANCH   1  10
TORSDOF 2
ENDMDL
MODEL 3
REMARK VINA RESULT:    -4.152     22.808     24.600
REMARK INTER + INTRA:          -4.803
REMARK INTER:                  -4.706
REMARK INTRA:                  -0.096
REMARK UNBOUND:                -0.165
REMARK  Name = 1550473
REMARK  2 active torsions:
REMARK  status: ('A' for Active; 'I' for Inactive)
REMARK    1  A    between atoms: N_1  and  C_4
REMARK    2  A    between atoms: C_4  and  C_5
REMARK                            x       y       z     vdW  Elec       q    Type
REMARK                         _______ _______ _______ _____ _____    ______ ____
ROOT
ATOM      1  N   UNL     1       0.898  20.833  32.867  0.00  0.00    -0.354 N 
ATOM      2  N   UNL     1       2.594  21.383  34.344  0.00  0.00    -0.372 N 
ATOM      3  N   UNL     1       0.845  22.842  34.072  0.00  0.00    -0.372 N 
ATOM      4  C   UNL     1       1.433  21.685  33.751  0.00  0.00    +0.166 C 
ATOM      5  H   UNL     1       1.409  19.986  32.644  0.00  0.00    +0.163 HD
ATOM      6  H   UNL     1       3.021  22.004  35.019  0.00  0.00    +0.159 HD
ATOM      7  H   UNL     1       3.080  20.514  34.155  0.00  0.00    +0.159 HD
ATOM      8  H   UNL     1      -0.030  23.131  33.655  0.00  0.00    +0.159 HD
ATOM      9  H   UNL     1       1.262  23.483  34.736  0.00  0.00    +0.159 HD
ENDROOT
BRANCH   1  10
ATOM     10  C   UNL     1      -0.389  21.042  32.205  0.00  0.00    +0.151 C 
BRANCH  10  11
ATOM     11  C   UNL     1      -0.580  19.983  31.155  0.00  0.00    -0.028 A 
ATOM     12  C   UNL     1       0.165  20.016  29.967  0.00  0.00    +0.005 A 
ATOM     13  C   UNL     1      -1.499  18.940  31.345  0.00  0.00    +0.005 A 
ATOM     14  C   UNL     1       0.009  19.015  29.005  0.00  0.00    +0.000 A 
ATOM     15  C   UNL     1      -1.652  17.943  30.382  0.00  0.00    +0.000 A 
ATOM     16  C   UNL     1      -0.896  17.980  29.213  0.00  0.00    +0.000 A 
ENDBRANCH  10  11
ENDBRANCH   1  10
TORSDOF 2
ENDMDL
MODEL 4
REMARK VINA RESULT:    -4.126     26.783     28.547
REMARK INTER + INTRA:          -4.773
REMARK INTER:                  -4.661
REMARK INTRA:                  -0.112
REMARK UNBOUND:                -0.165
REMARK  Name = 1550473
REMARK  2 active torsions:
REMARK  status: ('A' for Active; 'I' for Inactive)
REMARK    1  A    between atoms: N_1  and  C_4
REMARK    2  A    between atoms: C_4  and  C_5
REMARK                            x       y       z     vdW  Elec       q    Type
REMARK                         _______ _______ _______ _____ _____    ______ ____
ROOT
ATOM      1  N   UNL     1      -5.566  -4.306  -6.663  0.00  0.00    -0.354 N 
ATOM      2  N   UNL     1      -3.763  -5.729  -6.364  0.00  0.00    -0.372 N 
ATOM      3  N   UNL     1      -5.253  -5.449  -4.642  0.00  0.00    -0.372 N 
ATOM      4  C   UNL     1      -4.874  -5.152  -5.889  0.00  0.00    +0.166 C 
ATOM      5  H   UNL     1      -5.209  -4.099  -7.589  0.00  0.00    +0.163 HD
ATOM      6  H   UNL     1      -3.222  -6.374  -5.804  0.00  0.00    +0.159 HD
ATOM      7  H   UNL     1      -3.434  -5.555  -7.306  0.00  0.00    +0.159 HD
ATOM      8  H   UNL     1      -6.079  -5.043  -4.222  0.00  0.00    +0.159 HD
ATOM      9  H   UNL     1      -4.719  -6.083  -4.062  0.00  0.00    +0.159 HD
ENDROOT
BRANCH   1  10
ATOM     10  C   UNL     1      -6.818  -3.666  -6.261  0.00  0.00    +0.151 C 
BRANCH  10  11
ATOM     11  C   UNL     1      -7.957  -4.301  -7.010  0.00  0.00    -0.028 A 
ATOM     12  C   UNL     1      -7.708  -5.230  -8.031  0.00  0.00    +0.005 A 
ATOM     13  C   UNL     1      -9.288  -3.982  -6.700  0.00  0.00    +0.005 A 
ATOM     14  C   UNL     1      -8.766  -5.842  -8.706  0.00  0.00    +0.000 A 
ATOM     15  C   UNL     1     -10.341  -4.595  -7.377  0.00  0.00    +0.000 A 
ATOM     16  C   UNL     1     -10.080  -5.527  -8.379  0.00  0.00    +0.000 A 
ENDBRANCH  10  11
ENDBRANCH   1  10
TORSDOF 2
ENDMDL
MODEL 5
REMARK VINA RESULT:    -4.094     41.643     43.910
REMARK INTER + INTRA:          -4.737
REMARK INTER:                  -4.581
REMARK INTRA:                  -0.157
REMARK UNBOUND:                -0.165
REMARK  Name = 1550473
REMARK  2 active torsions:
REMARK  status: ('A' for Active; 'I' for Inactive)
REMARK    1  A    between atoms: N_1  and  C_4
REMARK    2  A    between atoms: C_4  and  C_5
REMARK                            x       y       z     vdW  Elec       q    Type
REMARK                         _______ _______ _______ _____ _____    ______ ____
ROOT
ATOM      1  N   UNL     1      -0.953  34.218  42.943  0.00  0.00    -0.354 N 
ATOM      2  N   UNL     1      -0.006  32.607  44.312  0.00  0.00    -0.372 N 
ATOM      3  N   UNL     1       1.097  33.223  42.396  0.00  0.00    -0.372 N 
ATOM      4  C   UNL     1       0.041  33.359  43.206  0.00  0.00    +0.166 C 
ATOM      5  H   UNL     1      -1.740  34.253  43.581  0.00  0.00    +0.163 HD
ATOM      6  H   UNL     1       0.731  31.953  44.538  0.00  0.00    +0.159 HD
ATOM      7  H   UNL     1      -0.771  32.677  44.971  0.00  0.00    +0.159 HD
ATOM      8  H   UNL     1       1.190  33.757  41.543  0.00  0.00    +0.159 HD
ATOM      9  H   UNL     1       1.839  32.565  42.599  0.00  0.00    +0.159 HD
ENDROOT
BRANCH   1  10
ATOM     10  C   UNL     1      -0.971  35.121  41.794  0.00  0.00    +0.151 C 
BRANCH  10  11
ATOM     11  C   UNL     1      -0.765  36.531  42.275  0.00  0.00    -0.028 A 
ATOM     12  C   UNL     1       0.052  37.416  41.555  0.00  0.00    +0.005 A 
ATOM     13  C   UNL     1      -1.387  36.990  43.446  0.00  0.00    +0.005 A 
ATOM     14  C   UNL     1       0.220  38.735  41.985  0.00  0.00    +0.000 A 
ATOM     15  C   UNL     1      -1.216  38.307  43.872  0.00  0.00    +0.000 A 
ATOM     16  C   UNL     1      -0.414  39.180  43.140  0.00  0.00    +0.000 A 
ENDBRANCH  10  11
ENDBRANCH   1  10
TORSDOF 2
ENDMDL
MODEL 6
REMARK VINA RESULT:    -3.955     39.556     40.413
REMARK INTER + INTRA:          -4.583
REMARK INTER:                  -4.448
REMARK INTRA:                  -0.135
REMARK UNBOUND:                -0.165
REMARK  Name = 1550473
REMARK  2 active torsions:
REMARK  status: ('A' for Active; 'I' for Inactive)
REMARK    1  A    between atoms: N_1  and  C_4
REMARK    2  A    between atoms: C_4  and  C_5
REMARK                            x       y       z     vdW  Elec       q    Type
REMARK                         _______ _______ _______ _____ _____    ______ ____
ROOT
ATOM      1  N   UNL     1       2.364  29.608  45.017  0.00  0.00    -0.354 N 
ATOM      2  N   UNL     1       1.806  28.811  47.119  0.00  0.00    -0.372 N 
ATOM      3  N   UNL     1       4.023  29.004  46.558  0.00  0.00    -0.372 N 
ATOM      4  C   UNL     1       2.738  29.146  46.218  0.00  0.00    +0.166 C 
ATOM      5  H   UNL     1       1.374  29.664  44.809  0.00  0.00    +0.163 HD
ATOM      6  H   UNL     1       2.058  28.462  48.034  0.00  0.00    +0.159 HD
ATOM      7  H   UNL     1       0.817  28.911  46.925  0.00  0.00    +0.159 HD
ATOM      8  H   UNL     1       4.774  29.234  45.921  0.00  0.00    +0.159 HD
ATOM      9  H   UNL     1       4.295  28.646  47.465  0.00  0.00    +0.159 HD
ENDROOT
BRANCH   1  10
ATOM     10  C   UNL     1       3.300  30.051  43.984  0.00  0.00    +0.151 C 
BRANCH  10  11
ATOM     11  C   UNL     1       2.728  31.256  43.288  0.00  0.00    -0.028 A 
ATOM     12  C   UNL     1       3.137  31.588  41.989  0.00  0.00    +0.005 A 
ATOM     13  C   UNL     1       1.773  32.066  43.922  0.00  0.00    +0.005 A 
ATOM     14  C   UNL     1       2.585  32.689  41.330  0.00  0.00    +0.000 A 
ATOM     15  C   UNL     1       1.225  33.165  43.261  0.00  0.00    +0.000 A 
ATOM     16  C   UNL     1       1.629  33.475  41.965  0.00  0.00    +0.000 A 
ENDBRANCH  10  11
ENDBRANCH   1  10
TORSDOF 2
ENDMDL
MODEL 7
REMARK VINA RESULT:    -3.935     33.226     34.485
REMARK INTER + INTRA:          -4.560
REMARK INTER:                  -4.453
REMARK INTRA:                  -0.106
REMARK UNBOUND:                -0.165
REMARK  Name = 1550473
REMARK  2 active torsions:
REMARK  status: ('A' for Active; 'I' for Inactive)
REMARK    1  A    between atoms: N_1  and  C_4
REMARK    2  A    between atoms: C_4  and  C_5
REMARK                            x       y       z     vdW  Elec       q    Type
REMARK                         _______ _______ _______ _____ _____    ______ ____
ROOT
ATOM      1  N   UNL     1       0.320 -13.966 -13.521  0.00  0.00    -0.354 N 
ATOM      2  N   UNL     1      -0.890 -13.539 -15.449  0.00  0.00    -0.372 N 
ATOM      3  N   UNL     1       0.902 -12.197 -14.945  0.00  0.00    -0.372 N 
ATOM      4  C   UNL     1       0.120 -13.235 -14.625  0.00  0.00    +0.166 C 
ATOM      5  H   UNL     1      -0.326 -14.720 -13.319  0.00  0.00    +0.163 HD
ATOM      6  H   UNL     1      -1.064 -13.008 -16.291  0.00  0.00    +0.159 HD
ATOM      7  H   UNL     1      -1.506 -14.322 -15.269  0.00  0.00    +0.159 HD
ATOM      8  H   UNL     1       1.678 -11.912 -14.362  0.00  0.00    +0.159 HD
ATOM      9  H   UNL     1       0.737 -11.646 -15.778  0.00  0.00    +0.159 HD
ENDROOT
BRANCH   1  10
ATOM     10  C   UNL     1       1.424 -13.751 -12.587  0.00  0.00    +0.151 C 
BRANCH  10  11
ATOM     11  C   UNL     1       1.620 -14.994 -11.763  0.00  0.00    -0.028 A 
ATOM     12  C   UNL     1       1.443 -14.961 -10.372  0.00  0.00    +0.005 A 
ATOM     13  C   UNL     1       1.977 -16.208 -12.369  0.00  0.00    +0.005 A 
ATOM     14  C   UNL     1       1.595 -16.122  -9.610  0.00  0.00    +0.000 A 
ATOM     15  C   UNL     1       2.129 -17.365 -11.604  0.00  0.00    +0.000 A 
ATOM     16  C   UNL     1       1.936 -17.322 -10.226  0.00  0.00    +0.000 A 
ENDBRANCH  10  11
ENDBRANCH   1  10
TORSDOF 2
ENDMDL
MODEL 8
REMARK VINA RESULT:    -3.787     33.331     35.045
REMARK INTER + INTRA:          -4.395
REMARK INTER:                  -4.275
REMARK INTRA:                  -0.120
REMARK UNBOUND:                -0.165
REMARK  Name = 1550473
REMARK  2 active torsions:
REMARK  status: ('A' for Active; 'I' for Inactive)
REMARK    1  A    between atoms: N_1  and  C_4
REMARK    2  A    between atoms: C_4  and  C_5
REMARK                            x       y       z     vdW  Elec       q    Type
REMARK                         _______ _______ _______ _____ _____    ______ ____
ROOT
ATOM      1  N   UNL     1       2.055 -14.598 -12.528  0.00  0.00    -0.354 N 
ATOM      2  N   UNL     1       1.892 -16.594 -11.364  0.00  0.00    -0.372 N 
ATOM      3  N   UNL     1       1.037 -14.686 -10.419  0.00  0.00    -0.372 N 
ATOM      4  C   UNL     1       1.661 -15.278 -11.443  0.00  0.00    +0.166 C 
ATOM      5  H   UNL     1       2.550 -15.099 -13.257  0.00  0.00    +0.163 HD
ATOM      6  H   UNL     1       1.604 -17.134 -10.559  0.00  0.00    +0.159 HD
ATOM      7  H   UNL     1       2.347 -17.101 -12.114  0.00  0.00    +0.159 HD
ATOM      8  H   UNL     1       0.838 -13.694 -10.414  0.00  0.00    +0.159 HD
ATOM      9  H   UNL     1       0.751 -15.207  -9.600  0.00  0.00    +0.159 HD
ENDROOT
BRANCH   1  10
ATOM     10  C   UNL     1       1.803 -13.173 -12.736  0.00  0.00    +0.151 C 
BRANCH  10  11
ATOM     11  C   UNL     1       0.995 -12.995 -13.992  0.00  0.00    -0.028 A 
ATOM     12  C   UNL     1       0.051 -13.959 -14.374  0.00  0.00    +0.005 A 
ATOM     13  C   UNL     1       1.165 -11.861 -14.801  0.00  0.00    +0.005 A 
ATOM     14  C   UNL     1      -0.721 -13.779 -15.524  0.00  0.00    +0.000 A 
ATOM     15  C   UNL     1       0.393 -11.686 -15.949  0.00  0.00    +0.000 A 
ATOM     16  C   UNL     1      -0.552 -12.644 -16.309  0.00  0.00    +0.000 A 
ENDBRANCH  10  11
ENDBRANCH   1  10
TORSDOF 2
ENDMDL
MODEL 9
REMARK VINA RESULT:    -3.703     25.095     26.589
REMARK INTER + INTRA:          -4.301
REMARK INTER:                  -4.185
REMARK INTRA:                  -0.116
REMARK UNBOUND:                -0.165
REMARK  Name = 1550473
REMARK  2 active torsions:
REMARK  status: ('A' for Active; 'I' for Inactive)
REMARK    1  A    between atoms: N_1  and  C_4
REMARK    2  A    between atoms: C_4  and  C_5
REMARK                            x       y       z     vdW  Elec       q    Type
REMARK                         _______ _______ _______ _____ _____    ______ ____
ROOT
ATOM      1  N   UNL     1      15.890  22.718   4.199  0.00  0.00    -0.354 N 
ATOM      2  N   UNL     1      16.077  23.251   1.953  0.00  0.00    -0.372 N 
ATOM      3  N   UNL     1      17.566  21.764   2.868  0.00  0.00    -0.372 N 
ATOM      4  C   UNL     1      16.512  22.572   3.022  0.00  0.00    +0.166 C 
ATOM      5  H   UNL     1      15.116  23.369   4.257  0.00  0.00    +0.163 HD
ATOM      6  H   UNL     1      16.524  23.158   1.051  0.00  0.00    +0.159 HD
ATOM      7  H   UNL     1      15.274  23.866   2.003  0.00  0.00    +0.159 HD
ATOM      8  H   UNL     1      17.947  21.229   3.637  0.00  0.00    +0.159 HD
ATOM      9  H   UNL     1      18.035  21.667   1.976  0.00  0.00    +0.159 HD
ENDROOT
BRANCH   1  10
ATOM     10  C   UNL     1      16.251  21.984   5.411  0.00  0.00    +0.151 C 
BRANCH  10  11
ATOM     11  C   UNL     1      14.996  21.507   6.089  0.00  0.00    -0.028 A 
ATOM     12  C   UNL     1      14.422  20.277   5.739  0.00  0.00    +0.005 A 
ATOM     13  C   UNL     1      14.381  22.279   7.086  0.00  0.00    +0.005 A 
ATOM     14  C   UNL     1      13.273  19.820   6.390  0.00  0.00    +0.000 A 
ATOM     15  C   UNL     1      13.233  21.820   7.733  0.00  0.00    +0.000 A 
ATOM     16  C   UNL     1      12.681  20.589   7.386  0.00  0.00    +0.000 A 
ENDBRANCH  10  11
ENDBRANCH   1  10
TORSDOF 2
ENDMDL
