MODEL 1
REMARK VINA RESULT:    -4.990      0.000      0.000
REMARK INTER + INTRA:          -5.689
REMARK INTER:                  -5.573
REMARK INTRA:                  -0.115
REMARK UNBOUND:                -0.115
REMARK  Name = 1550473
REMARK  2 active torsions:
REMARK  status: ('A' for Active; 'I' for Inactive)
REMARK    1  A    between atoms: N_1  and  C_4
REMARK    2  A    between atoms: C_4  and  C_5
REMARK                            x       y       z     vdW  Elec       q    Type
REMARK                         _______ _______ _______ _____ _____    ______ ____
ROOT
ATOM      1  N   UNL     1       1.193  -8.557  12.090  0.00  0.00    -0.354 N 
ATOM      2  N   UNL     1       3.259  -8.989  11.138  0.00  0.00    -0.372 N 
ATOM      3  N   UNL     1       2.282 -10.602  12.444  0.00  0.00    -0.372 N 
ATOM      4  C   UNL     1       2.231  -9.382  11.899  0.00  0.00    +0.166 C 
ATOM      5  H   UNL     1       1.228  -7.634  11.674  0.00  0.00    +0.163 HD
ATOM      6  H   UNL     1       4.054  -9.591  10.972  0.00  0.00    +0.159 HD
ATOM      7  H   UNL     1       3.271  -8.083  10.685  0.00  0.00    +0.159 HD
ATOM      8  H   UNL     1       1.540 -10.957  13.034  0.00  0.00    +0.159 HD
ATOM      9  H   UNL     1       3.074 -11.215  12.300  0.00  0.00    +0.159 HD
ENDROOT
BRANCH   1  10
ATOM     10  C   UNL     1      -0.001  -8.910  12.857  0.00  0.00    +0.151 C 
BRANCH  10  11
ATOM     11  C   UNL     1      -0.776  -7.658  13.163  0.00  0.00    -0.028 A 
ATOM     12  C   UNL     1      -0.113  -6.494  13.579  0.00  0.00    +0.005 A 
ATOM     13  C   UNL     1      -2.173  -7.627  13.033  0.00  0.00    +0.005 A 
ATOM     14  C   UNL     1      -0.829  -5.322  13.834  0.00  0.00    +0.000 A 
ATOM     15  C   UNL     1      -2.884  -6.455  13.289  0.00  0.00    +0.000 A 
ATOM     16  C   UNL     1      -2.212  -5.302  13.688  0.00  0.00    +0.000 A 
ENDBRANCH  10  11
ENDBRANCH   1  10
TORSDOF 2
ENDMDL
MODEL 2
REMARK VINA RESULT:    -4.795     10.121     11.554
REMARK INTER + INTRA:          -5.470
REMARK INTER:                  -5.370
REMARK INTRA:                  -0.101
REMARK UNBOUND:                -0.115
REMARK  Name = 1550473
REMARK  2 active torsions:
REMARK  status: ('A' for Active; 'I' for Inactive)
REMARK    1  A    between atoms: N_1  and  C_4
REMARK    2  A    between atoms: C_4  and  C_5
REMARK                            x       y       z     vdW  Elec       q    Type
REMARK                         _______ _______ _______ _____ _____    ______ ____
ROOT
ATOM      1  N   UNL     1       9.857  -8.582  10.865  0.00  0.00    -0.354 N 
ATOM      2  N   UNL     1       8.740  -9.228  12.788  0.00  0.00    -0.372 N 
ATOM      3  N   UNL     1      10.744 -10.225  12.282  0.00  0.00    -0.372 N 
ATOM      4  C   UNL     1       9.790  -9.343  11.966  0.00  0.00    +0.166 C 
ATOM      5  H   UNL     1       9.087  -7.954  10.666  0.00  0.00    +0.163 HD
ATOM      6  H   UNL     1       8.663  -9.786  13.628  0.00  0.00    +0.159 HD
ATOM      7  H   UNL     1       7.994  -8.566  12.611  0.00  0.00    +0.159 HD
ATOM      8  H   UNL     1      11.559 -10.364  11.700  0.00  0.00    +0.159 HD
ATOM      9  H   UNL     1      10.679 -10.801  13.112  0.00  0.00    +0.159 HD
ENDROOT
BRANCH   1  10
ATOM     10  C   UNL     1      10.983  -8.592   9.933  0.00  0.00    +0.151 C 
BRANCH  10  11
ATOM     11  C   UNL     1      10.913  -7.365   9.065  0.00  0.00    -0.028 A 
ATOM     12  C   UNL     1       9.772  -7.104   8.293  0.00  0.00    +0.005 A 
ATOM     13  C   UNL     1      11.982  -6.457   9.016  0.00  0.00    +0.005 A 
ATOM     14  C   UNL     1       9.694  -5.949   7.510  0.00  0.00    +0.000 A 
ATOM     15  C   UNL     1      11.901  -5.306   8.233  0.00  0.00    +0.000 A 
ATOM     16  C   UNL     1      10.756  -5.051   7.482  0.00  0.00    +0.000 A 
ENDBRANCH  10  11
ENDBRANCH   1  10
TORSDOF 2
ENDMDL
MODEL 3
REMARK VINA RESULT:    -4.787      2.733      3.313
REMARK INTER + INTRA:          -5.462
REMARK INTER:                  -5.284
REMARK INTRA:                  -0.178
REMARK UNBOUND:                -0.115
REMARK  Name = 1550473
REMARK  2 active torsions:
REMARK  status: ('A' for Active; 'I' for Inactive)
REMARK    1  A    between atoms: N_1  and  C_4
REMARK    2  A    between atoms: C_4  and  C_5
REMARK                            x       y       z     vdW  Elec       q    Type
REMARK                         _______ _______ _______ _____ _____    ______ ____
ROOT
ATOM      1  N   UNL     1      -0.331 -10.055  14.665  0.00  0.00    -0.354 N 
ATOM      2  N   UNL     1      -0.623 -11.079  16.722  0.00  0.00    -0.372 N 
ATOM      3  N   UNL     1      -2.347 -11.120  15.208  0.00  0.00    -0.372 N 
ATOM      4  C   UNL     1      -1.101 -10.745  15.517  0.00  0.00    +0.166 C 
ATOM      5  H   UNL     1       0.594  -9.774  14.971  0.00  0.00    +0.163 HD
ATOM      6  H   UNL     1      -1.180 -11.602  17.384  0.00  0.00    +0.159 HD
ATOM      7  H   UNL     1       0.318 -10.837  17.008  0.00  0.00    +0.159 HD
ATOM      8  H   UNL     1      -2.768 -10.894  14.317  0.00  0.00    +0.159 HD
ATOM      9  H   UNL     1      -2.924 -11.634  15.862  0.00  0.00    +0.159 HD
ENDROOT
BRANCH   1  10
ATOM     10  C   UNL     1      -0.737  -9.688  13.309  0.00  0.00    +0.151 C 
BRANCH  10  11
ATOM     11  C   UNL     1      -1.132  -8.237  13.290  0.00  0.00    -0.028 A 
ATOM     12  C   UNL     1      -0.192  -7.239  13.586  0.00  0.00    +0.005 A 
ATOM     13  C   UNL     1      -2.444  -7.854  12.971  0.00  0.00    +0.005 A 
ATOM     14  C   UNL     1      -0.551  -5.890  13.540  0.00  0.00    +0.000 A 
ATOM     15  C   UNL     1      -2.798  -6.506  12.926  0.00  0.00    +0.000 A 
ATOM     16  C   UNL     1      -1.851  -5.524  13.208  0.00  0.00    +0.000 A 
ENDBRANCH  10  11
ENDBRANCH   1  10
TORSDOF 2
ENDMDL
MODEL 4
REMARK VINA RESULT:    -4.700     20.118     21.377
REMARK INTER + INTRA:          -5.365
REMARK INTER:                  -5.224
REMARK INTRA:                  -0.140
REMARK UNBOUND:                -0.115
REMARK  Name = 1550473
REMARK  2 active torsions:
REMARK  status: ('A' for Active; 'I' for Inactive)
REMARK    1  A    between atoms: N_1  and  C_4
REMARK    2  A    between atoms: C_4  and  C_5
REMARK                            x       y       z     vdW  Elec       q    Type
REMARK                         _______ _______ _______ _____ _____    ______ ____
ROOT
ATOM      1  N   UNL     1      15.708   4.811  13.071  0.00  0.00    -0.354 N 
ATOM      2  N   UNL     1      16.098   5.309  15.299  0.00  0.00    -0.372 N 
ATOM      3  N   UNL     1      15.008   6.849  13.992  0.00  0.00    -0.372 N 
ATOM      4  C   UNL     1      15.601   5.655  14.105  0.00  0.00    +0.166 C 
ATOM      5  H   UNL     1      16.195   3.933  13.214  0.00  0.00    +0.163 HD
ATOM      6  H   UNL     1      16.029   5.924  16.099  0.00  0.00    +0.159 HD
ATOM      7  H   UNL     1      16.544   4.412  15.450  0.00  0.00    +0.159 HD
ATOM      8  H   UNL     1      14.618   7.172  13.117  0.00  0.00    +0.159 HD
ATOM      9  H   UNL     1      14.940   7.483  14.778  0.00  0.00    +0.159 HD
ENDROOT
BRANCH   1  10
ATOM     10  C   UNL     1      15.153   5.069  11.743  0.00  0.00    +0.151 C 
BRANCH  10  11
ATOM     11  C   UNL     1      16.204   4.782  10.707  0.00  0.00    -0.028 A 
ATOM     12  C   UNL     1      15.848   4.241   9.463  0.00  0.00    +0.005 A 
ATOM     13  C   UNL     1      17.557   5.053  10.961  0.00  0.00    +0.005 A 
ATOM     14  C   UNL     1      16.820   4.001   8.489  0.00  0.00    +0.000 A 
ATOM     15  C   UNL     1      18.525   4.812   9.986  0.00  0.00    +0.000 A 
ATOM     16  C   UNL     1      18.156   4.288   8.750  0.00  0.00    +0.000 A 
ENDBRANCH  10  11
ENDBRANCH   1  10
TORSDOF 2
ENDMDL
MODEL 5
REMARK VINA RESULT:    -4.474     24.437     25.193
REMARK INTER + INTRA:          -5.112
REMARK INTER:                  -4.989
REMARK INTRA:                  -0.123
REMARK UNBOUND:                -0.115
REMARK  Name = 1550473
REMARK  2 active torsions:
REMARK  status: ('A' for Active; 'I' for Inactive)
REMARK    1  A    between atoms: N_1  and  C_4
REMARK    2  A    between atoms: C_4  and  C_5
REMARK                            x       y       z     vdW  Elec       q    Type
REMARK                         _______ _______ _______ _____ _____    ______ ____
ROOT
ATOM      1  N   UNL     1     -14.558  -0.258  -6.898  0.00  0.00    -0.354 N 
ATOM      2  N   UNL     1     -14.516  -0.297  -9.213  0.00  0.00    -0.372 N 
ATOM      3  N   UNL     1     -14.516  -2.286  -8.070  0.00  0.00    -0.372 N 
ATOM      4  C   UNL     1     -14.530  -0.949  -8.045  0.00  0.00    +0.166 C 
ATOM      5  H   UNL     1     -14.537   0.755  -6.946  0.00  0.00    +0.163 HD
ATOM      6  H   UNL     1     -14.499  -0.792 -10.095  0.00  0.00    +0.159 HD
ATOM      7  H   UNL     1     -14.542   0.715  -9.259  0.00  0.00    +0.159 HD
ATOM      8  H   UNL     1     -14.519  -2.838  -7.223  0.00  0.00    +0.159 HD
ATOM      9  H   UNL     1     -14.486  -2.800  -8.942  0.00  0.00    +0.159 HD
ENDROOT
BRANCH   1  10
ATOM     10  C   UNL     1     -14.629  -0.873  -5.573  0.00  0.00    +0.151 C 
BRANCH  10  11
ATOM     11  C   UNL     1     -15.286   0.088  -4.620  0.00  0.00    -0.028 A 
ATOM     12  C   UNL     1     -15.875  -0.376  -3.435  0.00  0.00    +0.005 A 
ATOM     13  C   UNL     1     -15.316   1.464  -4.894  0.00  0.00    +0.005 A 
ATOM     14  C   UNL     1     -16.459   0.520  -2.535  0.00  0.00    +0.000 A 
ATOM     15  C   UNL     1     -15.900   2.355  -3.993  0.00  0.00    +0.000 A 
ATOM     16  C   UNL     1     -16.469   1.882  -2.813  0.00  0.00    +0.000 A 
ENDBRANCH  10  11
ENDBRANCH   1  10
TORSDOF 2
ENDMDL
MODEL 6
REMARK VINA RESULT:    -4.472     11.608     13.236
REMARK INTER + INTRA:          -5.110
REMARK INTER:                  -5.030
REMARK INTRA:                  -0.079
REMARK UNBOUND:                -0.115
REMARK  Name = 1550473
REMARK  2 active torsions:
REMARK  status: ('A' for Active; 'I' for Inactive)
REMARK    1  A    between atoms: N_1  and  C_4
REMARK    2  A    between atoms: C_4  and  C_5
REMARK                            x       y       z     vdW  Elec       q    Type
REMARK                         _______ _______ _______ _____ _____    ______ ____
ROOT
ATOM      1  N   UNL     1      13.154  -5.944   6.794  0.00  0.00    -0.354 N 
ATOM      2  N   UNL     1      14.357  -6.917   8.516  0.00  0.00    -0.372 N 
ATOM      3  N   UNL     1      12.638  -5.488   9.034  0.00  0.00    -0.372 N 
ATOM      4  C   UNL     1      13.374  -6.108   8.105  0.00  0.00    +0.166 C 
ATOM      5  H   UNL     1      13.766  -6.419   6.140  0.00  0.00    +0.163 HD
ATOM      6  H   UNL     1      14.545  -7.064   9.499  0.00  0.00    +0.159 HD
ATOM      7  H   UNL     1      14.938  -7.427   7.861  0.00  0.00    +0.159 HD
ATOM      8  H   UNL     1      11.885  -4.860   8.789  0.00  0.00    +0.159 HD
ATOM      9  H   UNL     1      12.818  -5.613  10.022  0.00  0.00    +0.159 HD
ENDROOT
BRANCH   1  10
ATOM     10  C   UNL     1      12.074  -5.127   6.242  0.00  0.00    +0.151 C 
BRANCH  10  11
ATOM     11  C   UNL     1      10.847  -5.981   6.078  0.00  0.00    -0.028 A 
ATOM     12  C   UNL     1      10.691  -6.793   4.945  0.00  0.00    +0.005 A 
ATOM     13  C   UNL     1       9.840  -5.987   7.055  0.00  0.00    +0.005 A 
ATOM     14  C   UNL     1       9.565  -7.609   4.807  0.00  0.00    +0.000 A 
ATOM     15  C   UNL     1       8.717  -6.803   6.912  0.00  0.00    +0.000 A 
ATOM     16  C   UNL     1       8.582  -7.615   5.790  0.00  0.00    +0.000 A 
ENDBRANCH  10  11
ENDBRANCH   1  10
TORSDOF 2
ENDMDL
MODEL 7
REMARK VINA RESULT:    -4.423     20.778     21.899
REMARK INTER + INTRA:          -5.055
REMARK INTER:                  -4.914
REMARK INTRA:                  -0.141
REMARK UNBOUND:                -0.115
REMARK  Name = 1550473
REMARK  2 active torsions:
REMARK  status: ('A' for Active; 'I' for Inactive)
REMARK    1  A    between atoms: N_1  and  C_4
REMARK    2  A    between atoms: C_4  and  C_5
REMARK                            x       y       z     vdW  Elec       q    Type
REMARK                         _______ _______ _______ _____ _____    ______ ____
ROOT
ATOM      1  N   UNL     1      16.081   6.492   7.075  0.00  0.00    -0.354 N 
ATOM      2  N   UNL     1      16.334   8.388   5.770  0.00  0.00    -0.372 N 
ATOM      3  N   UNL     1      18.178   7.099   6.222  0.00  0.00    -0.372 N 
ATOM      4  C   UNL     1      16.865   7.313   6.365  0.00  0.00    +0.166 C 
ATOM      5  H   UNL     1      15.100   6.726   7.170  0.00  0.00    +0.163 HD
ATOM      6  H   UNL     1      16.900   9.024   5.225  0.00  0.00    +0.159 HD
ATOM      7  H   UNL     1      15.344   8.595   5.828  0.00  0.00    +0.159 HD
ATOM      8  H   UNL     1      18.641   6.309   6.651  0.00  0.00    +0.159 HD
ATOM      9  H   UNL     1      18.763   7.731   5.690  0.00  0.00    +0.159 HD
ENDROOT
BRANCH   1  10
ATOM     10  C   UNL     1      16.551   5.265   7.717  0.00  0.00    +0.151 C 
BRANCH  10  11
ATOM     11  C   UNL     1      16.089   5.252   9.148  0.00  0.00    -0.028 A 
ATOM     12  C   UNL     1      15.647   4.061   9.742  0.00  0.00    +0.005 A 
ATOM     13  C   UNL     1      16.096   6.426   9.917  0.00  0.00    +0.005 A 
ATOM     14  C   UNL     1      15.246   4.041  11.080  0.00  0.00    +0.000 A 
ATOM     15  C   UNL     1      15.694   6.402  11.252  0.00  0.00    +0.000 A 
ATOM     16  C   UNL     1      15.272   5.210  11.834  0.00  0.00    +0.000 A 
ENDBRANCH  10  11
ENDBRANCH   1  10
TORSDOF 2
ENDMDL
MODEL 8
REMARK VINA RESULT:    -4.349      9.705     11.648
REMARK INTER + INTRA:          -4.973
REMARK INTER:                  -4.853
REMARK INTRA:                  -0.120
REMARK UNBOUND:                -0.115
REMARK  Name = 1550473
REMARK  2 active torsions:
REMARK  status: ('A' for Active; 'I' for Inactive)
REMARK    1  A    between atoms: N_1  and  C_4
REMARK    2  A    between atoms: C_4  and  C_5
REMARK                            x       y       z     vdW  Elec       q    Type
REMARK                         _______ _______ _______ _____ _____    ______ ____
ROOT
ATOM      1  N   UNL     1       9.394  -8.844   9.591  0.00  0.00    -0.354 N 
ATOM      2  N   UNL     1       7.594 -10.295   9.731  0.00  0.00    -0.372 N 
ATOM      3  N   UNL     1       9.502 -10.777  10.911  0.00  0.00    -0.372 N 
ATOM      4  C   UNL     1       8.844  -9.964  10.078  0.00  0.00    +0.166 C 
ATOM      5  H   UNL     1       8.853  -8.285   8.940  0.00  0.00    +0.163 HD
ATOM      6  H   UNL     1       7.152 -11.132  10.085  0.00  0.00    +0.159 HD
ATOM      7  H   UNL     1       7.040  -9.711   9.116  0.00  0.00    +0.159 HD
ATOM      8  H   UNL     1      10.450 -10.587  11.207  0.00  0.00    +0.159 HD
ATOM      9  H   UNL     1       9.081 -11.626  11.267  0.00  0.00    +0.159 HD
ENDROOT
BRANCH   1  10
ATOM     10  C   UNL     1      10.728  -8.365   9.949  0.00  0.00    +0.151 C 
BRANCH  10  11
ATOM     11  C   UNL     1      11.078  -7.189   9.080  0.00  0.00    -0.028 A 
ATOM     12  C   UNL     1      12.411  -6.775   8.944  0.00  0.00    +0.005 A 
ATOM     13  C   UNL     1      10.080  -6.486   8.386  0.00  0.00    +0.005 A 
ATOM     14  C   UNL     1      12.739  -5.701   8.113  0.00  0.00    +0.000 A 
ATOM     15  C   UNL     1      10.412  -5.414   7.558  0.00  0.00    +0.000 A 
ATOM     16  C   UNL     1      11.742  -5.023   7.420  0.00  0.00    +0.000 A 
ENDBRANCH  10  11
ENDBRANCH   1  10
TORSDOF 2
ENDMDL
MODEL 9
REMARK VINA RESULT:    -4.280     23.224     23.796
REMARK INTER + INTRA:          -4.896
REMARK INTER:                  -4.750
REMARK INTRA:                  -0.146
REMARK UNBOUND:                -0.115
REMARK  Name = 1550473
REMARK  2 active torsions:
REMARK  status: ('A' for Active; 'I' for Inactive)
REMARK    1  A    between atoms: N_1  and  C_4
REMARK    2  A    between atoms: C_4  and  C_5
REMARK                            x       y       z     vdW  Elec       q    Type
REMARK                         _______ _______ _______ _____ _____    ______ ____
ROOT
ATOM      1  N   UNL     1     -14.648  -1.445  -4.041  0.00  0.00    -0.354 N 
ATOM      2  N   UNL     1     -13.934  -3.638  -4.257  0.00  0.00    -0.372 N 
ATOM      3  N   UNL     1     -15.587  -2.867  -5.649  0.00  0.00    -0.372 N 
ATOM      4  C   UNL     1     -14.730  -2.636  -4.650  0.00  0.00    +0.166 C 
ATOM      5  H   UNL     1     -13.998  -1.343  -3.269  0.00  0.00    +0.163 HD
ATOM      6  H   UNL     1     -13.971  -4.546  -4.700  0.00  0.00    +0.159 HD
ATOM      7  H   UNL     1     -13.253  -3.520  -3.517  0.00  0.00    +0.159 HD
ATOM      8  H   UNL     1     -16.219  -2.154  -5.988  0.00  0.00    +0.159 HD
ATOM      9  H   UNL     1     -15.647  -3.773  -6.097  0.00  0.00    +0.159 HD
ENDROOT
BRANCH   1  10
ATOM     10  C   UNL     1     -15.431  -0.274  -4.427  0.00  0.00    +0.151 C 
BRANCH  10  11
ATOM     11  C   UNL     1     -16.152   0.256  -3.218  0.00  0.00    -0.028 A 
ATOM     12  C   UNL     1     -16.071   1.614  -2.879  0.00  0.00    +0.005 A 
ATOM     13  C   UNL     1     -16.923  -0.595  -2.411  0.00  0.00    +0.005 A 
ATOM     14  C   UNL     1     -16.765   2.112  -1.774  0.00  0.00    +0.000 A 
ATOM     15  C   UNL     1     -17.613  -0.094  -1.308  0.00  0.00    +0.000 A 
ATOM     16  C   UNL     1     -17.536   1.260  -0.991  0.00  0.00    +0.000 A 
ENDBRANCH  10  11
ENDBRANCH   1  10
TORSDOF 2
ENDMDL
