MODEL 1
REMARK VINA RESULT:    -5.023      0.000      0.000
REMARK INTER + INTRA:          -5.719
REMARK INTER:                  -5.611
REMARK INTRA:                  -0.108
REMARK UNBOUND:                -0.108
REMARK  Name = 1550473
REMARK  2 active torsions:
REMARK  status: ('A' for Active; 'I' for Inactive)
REMARK    1  A    between atoms: N_1  and  C_4
REMARK    2  A    between atoms: C_4  and  C_5
REMARK                            x       y       z     vdW  Elec       q    Type
REMARK                         _______ _______ _______ _____ _____    ______ ____
ROOT
ATOM      1  N   UNL     1       8.411  -8.317  -3.193  0.00  0.00    -0.354 N 
ATOM      2  N   UNL     1      10.300  -8.049  -1.880  0.00  0.00    -0.372 N 
ATOM      3  N   UNL     1       8.234  -7.857  -0.902  0.00  0.00    -0.372 N 
ATOM      4  C   UNL     1       8.967  -8.075  -1.999  0.00  0.00    +0.166 C 
ATOM      5  H   UNL     1       9.023  -8.444  -3.992  0.00  0.00    +0.163 HD
ATOM      6  H   UNL     1      10.748  -7.873  -0.991  0.00  0.00    +0.159 HD
ATOM      7  H   UNL     1      10.909  -8.222  -2.671  0.00  0.00    +0.159 HD
ATOM      8  H   UNL     1       7.223  -7.858  -0.926  0.00  0.00    +0.159 HD
ATOM      9  H   UNL     1       8.664  -7.668  -0.006  0.00  0.00    +0.159 HD
ENDROOT
BRANCH   1  10
ATOM     10  C   UNL     1       6.971  -8.420  -3.419  0.00  0.00    +0.151 C 
BRANCH  10  11
ATOM     11  C   UNL     1       6.648  -9.808  -3.900  0.00  0.00    -0.028 A 
ATOM     12  C   UNL     1       7.501 -10.881  -3.605  0.00  0.00    +0.005 A 
ATOM     13  C   UNL     1       5.486 -10.057  -4.647  0.00  0.00    +0.005 A 
ATOM     14  C   UNL     1       7.186 -12.175  -4.026  0.00  0.00    +0.000 A 
ATOM     15  C   UNL     1       5.175 -11.351  -5.066  0.00  0.00    +0.000 A 
ATOM     16  C   UNL     1       6.024 -12.410  -4.753  0.00  0.00    +0.000 A 
ENDBRANCH  10  11
ENDBRANCH   1  10
TORSDOF 2
ENDMDL
MODEL 2
REMARK VINA RESULT:    -4.968      1.882      2.513
REMARK INTER + INTRA:          -5.656
REMARK INTER:                  -5.522
REMARK INTRA:                  -0.134
REMARK UNBOUND:                -0.108
REMARK  Name = 1550473
REMARK  2 active torsions:
REMARK  status: ('A' for Active; 'I' for Inactive)
REMARK    1  A    between atoms: N_1  and  C_4
REMARK    2  A    between atoms: C_4  and  C_5
REMARK                            x       y       z     vdW  Elec       q    Type
REMARK                         _______ _______ _______ _____ _____    ______ ____
ROOT
ATOM      1  N   UNL     1       9.639  -6.748  -2.019  0.00  0.00    -0.354 N 
ATOM      2  N   UNL     1      11.422  -6.767  -0.541  0.00  0.00    -0.372 N 
ATOM      3  N   UNL     1       9.307  -6.416   0.277  0.00  0.00    -0.372 N 
ATOM      4  C   UNL     1      10.109  -6.643  -0.769  0.00  0.00    +0.166 C 
ATOM      5  H   UNL     1      10.303  -6.890  -2.772  0.00  0.00    +0.163 HD
ATOM      6  H   UNL     1      11.805  -6.696   0.392  0.00  0.00    +0.159 HD
ATOM      7  H   UNL     1      12.078  -6.955  -1.290  0.00  0.00    +0.159 HD
ATOM      8  H   UNL     1       8.307  -6.307   0.171  0.00  0.00    +0.159 HD
ATOM      9  H   UNL     1       9.673  -6.330   1.217  0.00  0.00    +0.159 HD
ENDROOT
BRANCH   1  10
ATOM     10  C   UNL     1       8.221  -6.682  -2.368  0.00  0.00    +0.151 C 
BRANCH  10  11
ATOM     11  C   UNL     1       7.894  -7.808  -3.310  0.00  0.00    -0.028 A 
ATOM     12  C   UNL     1       8.889  -8.365  -4.126  0.00  0.00    +0.005 A 
ATOM     13  C   UNL     1       6.592  -8.326  -3.386  0.00  0.00    +0.005 A 
ATOM     14  C   UNL     1       8.593  -9.431  -4.979  0.00  0.00    +0.000 A 
ATOM     15  C   UNL     1       6.300  -9.390  -4.239  0.00  0.00    +0.000 A 
ATOM     16  C   UNL     1       7.301  -9.944  -5.034  0.00  0.00    +0.000 A 
ENDBRANCH  10  11
ENDBRANCH   1  10
TORSDOF 2
ENDMDL
MODEL 3
REMARK VINA RESULT:    -4.863      1.466      2.240
REMARK INTER + INTRA:          -5.539
REMARK INTER:                  -5.427
REMARK INTRA:                  -0.112
REMARK UNBOUND:                -0.108
REMARK  Name = 1550473
REMARK  2 active torsions:
REMARK  status: ('A' for Active; 'I' for Inactive)
REMARK    1  A    between atoms: N_1  and  C_4
REMARK    2  A    between atoms: C_4  and  C_5
REMARK                            x       y       z     vdW  Elec       q    Type
REMARK                         _______ _______ _______ _____ _____    ______ ____
ROOT
ATOM      1  N   UNL     1       8.965  -8.020  -1.921  0.00  0.00    -0.354 N 
ATOM      2  N   UNL     1       8.598  -7.297   0.248  0.00  0.00    -0.372 N 
ATOM      3  N   UNL     1       8.218  -5.842  -1.485  0.00  0.00    -0.372 N 
ATOM      4  C   UNL     1       8.596  -7.055  -1.068  0.00  0.00    +0.166 C 
ATOM      5  H   UNL     1       9.270  -8.908  -1.541  0.00  0.00    +0.163 HD
ATOM      6  H   UNL     1       8.320  -6.590   0.916  0.00  0.00    +0.159 HD
ATOM      7  H   UNL     1       8.859  -8.201   0.623  0.00  0.00    +0.159 HD
ATOM      8  H   UNL     1       8.200  -5.594  -2.465  0.00  0.00    +0.159 HD
ATOM      9  H   UNL     1       7.948  -5.117  -0.832  0.00  0.00    +0.159 HD
ENDROOT
BRANCH   1  10
ATOM     10  C   UNL     1       8.947  -7.876  -3.376  0.00  0.00    +0.151 C 
BRANCH  10  11
ATOM     11  C   UNL     1       7.878  -8.768  -3.944  0.00  0.00    -0.028 A 
ATOM     12  C   UNL     1       6.563  -8.701  -3.461  0.00  0.00    +0.005 A 
ATOM     13  C   UNL     1       8.172  -9.679  -4.971  0.00  0.00    +0.005 A 
ATOM     14  C   UNL     1       5.564  -9.509  -4.009  0.00  0.00    +0.000 A 
ATOM     15  C   UNL     1       7.172 -10.484  -5.514  0.00  0.00    +0.000 A 
ATOM     16  C   UNL     1       5.867 -10.397  -5.035  0.00  0.00    +0.000 A 
ENDBRANCH  10  11
ENDBRANCH   1  10
TORSDOF 2
ENDMDL
MODEL 4
REMARK VINA RESULT:    -4.698     22.251     23.437
REMARK INTER + INTRA:          -5.355
REMARK INTER:                  -5.235
REMARK INTRA:                  -0.120
REMARK UNBOUND:                -0.108
REMARK  Name = 1550473
REMARK  2 active torsions:
REMARK  status: ('A' for Active; 'I' for Inactive)
REMARK    1  A    between atoms: N_1  and  C_4
REMARK    2  A    between atoms: C_4  and  C_5
REMARK                            x       y       z     vdW  Elec       q    Type
REMARK                         _______ _______ _______ _____ _____    ______ ____
ROOT
ATOM      1  N   UNL     1     -15.809 -12.435  -7.896  0.00  0.00    -0.354 N 
ATOM      2  N   UNL     1     -16.774 -14.374  -8.717  0.00  0.00    -0.372 N 
ATOM      3  N   UNL     1     -14.523 -14.358  -8.272  0.00  0.00    -0.372 N 
ATOM      4  C   UNL     1     -15.693 -13.711  -8.289  0.00  0.00    +0.166 C 
ATOM      5  H   UNL     1     -16.718 -11.992  -7.961  0.00  0.00    +0.163 HD
ATOM      6  H   UNL     1     -16.718 -15.338  -9.017  0.00  0.00    +0.159 HD
ATOM      7  H   UNL     1     -17.690 -13.943  -8.738  0.00  0.00    +0.159 HD
ATOM      8  H   UNL     1     -13.668 -13.911  -7.967  0.00  0.00    +0.159 HD
ATOM      9  H   UNL     1     -14.444 -15.319  -8.580  0.00  0.00    +0.159 HD
ENDROOT
BRANCH   1  10
ATOM     10  C   UNL     1     -14.704 -11.640  -7.363  0.00  0.00    +0.151 C 
BRANCH  10  11
ATOM     11  C   UNL     1     -14.646 -10.328  -8.095  0.00  0.00    -0.028 A 
ATOM     12  C   UNL     1     -15.649  -9.365  -7.911  0.00  0.00    +0.005 A 
ATOM     13  C   UNL     1     -13.587 -10.039  -8.969  0.00  0.00    +0.005 A 
ATOM     14  C   UNL     1     -15.580  -8.134  -8.568  0.00  0.00    +0.000 A 
ATOM     15  C   UNL     1     -13.522  -8.809  -9.623  0.00  0.00    +0.000 A 
ATOM     16  C   UNL     1     -14.517  -7.856  -9.421  0.00  0.00    +0.000 A 
ENDBRANCH  10  11
ENDBRANCH   1  10
TORSDOF 2
ENDMDL
MODEL 5
REMARK VINA RESULT:    -4.657      2.416      5.200
REMARK INTER + INTRA:          -5.309
REMARK INTER:                  -5.142
REMARK INTRA:                  -0.167
REMARK UNBOUND:                -0.108
REMARK  Name = 1550473
REMARK  2 active torsions:
REMARK  status: ('A' for Active; 'I' for Inactive)
REMARK    1  A    between atoms: N_1  and  C_4
REMARK    2  A    between atoms: C_4  and  C_5
REMARK                            x       y       z     vdW  Elec       q    Type
REMARK                         _______ _______ _______ _____ _____    ______ ____
ROOT
ATOM      1  N   UNL     1       7.538  -9.536  -3.980  0.00  0.00    -0.354 N 
ATOM      2  N   UNL     1       5.509  -9.749  -5.075  0.00  0.00    -0.372 N 
ATOM      3  N   UNL     1       5.519  -9.082  -2.880  0.00  0.00    -0.372 N 
ATOM      4  C   UNL     1       6.201  -9.454  -3.968  0.00  0.00    +0.166 C 
ATOM      5  H   UNL     1       7.994  -9.853  -4.828  0.00  0.00    +0.163 HD
ATOM      6  H   UNL     1       4.499  -9.692  -5.098  0.00  0.00    +0.159 HD
ATOM      7  H   UNL     1       5.969 -10.021  -5.935  0.00  0.00    +0.159 HD
ATOM      8  H   UNL     1       5.982  -8.852  -2.011  0.00  0.00    +0.159 HD
ATOM      9  H   UNL     1       4.508  -9.031  -2.879  0.00  0.00    +0.159 HD
ENDROOT
BRANCH   1  10
ATOM     10  C   UNL     1       8.389  -9.185  -2.844  0.00  0.00    +0.151 C 
BRANCH  10  11
ATOM     11  C   UNL     1       8.787  -7.739  -2.957  0.00  0.00    -0.028 A 
ATOM     12  C   UNL     1       8.266  -6.786  -2.070  0.00  0.00    +0.005 A 
ATOM     13  C   UNL     1       9.689  -7.318  -3.946  0.00  0.00    +0.005 A 
ATOM     14  C   UNL     1       8.659  -5.448  -2.156  0.00  0.00    +0.000 A 
ATOM     15  C   UNL     1      10.078  -5.981  -4.028  0.00  0.00    +0.000 A 
ATOM     16  C   UNL     1       9.565  -5.047  -3.132  0.00  0.00    +0.000 A 
ENDBRANCH  10  11
ENDBRANCH   1  10
TORSDOF 2
ENDMDL
MODEL 6
REMARK VINA RESULT:    -4.478     11.168     12.043
REMARK INTER + INTRA:          -5.109
REMARK INTER:                  -4.959
REMARK INTRA:                  -0.150
REMARK UNBOUND:                -0.108
REMARK  Name = 1550473
REMARK  2 active torsions:
REMARK  status: ('A' for Active; 'I' for Inactive)
REMARK    1  A    between atoms: N_1  and  C_4
REMARK    2  A    between atoms: C_4  and  C_5
REMARK                            x       y       z     vdW  Elec       q    Type
REMARK                         _______ _______ _______ _____ _____    ______ ____
ROOT
ATOM      1  N   UNL     1       1.485 -18.182   1.281  0.00  0.00    -0.354 N 
ATOM      2  N   UNL     1       2.955 -18.921  -0.349  0.00  0.00    -0.372 N 
ATOM      3  N   UNL     1       2.846 -20.056   1.642  0.00  0.00    -0.372 N 
ATOM      4  C   UNL     1       2.420 -19.050   0.871  0.00  0.00    +0.166 C 
ATOM      5  H   UNL     1       1.228 -17.423   0.661  0.00  0.00    +0.163 HD
ATOM      6  H   UNL     1       3.660 -19.562  -0.688  0.00  0.00    +0.159 HD
ATOM      7  H   UNL     1       2.662 -18.189  -0.985  0.00  0.00    +0.159 HD
ATOM      8  H   UNL     1       2.486 -20.205   2.575  0.00  0.00    +0.159 HD
ATOM      9  H   UNL     1       3.559 -20.702   1.325  0.00  0.00    +0.159 HD
ENDROOT
BRANCH   1  10
ATOM     10  C   UNL     1       0.801 -18.267   2.570  0.00  0.00    +0.151 C 
BRANCH  10  11
ATOM     11  C   UNL     1       0.955 -16.958   3.295  0.00  0.00    -0.028 A 
ATOM     12  C   UNL     1       2.227 -16.488   3.653  0.00  0.00    +0.005 A 
ATOM     13  C   UNL     1      -0.167 -16.181   3.620  0.00  0.00    +0.005 A 
ATOM     14  C   UNL     1       2.372 -15.258   4.300  0.00  0.00    +0.000 A 
ATOM     15  C   UNL     1      -0.018 -14.954   4.266  0.00  0.00    +0.000 A 
ATOM     16  C   UNL     1       1.252 -14.492   4.604  0.00  0.00    +0.000 A 
ENDBRANCH  10  11
ENDBRANCH   1  10
TORSDOF 2
ENDMDL
MODEL 7
REMARK VINA RESULT:    -4.396     12.803     13.946
REMARK INTER + INTRA:          -5.018
REMARK INTER:                  -4.902
REMARK INTRA:                  -0.115
REMARK UNBOUND:                -0.108
REMARK  Name = 1550473
REMARK  2 active torsions:
REMARK  status: ('A' for Active; 'I' for Inactive)
REMARK    1  A    between atoms: N_1  and  C_4
REMARK    2  A    between atoms: C_4  and  C_5
REMARK                            x       y       z     vdW  Elec       q    Type
REMARK                         _______ _______ _______ _____ _____    ______ ____
ROOT
ATOM      1  N   UNL     1      -2.624  -3.452 -10.612  0.00  0.00    -0.354 N 
ATOM      2  N   UNL     1      -3.420  -2.625  -8.601  0.00  0.00    -0.372 N 
ATOM      3  N   UNL     1      -4.430  -1.961 -10.551  0.00  0.00    -0.372 N 
ATOM      4  C   UNL     1      -3.488  -2.683  -9.936  0.00  0.00    +0.166 C 
ATOM      5  H   UNL     1      -1.913  -3.951 -10.090  0.00  0.00    +0.163 HD
ATOM      6  H   UNL     1      -4.061  -2.056  -8.064  0.00  0.00    +0.159 HD
ATOM      7  H   UNL     1      -2.739  -3.161  -8.078  0.00  0.00    +0.159 HD
ATOM      8  H   UNL     1      -4.530  -1.957 -11.557  0.00  0.00    +0.159 HD
ATOM      9  H   UNL     1      -5.073  -1.376 -10.032  0.00  0.00    +0.159 HD
ENDROOT
BRANCH   1  10
ATOM     10  C   UNL     1      -2.647  -3.627 -12.063  0.00  0.00    +0.151 C 
BRANCH  10  11
ATOM     11  C   UNL     1      -1.390  -4.332 -12.493  0.00  0.00    -0.028 A 
ATOM     12  C   UNL     1      -1.420  -5.269 -13.537  0.00  0.00    +0.005 A 
ATOM     13  C   UNL     1      -0.164  -4.065 -11.864  0.00  0.00    +0.005 A 
ATOM     14  C   UNL     1      -0.248  -5.902 -13.956  0.00  0.00    +0.000 A 
ATOM     15  C   UNL     1       1.004  -4.700 -12.285  0.00  0.00    +0.000 A 
ATOM     16  C   UNL     1       0.962  -5.617 -13.333  0.00  0.00    +0.000 A 
ENDBRANCH  10  11
ENDBRANCH   1  10
TORSDOF 2
ENDMDL
MODEL 8
REMARK VINA RESULT:    -4.349     12.438     13.933
REMARK INTER + INTRA:          -4.966
REMARK INTER:                  -4.837
REMARK INTRA:                  -0.128
REMARK UNBOUND:                -0.108
REMARK  Name = 1550473
REMARK  2 active torsions:
REMARK  status: ('A' for Active; 'I' for Inactive)
REMARK    1  A    between atoms: N_1  and  C_4
REMARK    2  A    between atoms: C_4  and  C_5
REMARK                            x       y       z     vdW  Elec       q    Type
REMARK                         _______ _______ _______ _____ _____    ______ ____
ROOT
ATOM      1  N   UNL     1       0.465  -4.917 -12.128  0.00  0.00    -0.354 N 
ATOM      2  N   UNL     1       2.680  -4.274 -12.339  0.00  0.00    -0.372 N 
ATOM      3  N   UNL     1       1.651  -5.306 -14.112  0.00  0.00    -0.372 N 
ATOM      4  C   UNL     1       1.583  -4.838 -12.861  0.00  0.00    +0.166 C 
ATOM      5  H   UNL     1       0.487  -4.570 -11.176  0.00  0.00    +0.163 HD
ATOM      6  H   UNL     1       3.537  -4.197 -12.869  0.00  0.00    +0.159 HD
ATOM      7  H   UNL     1       2.686  -3.887 -11.403  0.00  0.00    +0.159 HD
ATOM      8  H   UNL     1       0.860  -5.748 -14.561  0.00  0.00    +0.159 HD
ATOM      9  H   UNL     1       2.504  -5.248 -14.654  0.00  0.00    +0.159 HD
ENDROOT
BRANCH   1  10
ATOM     10  C   UNL     1      -0.799  -5.463 -12.621  0.00  0.00    +0.151 C 
BRANCH  10  11
ATOM     11  C   UNL     1      -1.913  -4.517 -12.271  0.00  0.00    -0.028 A 
ATOM     12  C   UNL     1      -2.991  -4.330 -13.149  0.00  0.00    +0.005 A 
ATOM     13  C   UNL     1      -1.901  -3.808 -11.060  0.00  0.00    +0.005 A 
ATOM     14  C   UNL     1      -4.042  -3.474 -12.811  0.00  0.00    +0.000 A 
ATOM     15  C   UNL     1      -2.951  -2.953 -10.726  0.00  0.00    +0.000 A 
ATOM     16  C   UNL     1      -4.023  -2.788 -11.601  0.00  0.00    +0.000 A 
ENDBRANCH  10  11
ENDBRANCH   1  10
TORSDOF 2
ENDMDL
MODEL 9
REMARK VINA RESULT:    -4.331     13.677     14.989
REMARK INTER + INTRA:          -4.945
REMARK INTER:                  -4.809
REMARK INTRA:                  -0.136
REMARK UNBOUND:                -0.108
REMARK  Name = 1550473
REMARK  2 active torsions:
REMARK  status: ('A' for Active; 'I' for Inactive)
REMARK    1  A    between atoms: N_1  and  C_4
REMARK    2  A    between atoms: C_4  and  C_5
REMARK                            x       y       z     vdW  Elec       q    Type
REMARK                         _______ _______ _______ _____ _____    ______ ____
ROOT
ATOM      1  N   UNL     1      -1.002  -5.681 -14.586  0.00  0.00    -0.354 N 
ATOM      2  N   UNL     1      -0.270  -5.794 -16.781  0.00  0.00    -0.372 N 
ATOM      3  N   UNL     1       1.271  -5.461 -15.114  0.00  0.00    -0.372 N 
ATOM      4  C   UNL     1      -0.003  -5.644 -15.478  0.00  0.00    +0.166 C 
ATOM      5  H   UNL     1      -1.949  -5.793 -14.929  0.00  0.00    +0.163 HD
ATOM      6  H   UNL     1       0.463  -5.774 -17.476  0.00  0.00    +0.159 HD
ATOM      7  H   UNL     1      -1.213  -5.951 -17.116  0.00  0.00    +0.159 HD
ATOM      8  H   UNL     1       1.539  -5.336 -14.147  0.00  0.00    +0.159 HD
ATOM      9  H   UNL     1       2.018  -5.426 -15.796  0.00  0.00    +0.159 HD
ENDROOT
BRANCH   1  10
ATOM     10  C   UNL     1      -0.811  -5.582 -13.140  0.00  0.00    +0.151 C 
BRANCH  10  11
ATOM     11  C   UNL     1      -1.834  -4.637 -12.573  0.00  0.00    -0.028 A 
ATOM     12  C   UNL     1      -3.007  -4.347 -13.286  0.00  0.00    +0.005 A 
ATOM     13  C   UNL     1      -1.640  -4.034 -11.321  0.00  0.00    +0.005 A 
ATOM     14  C   UNL     1      -3.972  -3.492 -12.746  0.00  0.00    +0.000 A 
ATOM     15  C   UNL     1      -2.605  -3.181 -10.786  0.00  0.00    +0.000 A 
ATOM     16  C   UNL     1      -3.772  -2.912 -11.498  0.00  0.00    +0.000 A 
ENDBRANCH  10  11
ENDBRANCH   1  10
TORSDOF 2
ENDMDL
