MODEL 1
REMARK VINA RESULT:    -4.937      0.000      0.000
REMARK INTER + INTRA:          -5.631
REMARK INTER:                  -5.515
REMARK INTRA:                  -0.116
REMARK UNBOUND:                -0.116
REMARK  Name = 1550473
REMARK  2 active torsions:
REMARK  status: ('A' for Active; 'I' for Inactive)
REMARK    1  A    between atoms: N_1  and  C_4
REMARK    2  A    between atoms: C_4  and  C_5
REMARK                            x       y       z     vdW  Elec       q    Type
REMARK                         _______ _______ _______ _____ _____    ______ ____
ROOT
ATOM      1  N   UNL     1      -2.579  -7.370  11.504  0.00  0.00    -0.354 N 
ATOM      2  N   UNL     1      -1.069  -8.247  13.026  0.00  0.00    -0.372 N 
ATOM      3  N   UNL     1      -2.522  -9.668  11.960  0.00  0.00    -0.372 N 
ATOM      4  C   UNL     1      -2.068  -8.425  12.153  0.00  0.00    +0.166 C 
ATOM      5  H   UNL     1      -2.211  -6.450  11.717  0.00  0.00    +0.163 HD
ATOM      6  H   UNL     1      -0.661  -9.025  13.528  0.00  0.00    +0.159 HD
ATOM      7  H   UNL     1      -0.672  -7.332  13.202  0.00  0.00    +0.159 HD
ATOM      8  H   UNL     1      -3.278  -9.869  11.319  0.00  0.00    +0.159 HD
ATOM      9  H   UNL     1      -2.135 -10.457  12.462  0.00  0.00    +0.159 HD
ENDROOT
BRANCH   1  10
ATOM     10  C   UNL     1      -3.631  -7.463  10.494  0.00  0.00    +0.151 C 
BRANCH  10  11
ATOM     11  C   UNL     1      -3.715  -6.158   9.750  0.00  0.00    -0.028 A 
ATOM     12  C   UNL     1      -4.184  -6.120   8.429  0.00  0.00    +0.005 A 
ATOM     13  C   UNL     1      -3.332  -4.955  10.364  0.00  0.00    +0.005 A 
ATOM     14  C   UNL     1      -4.290  -4.905   7.748  0.00  0.00    +0.000 A 
ATOM     15  C   UNL     1      -3.438  -3.744   9.680  0.00  0.00    +0.000 A 
ATOM     16  C   UNL     1      -3.920  -3.719   8.374  0.00  0.00    +0.000 A 
ENDBRANCH  10  11
ENDBRANCH   1  10
TORSDOF 2
ENDMDL
MODEL 2
REMARK VINA RESULT:    -4.883     16.105     17.224
REMARK INTER + INTRA:          -5.571
REMARK INTER:                  -5.447
REMARK INTRA:                  -0.124
REMARK UNBOUND:                -0.116
REMARK  Name = 1550473
REMARK  2 active torsions:
REMARK  status: ('A' for Active; 'I' for Inactive)
REMARK    1  A    between atoms: N_1  and  C_4
REMARK    2  A    between atoms: C_4  and  C_5
REMARK                            x       y       z     vdW  Elec       q    Type
REMARK                         _______ _______ _______ _____ _____    ______ ____
ROOT
ATOM      1  N   UNL     1      -2.541 -14.468  -2.650  0.00  0.00    -0.354 N 
ATOM      2  N   UNL     1      -3.254 -12.548  -1.568  0.00  0.00    -0.372 N 
ATOM      3  N   UNL     1      -4.619 -14.392  -1.570  0.00  0.00    -0.372 N 
ATOM      4  C   UNL     1      -3.469 -13.817  -1.936  0.00  0.00    +0.166 C 
ATOM      5  H   UNL     1      -1.703 -13.966  -2.921  0.00  0.00    +0.163 HD
ATOM      6  H   UNL     1      -3.935 -12.032  -1.026  0.00  0.00    +0.159 HD
ATOM      7  H   UNL     1      -2.396 -12.063  -1.802  0.00  0.00    +0.159 HD
ATOM      8  H   UNL     1      -4.845 -15.345  -1.821  0.00  0.00    +0.159 HD
ATOM      9  H   UNL     1      -5.318 -13.889  -1.037  0.00  0.00    +0.159 HD
ENDROOT
BRANCH   1  10
ATOM     10  C   UNL     1      -2.654 -15.868  -3.054  0.00  0.00    +0.151 C 
BRANCH  10  11
ATOM     11  C   UNL     1      -1.607 -16.165  -4.092  0.00  0.00    -0.028 A 
ATOM     12  C   UNL     1      -0.602 -15.229  -4.379  0.00  0.00    +0.005 A 
ATOM     13  C   UNL     1      -1.610 -17.383  -4.789  0.00  0.00    +0.005 A 
ATOM     14  C   UNL     1       0.388 -15.517  -5.321  0.00  0.00    +0.000 A 
ATOM     15  C   UNL     1      -0.620 -17.667  -5.729  0.00  0.00    +0.000 A 
ATOM     16  C   UNL     1       0.380 -16.734  -5.993  0.00  0.00    +0.000 A 
ENDBRANCH  10  11
ENDBRANCH   1  10
TORSDOF 2
ENDMDL
MODEL 3
REMARK VINA RESULT:    -4.754      2.531      3.726
REMARK INTER + INTRA:          -5.427
REMARK INTER:                  -5.253
REMARK INTRA:                  -0.174
REMARK UNBOUND:                -0.116
REMARK  Name = 1550473
REMARK  2 active torsions:
REMARK  status: ('A' for Active; 'I' for Inactive)
REMARK    1  A    between atoms: N_1  and  C_4
REMARK    2  A    between atoms: C_4  and  C_5
REMARK                            x       y       z     vdW  Elec       q    Type
REMARK                         _______ _______ _______ _____ _____    ______ ____
ROOT
ATOM      1  N   UNL     1      -3.592  -5.591   9.455  0.00  0.00    -0.354 N 
ATOM      2  N   UNL     1      -2.881  -6.775  11.315  0.00  0.00    -0.372 N 
ATOM      3  N   UNL     1      -4.255  -4.961  11.613  0.00  0.00    -0.372 N 
ATOM      4  C   UNL     1      -3.582  -5.766  10.784  0.00  0.00    +0.166 C 
ATOM      5  H   UNL     1      -3.037  -6.217   8.884  0.00  0.00    +0.163 HD
ATOM      6  H   UNL     1      -2.858  -6.933  12.314  0.00  0.00    +0.159 HD
ATOM      7  H   UNL     1      -2.364  -7.427  10.738  0.00  0.00    +0.159 HD
ATOM      8  H   UNL     1      -4.799  -4.178  11.275  0.00  0.00    +0.159 HD
ATOM      9  H   UNL     1      -4.235  -5.097  12.616  0.00  0.00    +0.159 HD
ENDROOT
BRANCH   1  10
ATOM     10  C   UNL     1      -4.366  -4.556   8.772  0.00  0.00    +0.151 C 
BRANCH  10  11
ATOM     11  C   UNL     1      -5.599  -5.178   8.176  0.00  0.00    -0.028 A 
ATOM     12  C   UNL     1      -5.497  -6.304   7.345  0.00  0.00    +0.005 A 
ATOM     13  C   UNL     1      -6.871  -4.650   8.442  0.00  0.00    +0.005 A 
ATOM     14  C   UNL     1      -6.644  -6.900   6.815  0.00  0.00    +0.000 A 
ATOM     15  C   UNL     1      -8.014  -5.247   7.911  0.00  0.00    +0.000 A 
ATOM     16  C   UNL     1      -7.900  -6.373   7.099  0.00  0.00    +0.000 A 
ENDBRANCH  10  11
ENDBRANCH   1  10
TORSDOF 2
ENDMDL
MODEL 4
REMARK VINA RESULT:    -4.731     22.453     23.475
REMARK INTER + INTRA:          -5.400
REMARK INTER:                  -5.262
REMARK INTRA:                  -0.138
REMARK UNBOUND:                -0.116
REMARK  Name = 1550473
REMARK  2 active torsions:
REMARK  status: ('A' for Active; 'I' for Inactive)
REMARK    1  A    between atoms: N_1  and  C_4
REMARK    2  A    between atoms: C_4  and  C_5
REMARK                            x       y       z     vdW  Elec       q    Type
REMARK                         _______ _______ _______ _____ _____    ______ ____
ROOT
ATOM      1  N   UNL     1      15.464   4.664  17.200  0.00  0.00    -0.354 N 
ATOM      2  N   UNL     1      14.361   4.900  19.222  0.00  0.00    -0.372 N 
ATOM      3  N   UNL     1      13.151   5.030  17.277  0.00  0.00    -0.372 N 
ATOM      4  C   UNL     1      14.331   4.864  17.885  0.00  0.00    +0.166 C 
ATOM      5  H   UNL     1      16.331   4.575  17.719  0.00  0.00    +0.163 HD
ATOM      6  H   UNL     1      13.521   5.046  19.766  0.00  0.00    +0.159 HD
ATOM      7  H   UNL     1      15.221   4.765  19.740  0.00  0.00    +0.159 HD
ATOM      8  H   UNL     1      13.062   5.019  16.270  0.00  0.00    +0.159 HD
ATOM      9  H   UNL     1      12.301   5.189  17.803  0.00  0.00    +0.159 HD
ENDROOT
BRANCH   1  10
ATOM     10  C   UNL     1      15.532   4.553  15.744  0.00  0.00    +0.151 C 
BRANCH  10  11
ATOM     11  C   UNL     1      16.239   5.760  15.192  0.00  0.00    -0.028 A 
ATOM     12  C   UNL     1      16.229   6.023  13.814  0.00  0.00    +0.005 A 
ATOM     13  C   UNL     1      16.917   6.647  16.042  0.00  0.00    +0.005 A 
ATOM     14  C   UNL     1      16.861   7.160  13.304  0.00  0.00    +0.000 A 
ATOM     15  C   UNL     1      17.547   7.781  15.529  0.00  0.00    +0.000 A 
ATOM     16  C   UNL     1      17.517   8.038  14.160  0.00  0.00    +0.000 A 
ENDBRANCH  10  11
ENDBRANCH   1  10
TORSDOF 2
ENDMDL
MODEL 5
REMARK VINA RESULT:    -4.628      2.583      5.387
REMARK INTER + INTRA:          -5.286
REMARK INTER:                  -5.162
REMARK INTRA:                  -0.124
REMARK UNBOUND:                -0.116
REMARK  Name = 1550473
REMARK  2 active torsions:
REMARK  status: ('A' for Active; 'I' for Inactive)
REMARK    1  A    between atoms: N_1  and  C_4
REMARK    2  A    between atoms: C_4  and  C_5
REMARK                            x       y       z     vdW  Elec       q    Type
REMARK                         _______ _______ _______ _____ _____    ______ ____
ROOT
ATOM      1  N   UNL     1      -3.433  -6.429  11.236  0.00  0.00    -0.354 N 
ATOM      2  N   UNL     1      -4.070  -4.243  11.658  0.00  0.00    -0.372 N 
ATOM      3  N   UNL     1      -5.683  -5.783  11.118  0.00  0.00    -0.372 N 
ATOM      4  C   UNL     1      -4.394  -5.500  11.334  0.00  0.00    +0.166 C 
ATOM      5  H   UNL     1      -2.471  -6.144  11.382  0.00  0.00    +0.163 HD
ATOM      6  H   UNL     1      -4.774  -3.521  11.743  0.00  0.00    +0.159 HD
ATOM      7  H   UNL     1      -3.113  -3.971  11.849  0.00  0.00    +0.159 HD
ATOM      8  H   UNL     1      -5.992  -6.712  10.864  0.00  0.00    +0.159 HD
ATOM      9  H   UNL     1      -6.400  -5.072  11.187  0.00  0.00    +0.159 HD
ENDROOT
BRANCH   1  10
ATOM     10  C   UNL     1      -3.685  -7.838  10.941  0.00  0.00    +0.151 C 
BRANCH  10  11
ATOM     11  C   UNL     1      -2.608  -8.673  11.576  0.00  0.00    -0.028 A 
ATOM     12  C   UNL     1      -1.365  -8.108  11.898  0.00  0.00    +0.005 A 
ATOM     13  C   UNL     1      -2.825 -10.029  11.865  0.00  0.00    +0.005 A 
ATOM     14  C   UNL     1      -0.374  -8.875  12.515  0.00  0.00    +0.000 A 
ATOM     15  C   UNL     1      -1.833 -10.793  12.480  0.00  0.00    +0.000 A 
ATOM     16  C   UNL     1      -0.609 -10.215  12.807  0.00  0.00    +0.000 A 
ENDBRANCH  10  11
ENDBRANCH   1  10
TORSDOF 2
ENDMDL
MODEL 6
REMARK VINA RESULT:    -4.414     33.383     35.184
REMARK INTER + INTRA:          -5.047
REMARK INTER:                  -4.937
REMARK INTRA:                  -0.110
REMARK UNBOUND:                -0.116
REMARK  Name = 1550473
REMARK  2 active torsions:
REMARK  status: ('A' for Active; 'I' for Inactive)
REMARK    1  A    between atoms: N_1  and  C_4
REMARK    2  A    between atoms: C_4  and  C_5
REMARK                            x       y       z     vdW  Elec       q    Type
REMARK                         _______ _______ _______ _____ _____    ______ ____
ROOT
ATOM      1  N   UNL     1     -12.439  17.404 -12.943  0.00  0.00    -0.354 N 
ATOM      2  N   UNL     1     -13.001  17.167 -10.709  0.00  0.00    -0.372 N 
ATOM      3  N   UNL     1     -10.796  16.996 -11.322  0.00  0.00    -0.372 N 
ATOM      4  C   UNL     1     -12.072  17.190 -11.672  0.00  0.00    +0.166 C 
ATOM      5  H   UNL     1     -13.425  17.514 -13.147  0.00  0.00    +0.163 HD
ATOM      6  H   UNL     1     -12.754  17.011  -9.741  0.00  0.00    +0.159 HD
ATOM      7  H   UNL     1     -13.981  17.323 -10.910  0.00  0.00    +0.159 HD
ATOM      8  H   UNL     1     -10.048  16.995 -12.002  0.00  0.00    +0.159 HD
ATOM      9  H   UNL     1     -10.531  16.827 -10.360  0.00  0.00    +0.159 HD
ENDROOT
BRANCH   1  10
ATOM     10  C   UNL     1     -11.500  17.501 -14.060  0.00  0.00    +0.151 C 
BRANCH  10  11
ATOM     11  C   UNL     1     -12.080  16.792 -15.252  0.00  0.00    -0.028 A 
ATOM     12  C   UNL     1     -11.407  15.707 -15.833  0.00  0.00    +0.005 A 
ATOM     13  C   UNL     1     -13.306  17.197 -15.803  0.00  0.00    +0.005 A 
ATOM     14  C   UNL     1     -11.960  15.030 -16.922  0.00  0.00    +0.000 A 
ATOM     15  C   UNL     1     -13.854  16.518 -16.891  0.00  0.00    +0.000 A 
ATOM     16  C   UNL     1     -13.182  15.433 -17.449  0.00  0.00    +0.000 A 
ENDBRANCH  10  11
ENDBRANCH   1  10
TORSDOF 2
ENDMDL
MODEL 7
REMARK VINA RESULT:    -4.368     23.531     24.618
REMARK INTER + INTRA:          -4.995
REMARK INTER:                  -4.867
REMARK INTRA:                  -0.129
REMARK UNBOUND:                -0.116
REMARK  Name = 1550473
REMARK  2 active torsions:
REMARK  status: ('A' for Active; 'I' for Inactive)
REMARK    1  A    between atoms: N_1  and  C_4
REMARK    2  A    between atoms: C_4  and  C_5
REMARK                            x       y       z     vdW  Elec       q    Type
REMARK                         _______ _______ _______ _____ _____    ______ ____
ROOT
ATOM      1  N   UNL     1      17.104   6.366  11.159  0.00  0.00    -0.354 N 
ATOM      2  N   UNL     1      18.237   6.012   9.171  0.00  0.00    -0.372 N 
ATOM      3  N   UNL     1      17.209   4.234  10.193  0.00  0.00    -0.372 N 
ATOM      4  C   UNL     1      17.509   5.537  10.188  0.00  0.00    +0.166 C 
ATOM      5  H   UNL     1      17.390   7.337  11.113  0.00  0.00    +0.163 HD
ATOM      6  H   UNL     1      18.554   5.412   8.421  0.00  0.00    +0.159 HD
ATOM      7  H   UNL     1      18.483   6.993   9.103  0.00  0.00    +0.159 HD
ATOM      8  H   UNL     1      16.667   3.812  10.935  0.00  0.00    +0.159 HD
ATOM      9  H   UNL     1      17.526   3.614   9.458  0.00  0.00    +0.159 HD
ENDROOT
BRANCH   1  10
ATOM     10  C   UNL     1      16.262   5.960  12.283  0.00  0.00    +0.151 C 
BRANCH  10  11
ATOM     11  C   UNL     1      16.718   6.677  13.523  0.00  0.00    -0.028 A 
ATOM     12  C   UNL     1      17.410   7.894  13.429  0.00  0.00    +0.005 A 
ATOM     13  C   UNL     1      16.457   6.148  14.797  0.00  0.00    +0.005 A 
ATOM     14  C   UNL     1      17.807   8.575  14.581  0.00  0.00    +0.000 A 
ATOM     15  C   UNL     1      16.856   6.832  15.945  0.00  0.00    +0.000 A 
ATOM     16  C   UNL     1      17.529   8.046  15.837  0.00  0.00    +0.000 A 
ENDBRANCH  10  11
ENDBRANCH   1  10
TORSDOF 2
ENDMDL
MODEL 8
REMARK VINA RESULT:    -4.327     16.681     18.113
REMARK INTER + INTRA:          -4.949
REMARK INTER:                  -4.841
REMARK INTRA:                  -0.108
REMARK UNBOUND:                -0.116
REMARK  Name = 1550473
REMARK  2 active torsions:
REMARK  status: ('A' for Active; 'I' for Inactive)
REMARK    1  A    between atoms: N_1  and  C_4
REMARK    2  A    between atoms: C_4  and  C_5
REMARK                            x       y       z     vdW  Elec       q    Type
REMARK                         _______ _______ _______ _____ _____    ______ ____
ROOT
ATOM      1  N   UNL     1      13.515  -4.118   9.358  0.00  0.00    -0.354 N 
ATOM      2  N   UNL     1      12.083  -3.643   7.601  0.00  0.00    -0.372 N 
ATOM      3  N   UNL     1      12.878  -1.914   8.882  0.00  0.00    -0.372 N 
ATOM      4  C   UNL     1      12.835  -3.226   8.626  0.00  0.00    +0.166 C 
ATOM      5  H   UNL     1      13.416  -5.101   9.131  0.00  0.00    +0.163 HD
ATOM      6  H   UNL     1      11.561  -2.993   7.028  0.00  0.00    +0.159 HD
ATOM      7  H   UNL     1      12.022  -4.622   7.348  0.00  0.00    +0.159 HD
ATOM      8  H   UNL     1      13.422  -1.535   9.645  0.00  0.00    +0.159 HD
ATOM      9  H   UNL     1      12.354  -1.248   8.328  0.00  0.00    +0.159 HD
ENDROOT
BRANCH   1  10
ATOM     10  C   UNL     1      14.405  -3.763  10.462  0.00  0.00    +0.151 C 
BRANCH  10  11
ATOM     11  C   UNL     1      14.686  -4.992  11.281  0.00  0.00    -0.028 A 
ATOM     12  C   UNL     1      14.977  -6.213  10.656  0.00  0.00    +0.005 A 
ATOM     13  C   UNL     1      14.668  -4.940  12.683  0.00  0.00    +0.005 A 
ATOM     14  C   UNL     1      15.268  -7.348  11.417  0.00  0.00    +0.000 A 
ATOM     15  C   UNL     1      14.959  -6.076  13.440  0.00  0.00    +0.000 A 
ATOM     16  C   UNL     1      15.261  -7.279  12.806  0.00  0.00    +0.000 A 
ENDBRANCH  10  11
ENDBRANCH   1  10
TORSDOF 2
ENDMDL
MODEL 9
REMARK VINA RESULT:    -4.269     23.688     24.732
REMARK INTER + INTRA:          -4.885
REMARK INTER:                  -4.761
REMARK INTRA:                  -0.123
REMARK UNBOUND:                -0.116
REMARK  Name = 1550473
REMARK  2 active torsions:
REMARK  status: ('A' for Active; 'I' for Inactive)
REMARK    1  A    between atoms: N_1  and  C_4
REMARK    2  A    between atoms: C_4  and  C_5
REMARK                            x       y       z     vdW  Elec       q    Type
REMARK                         _______ _______ _______ _____ _____    ______ ____
ROOT
ATOM      1  N   UNL     1      -9.455  11.272  -5.749  0.00  0.00    -0.354 N 
ATOM      2  N   UNL     1     -11.618  12.100  -5.740  0.00  0.00    -0.372 N 
ATOM      3  N   UNL     1     -10.674  11.441  -3.755  0.00  0.00    -0.372 N 
ATOM      4  C   UNL     1     -10.568  11.598  -5.078  0.00  0.00    +0.166 C 
ATOM      5  H   UNL     1      -9.448  11.387  -6.756  0.00  0.00    +0.163 HD
ATOM      6  H   UNL     1     -12.470  12.359  -5.260  0.00  0.00    +0.159 HD
ATOM      7  H   UNL     1     -11.592  12.258  -6.740  0.00  0.00    +0.159 HD
ATOM      8  H   UNL     1      -9.920  11.061  -3.198  0.00  0.00    +0.159 HD
ATOM      9  H   UNL     1     -11.523  11.683  -3.259  0.00  0.00    +0.159 HD
ENDROOT
BRANCH   1  10
ATOM     10  C   UNL     1      -8.237  10.767  -5.116  0.00  0.00    +0.151 C 
BRANCH  10  11
ATOM     11  C   UNL     1      -7.187  10.557  -6.171  0.00  0.00    -0.028 A 
ATOM     12  C   UNL     1      -7.490  10.750  -7.527  0.00  0.00    +0.005 A 
ATOM     13  C   UNL     1      -5.884  10.169  -5.821  0.00  0.00    +0.005 A 
ATOM     14  C   UNL     1      -6.506  10.583  -8.505  0.00  0.00    +0.000 A 
ATOM     15  C   UNL     1      -4.905  10.003  -6.801  0.00  0.00    +0.000 A 
ATOM     16  C   UNL     1      -5.216  10.213  -8.142  0.00  0.00    +0.000 A 
ENDBRANCH  10  11
ENDBRANCH   1  10
TORSDOF 2
ENDMDL
