MODEL 1
REMARK VINA RESULT:    -5.231      0.000      0.000
REMARK INTER + INTRA:          -5.970
REMARK INTER:                  -5.843
REMARK INTRA:                  -0.127
REMARK UNBOUND:                -0.127
REMARK  Name = 1550473
REMARK  2 active torsions:
REMARK  status: ('A' for Active; 'I' for Inactive)
REMARK    1  A    between atoms: N_1  and  C_4
REMARK    2  A    between atoms: C_4  and  C_5
REMARK                            x       y       z     vdW  Elec       q    Type
REMARK                         _______ _______ _______ _____ _____    ______ ____
ROOT
ATOM      1  N   UNL     1      10.333   8.763   4.543  0.00  0.00    -0.354 N 
ATOM      2  N   UNL     1      10.603   7.878   6.667  0.00  0.00    -0.372 N 
ATOM      3  N   UNL     1      10.198   6.453   4.914  0.00  0.00    -0.372 N 
ATOM      4  C   UNL     1      10.375   7.701   5.359  0.00  0.00    +0.166 C 
ATOM      5  H   UNL     1      10.445   9.686   4.947  0.00  0.00    +0.163 HD
ATOM      6  H   UNL     1      10.644   7.096   7.306  0.00  0.00    +0.159 HD
ATOM      7  H   UNL     1      10.761   8.798   7.060  0.00  0.00    +0.159 HD
ATOM      8  H   UNL     1      10.017   6.252   3.940  0.00  0.00    +0.159 HD
ATOM      9  H   UNL     1      10.224   5.658   5.541  0.00  0.00    +0.159 HD
ENDROOT
BRANCH   1  10
ATOM     10  C   UNL     1      10.145   8.675   3.096  0.00  0.00    +0.151 C 
BRANCH  10  11
ATOM     11  C   UNL     1       9.532   9.955   2.602  0.00  0.00    -0.028 A 
ATOM     12  C   UNL     1       9.064  10.058   1.283  0.00  0.00    +0.005 A 
ATOM     13  C   UNL     1       9.410  11.068   3.448  0.00  0.00    +0.005 A 
ATOM     14  C   UNL     1       8.467  11.238   0.832  0.00  0.00    +0.000 A 
ATOM     15  C   UNL     1       8.814  12.245   2.994  0.00  0.00    +0.000 A 
ATOM     16  C   UNL     1       8.340  12.328   1.687  0.00  0.00    +0.000 A 
ENDBRANCH  10  11
ENDBRANCH   1  10
TORSDOF 2
ENDMDL
MODEL 2
REMARK VINA RESULT:    -5.144     17.788     18.757
REMARK INTER + INTRA:          -5.872
REMARK INTER:                  -5.720
REMARK INTRA:                  -0.153
REMARK UNBOUND:                -0.127
REMARK  Name = 1550473
REMARK  2 active torsions:
REMARK  status: ('A' for Active; 'I' for Inactive)
REMARK    1  A    between atoms: N_1  and  C_4
REMARK    2  A    between atoms: C_4  and  C_5
REMARK                            x       y       z     vdW  Elec       q    Type
REMARK                         _______ _______ _______ _____ _____    ______ ____
ROOT
ATOM      1  N   UNL     1       0.721  14.604  16.640  0.00  0.00    -0.354 N 
ATOM      2  N   UNL     1       2.520  15.053  15.252  0.00  0.00    -0.372 N 
ATOM      3  N   UNL     1       2.785  13.543  16.959  0.00  0.00    -0.372 N 
ATOM      4  C   UNL     1       1.998  14.395  16.294  0.00  0.00    +0.166 C 
ATOM      5  H   UNL     1       0.186  15.286  16.114  0.00  0.00    +0.163 HD
ATOM      6  H   UNL     1       3.480  14.913  14.966  0.00  0.00    +0.159 HD
ATOM      7  H   UNL     1       1.969  15.700  14.700  0.00  0.00    +0.159 HD
ATOM      8  H   UNL     1       2.454  13.020  17.759  0.00  0.00    +0.159 HD
ATOM      9  H   UNL     1       3.752  13.398  16.695  0.00  0.00    +0.159 HD
ENDROOT
BRANCH   1  10
ATOM     10  C   UNL     1       0.041  13.899  17.725  0.00  0.00    +0.151 C 
BRANCH  10  11
ATOM     11  C   UNL     1      -0.418  14.900  18.749  0.00  0.00    -0.028 A 
ATOM     12  C   UNL     1       0.510  15.718  19.411  0.00  0.00    +0.005 A 
ATOM     13  C   UNL     1      -1.780  15.040  19.058  0.00  0.00    +0.005 A 
ATOM     14  C   UNL     1       0.081  16.668  20.341  0.00  0.00    +0.000 A 
ATOM     15  C   UNL     1      -2.204  15.989  19.987  0.00  0.00    +0.000 A 
ATOM     16  C   UNL     1      -1.273  16.805  20.627  0.00  0.00    +0.000 A 
ENDBRANCH  10  11
ENDBRANCH   1  10
TORSDOF 2
ENDMDL
MODEL 3
REMARK VINA RESULT:    -5.070     24.192     24.459
REMARK INTER + INTRA:          -5.790
REMARK INTER:                  -5.677
REMARK INTRA:                  -0.113
REMARK UNBOUND:                -0.127
REMARK  Name = 1550473
REMARK  2 active torsions:
REMARK  status: ('A' for Active; 'I' for Inactive)
REMARK    1  A    between atoms: N_1  and  C_4
REMARK    2  A    between atoms: C_4  and  C_5
REMARK                            x       y       z     vdW  Elec       q    Type
REMARK                         _______ _______ _______ _____ _____    ______ ____
ROOT
ATOM      1  N   UNL     1     -15.347   4.849   7.452  0.00  0.00    -0.354 N 
ATOM      2  N   UNL     1     -17.448   4.021   7.966  0.00  0.00    -0.372 N 
ATOM      3  N   UNL     1     -17.085   4.906   5.881  0.00  0.00    -0.372 N 
ATOM      4  C   UNL     1     -16.614   4.599   7.094  0.00  0.00    +0.166 C 
ATOM      5  H   UNL     1     -15.059   4.619   8.396  0.00  0.00    +0.163 HD
ATOM      6  H   UNL     1     -18.408   3.817   7.724  0.00  0.00    +0.159 HD
ATOM      7  H   UNL     1     -17.145   3.751   8.894  0.00  0.00    +0.159 HD
ATOM      8  H   UNL     1     -16.508   5.349   5.178  0.00  0.00    +0.159 HD
ATOM      9  H   UNL     1     -18.046   4.721   5.623  0.00  0.00    +0.159 HD
ENDROOT
BRANCH   1  10
ATOM     10  C   UNL     1     -14.344   5.425   6.558  0.00  0.00    +0.151 C 
BRANCH  10  11
ATOM     11  C   UNL     1     -12.993   5.332   7.212  0.00  0.00    -0.028 A 
ATOM     12  C   UNL     1     -11.842   5.115   6.440  0.00  0.00    +0.005 A 
ATOM     13  C   UNL     1     -12.856   5.466   8.602  0.00  0.00    +0.005 A 
ATOM     14  C   UNL     1     -10.583   5.058   7.044  0.00  0.00    +0.000 A 
ATOM     15  C   UNL     1     -11.598   5.407   9.201  0.00  0.00    +0.000 A 
ATOM     16  C   UNL     1     -10.461   5.206   8.421  0.00  0.00    +0.000 A 
ENDBRANCH  10  11
ENDBRANCH   1  10
TORSDOF 2
ENDMDL
MODEL 4
REMARK VINA RESULT:    -4.977     22.233     22.600
REMARK INTER + INTRA:          -5.687
REMARK INTER:                  -5.562
REMARK INTRA:                  -0.124
REMARK UNBOUND:                -0.127
REMARK  Name = 1550473
REMARK  2 active torsions:
REMARK  status: ('A' for Active; 'I' for Inactive)
REMARK    1  A    between atoms: N_1  and  C_4
REMARK    2  A    between atoms: C_4  and  C_5
REMARK                            x       y       z     vdW  Elec       q    Type
REMARK                         _______ _______ _______ _____ _____    ______ ____
ROOT
ATOM      1  N   UNL     1     -12.455   6.492   4.029  0.00  0.00    -0.354 N 
ATOM      2  N   UNL     1     -14.245   7.550   3.008  0.00  0.00    -0.372 N 
ATOM      3  N   UNL     1     -14.430   5.327   3.546  0.00  0.00    -0.372 N 
ATOM      4  C   UNL     1     -13.699   6.446   3.534  0.00  0.00    +0.166 C 
ATOM      5  H   UNL     1     -11.942   7.364   3.963  0.00  0.00    +0.163 HD
ATOM      6  H   UNL     1     -15.183   7.546   2.631  0.00  0.00    +0.159 HD
ATOM      7  H   UNL     1     -13.747   8.431   2.985  0.00  0.00    +0.159 HD
ATOM      8  H   UNL     1     -14.074   4.459   3.924  0.00  0.00    +0.159 HD
ATOM      9  H   UNL     1     -15.366   5.301   3.162  0.00  0.00    +0.159 HD
ENDROOT
BRANCH   1  10
ATOM     10  C   UNL     1     -11.789   5.361   4.672  0.00  0.00    +0.151 C 
BRANCH  10  11
ATOM     11  C   UNL     1     -11.482   5.719   6.100  0.00  0.00    -0.028 A 
ATOM     12  C   UNL     1     -10.715   4.860   6.900  0.00  0.00    +0.005 A 
ATOM     13  C   UNL     1     -11.951   6.919   6.657  0.00  0.00    +0.005 A 
ATOM     14  C   UNL     1     -10.404   5.207   8.218  0.00  0.00    +0.000 A 
ATOM     15  C   UNL     1     -11.640   7.261   7.973  0.00  0.00    +0.000 A 
ATOM     16  C   UNL     1     -10.864   6.405   8.752  0.00  0.00    +0.000 A 
ENDBRANCH  10  11
ENDBRANCH   1  10
TORSDOF 2
ENDMDL
MODEL 5
REMARK VINA RESULT:    -4.909      2.806      5.177
REMARK INTER + INTRA:          -5.611
REMARK INTER:                  -5.465
REMARK INTRA:                  -0.146
REMARK UNBOUND:                -0.127
REMARK  Name = 1550473
REMARK  2 active torsions:
REMARK  status: ('A' for Active; 'I' for Inactive)
REMARK    1  A    between atoms: N_1  and  C_4
REMARK    2  A    between atoms: C_4  and  C_5
REMARK                            x       y       z     vdW  Elec       q    Type
REMARK                         _______ _______ _______ _____ _____    ______ ____
ROOT
ATOM      1  N   UNL     1       9.669  11.586   2.902  0.00  0.00    -0.354 N 
ATOM      2  N   UNL     1       8.299  12.634   1.357  0.00  0.00    -0.372 N 
ATOM      3  N   UNL     1       7.929  12.996   3.592  0.00  0.00    -0.372 N 
ATOM      4  C   UNL     1       8.640  12.399   2.630  0.00  0.00    +0.166 C 
ATOM      5  H   UNL     1      10.149  11.141   2.128  0.00  0.00    +0.163 HD
ATOM      6  H   UNL     1       7.529  13.245   1.120  0.00  0.00    +0.159 HD
ATOM      7  H   UNL     1       8.809  12.224   0.584  0.00  0.00    +0.159 HD
ATOM      8  H   UNL     1       8.132  12.856   4.573  0.00  0.00    +0.159 HD
ATOM      9  H   UNL     1       7.147  13.602   3.376  0.00  0.00    +0.159 HD
ENDROOT
BRANCH   1  10
ATOM     10  C   UNL     1      10.156  11.308   4.252  0.00  0.00    +0.151 C 
BRANCH  10  11
ATOM     11  C   UNL     1      10.155   9.821   4.478  0.00  0.00    -0.028 A 
ATOM     12  C   UNL     1      10.496   9.290   5.730  0.00  0.00    +0.005 A 
ATOM     13  C   UNL     1       9.808   8.937   3.444  0.00  0.00    +0.005 A 
ATOM     14  C   UNL     1      10.466   7.911   5.948  0.00  0.00    +0.000 A 
ATOM     15  C   UNL     1       9.781   7.561   3.665  0.00  0.00    +0.000 A 
ATOM     16  C   UNL     1      10.107   7.048   4.918  0.00  0.00    +0.000 A 
ENDBRANCH  10  11
ENDBRANCH   1  10
TORSDOF 2
ENDMDL
MODEL 6
REMARK VINA RESULT:    -4.891     23.843     26.084
REMARK INTER + INTRA:          -5.590
REMARK INTER:                  -5.479
REMARK INTRA:                  -0.111
REMARK UNBOUND:                -0.127
REMARK  Name = 1550473
REMARK  2 active torsions:
REMARK  status: ('A' for Active; 'I' for Inactive)
REMARK    1  A    between atoms: N_1  and  C_4
REMARK    2  A    between atoms: C_4  and  C_5
REMARK                            x       y       z     vdW  Elec       q    Type
REMARK                         _______ _______ _______ _____ _____    ______ ____
ROOT
ATOM      1  N   UNL     1      -0.000   5.619  25.971  0.00  0.00    -0.354 N 
ATOM      2  N   UNL     1       0.357   7.862  25.517  0.00  0.00    -0.372 N 
ATOM      3  N   UNL     1       1.322   6.287  24.155  0.00  0.00    -0.372 N 
ATOM      4  C   UNL     1       0.559   6.574  25.216  0.00  0.00    +0.166 C 
ATOM      5  H   UNL     1      -0.543   5.902  26.779  0.00  0.00    +0.163 HD
ATOM      6  H   UNL     1       0.763   8.604  24.963  0.00  0.00    +0.159 HD
ATOM      7  H   UNL     1      -0.224   8.142  26.298  0.00  0.00    +0.159 HD
ATOM      8  H   UNL     1       1.517   5.335  23.878  0.00  0.00    +0.159 HD
ATOM      9  H   UNL     1       1.746   7.016  23.596  0.00  0.00    +0.159 HD
ENDROOT
BRANCH   1  10
ATOM     10  C   UNL     1       0.113   4.188  25.697  0.00  0.00    +0.151 C 
BRANCH  10  11
ATOM     11  C   UNL     1      -1.048   3.473  26.331  0.00  0.00    -0.028 A 
ATOM     12  C   UNL     1      -1.479   3.819  27.620  0.00  0.00    +0.005 A 
ATOM     13  C   UNL     1      -1.724   2.451  25.647  0.00  0.00    +0.005 A 
ATOM     14  C   UNL     1      -2.577   3.176  28.198  0.00  0.00    +0.000 A 
ATOM     15  C   UNL     1      -2.818   1.811  26.227  0.00  0.00    +0.000 A 
ATOM     16  C   UNL     1      -3.246   2.175  27.502  0.00  0.00    +0.000 A 
ENDBRANCH  10  11
ENDBRANCH   1  10
TORSDOF 2
ENDMDL
MODEL 7
REMARK VINA RESULT:    -4.764     23.811     24.082
REMARK INTER + INTRA:          -5.448
REMARK INTER:                  -5.264
REMARK INTRA:                  -0.185
REMARK UNBOUND:                -0.127
REMARK  Name = 1550473
REMARK  2 active torsions:
REMARK  status: ('A' for Active; 'I' for Inactive)
REMARK    1  A    between atoms: N_1  and  C_4
REMARK    2  A    between atoms: C_4  and  C_5
REMARK                            x       y       z     vdW  Elec       q    Type
REMARK                         _______ _______ _______ _____ _____    ______ ____
ROOT
ATOM      1  N   UNL     1     -15.008   6.191   6.479  0.00  0.00    -0.354 N 
ATOM      2  N   UNL     1     -15.891   8.316   6.216  0.00  0.00    -0.372 N 
ATOM      3  N   UNL     1     -15.967   7.332   8.288  0.00  0.00    -0.372 N 
ATOM      4  C   UNL     1     -15.617   7.265   6.999  0.00  0.00    +0.166 C 
ATOM      5  H   UNL     1     -14.796   6.190   5.488  0.00  0.00    +0.163 HD
ATOM      6  H   UNL     1     -16.346   9.142   6.581  0.00  0.00    +0.159 HD
ATOM      7  H   UNL     1     -15.636   8.331   5.236  0.00  0.00    +0.159 HD
ATOM      8  H   UNL     1     -15.793   6.570   8.930  0.00  0.00    +0.159 HD
ATOM      9  H   UNL     1     -16.434   8.145   8.669  0.00  0.00    +0.159 HD
ENDROOT
BRANCH   1  10
ATOM     10  C   UNL     1     -14.617   5.016   7.257  0.00  0.00    +0.151 C 
BRANCH  10  11
ATOM     11  C   UNL     1     -13.157   5.120   7.603  0.00  0.00    -0.028 A 
ATOM     12  C   UNL     1     -12.178   4.960   6.611  0.00  0.00    +0.005 A 
ATOM     13  C   UNL     1     -12.747   5.382   8.919  0.00  0.00    +0.005 A 
ATOM     14  C   UNL     1     -10.823   5.086   6.926  0.00  0.00    +0.000 A 
ATOM     15  C   UNL     1     -11.393   5.506   9.229  0.00  0.00    +0.000 A 
ATOM     16  C   UNL     1     -10.431   5.360   8.232  0.00  0.00    +0.000 A 
ENDBRANCH  10  11
ENDBRANCH   1  10
TORSDOF 2
ENDMDL
MODEL 8
REMARK VINA RESULT:    -4.654     25.103     26.440
REMARK INTER + INTRA:          -5.325
REMARK INTER:                  -5.210
REMARK INTRA:                  -0.115
REMARK UNBOUND:                -0.127
REMARK  Name = 1550473
REMARK  2 active torsions:
REMARK  status: ('A' for Active; 'I' for Inactive)
REMARK    1  A    between atoms: N_1  and  C_4
REMARK    2  A    between atoms: C_4  and  C_5
REMARK                            x       y       z     vdW  Elec       q    Type
REMARK                         _______ _______ _______ _____ _____    ______ ____
ROOT
ATOM      1  N   UNL     1      -0.378   2.754  25.661  0.00  0.00    -0.354 N 
ATOM      2  N   UNL     1       1.581   3.567  26.591  0.00  0.00    -0.372 N 
ATOM      3  N   UNL     1       0.103   5.047  25.646  0.00  0.00    -0.372 N 
ATOM      4  C   UNL     1       0.421   3.787  25.959  0.00  0.00    +0.166 C 
ATOM      5  H   UNL     1      -0.066   1.819  25.898  0.00  0.00    +0.163 HD
ATOM      6  H   UNL     1       2.203   4.327  26.832  0.00  0.00    +0.159 HD
ATOM      7  H   UNL     1       1.869   2.637  26.868  0.00  0.00    +0.159 HD
ATOM      8  H   UNL     1      -0.754   5.279  25.164  0.00  0.00    +0.159 HD
ATOM      9  H   UNL     1       0.719   5.820  25.869  0.00  0.00    +0.159 HD
ENDROOT
BRANCH   1  10
ATOM     10  C   UNL     1      -1.686   2.890  25.022  0.00  0.00    +0.151 C 
BRANCH  10  11
ATOM     11  C   UNL     1      -2.490   1.646  25.279  0.00  0.00    -0.028 A 
ATOM     12  C   UNL     1      -3.163   1.003  24.230  0.00  0.00    +0.005 A 
ATOM     13  C   UNL     1      -2.579   1.100  26.569  0.00  0.00    +0.005 A 
ATOM     14  C   UNL     1      -3.886  -0.169  24.462  0.00  0.00    +0.000 A 
ATOM     15  C   UNL     1      -3.302  -0.070  26.798  0.00  0.00    +0.000 A 
ATOM     16  C   UNL     1      -3.953  -0.706  25.744  0.00  0.00    +0.000 A 
ENDBRANCH  10  11
ENDBRANCH   1  10
TORSDOF 2
ENDMDL
MODEL 9
REMARK VINA RESULT:    -4.397      2.975      4.650
REMARK INTER + INTRA:          -5.038
REMARK INTER:                  -4.861
REMARK INTRA:                  -0.177
REMARK UNBOUND:                -0.127
REMARK  Name = 1550473
REMARK  2 active torsions:
REMARK  status: ('A' for Active; 'I' for Inactive)
REMARK    1  A    between atoms: N_1  and  C_4
REMARK    2  A    between atoms: C_4  and  C_5
REMARK                            x       y       z     vdW  Elec       q    Type
REMARK                         _______ _______ _______ _____ _____    ______ ____
ROOT
ATOM      1  N   UNL     1      10.537  10.269   1.663  0.00  0.00    -0.354 N 
ATOM      2  N   UNL     1      12.392  10.683   0.340  0.00  0.00    -0.372 N 
ATOM      3  N   UNL     1      11.463   8.585   0.322  0.00  0.00    -0.372 N 
ATOM      4  C   UNL     1      11.452   9.840   0.783  0.00  0.00    +0.166 C 
ATOM      5  H   UNL     1      10.601  11.224   1.997  0.00  0.00    +0.163 HD
ATOM      6  H   UNL     1      13.094  10.389  -0.326  0.00  0.00    +0.159 HD
ATOM      7  H   UNL     1      12.426  11.650   0.641  0.00  0.00    +0.159 HD
ATOM      8  H   UNL     1      10.784   7.899   0.621  0.00  0.00    +0.159 HD
ATOM      9  H   UNL     1      12.164   8.269  -0.337  0.00  0.00    +0.159 HD
ENDROOT
BRANCH   1  10
ATOM     10  C   UNL     1       9.438   9.447   2.166  0.00  0.00    +0.151 C 
BRANCH  10  11
ATOM     11  C   UNL     1       9.812   8.902   3.518  0.00  0.00    -0.028 A 
ATOM     12  C   UNL     1       9.792   7.521   3.759  0.00  0.00    +0.005 A 
ATOM     13  C   UNL     1      10.192   9.762   4.559  0.00  0.00    +0.005 A 
ATOM     14  C   UNL     1      10.168   7.012   5.004  0.00  0.00    +0.000 A 
ATOM     15  C   UNL     1      10.566   9.251   5.802  0.00  0.00    +0.000 A 
ATOM     16  C   UNL     1      10.556   7.876   6.023  0.00  0.00    +0.000 A 
ENDBRANCH  10  11
ENDBRANCH   1  10
TORSDOF 2
ENDMDL
