MODEL 1
REMARK VINA RESULT:    -5.920      0.000      0.000
REMARK INTER + INTRA:          -6.714
REMARK INTER:                  -6.612
REMARK INTRA:                  -0.102
REMARK UNBOUND:                -0.102
REMARK  Name = 1550473
REMARK  2 active torsions:
REMARK  status: ('A' for Active; 'I' for Inactive)
REMARK    1  A    between atoms: N_1  and  C_4
REMARK    2  A    between atoms: C_4  and  C_5
REMARK                            x       y       z     vdW  Elec       q    Type
REMARK                         _______ _______ _______ _____ _____    ______ ____
ROOT
ATOM      1  N   UNL     1       9.769  -2.948   8.548  0.00  0.00    -0.354 N 
ATOM      2  N   UNL     1      11.584  -1.783   9.392  0.00  0.00    -0.372 N 
ATOM      3  N   UNL     1       9.487  -1.296  10.186  0.00  0.00    -0.372 N 
ATOM      4  C   UNL     1      10.266  -2.015   9.371  0.00  0.00    +0.166 C 
ATOM      5  H   UNL     1      10.408  -3.437   7.933  0.00  0.00    +0.163 HD
ATOM      6  H   UNL     1      11.989  -1.089  10.005  0.00  0.00    +0.159 HD
ATOM      7  H   UNL     1      12.226  -2.307   8.810  0.00  0.00    +0.159 HD
ATOM      8  H   UNL     1       8.484  -1.419  10.214  0.00  0.00    +0.159 HD
ATOM      9  H   UNL     1       9.872  -0.588  10.799  0.00  0.00    +0.159 HD
ENDROOT
BRANCH   1  10
ATOM     10  C   UNL     1       8.355  -3.315   8.487  0.00  0.00    +0.151 C 
BRANCH  10  11
ATOM     11  C   UNL     1       8.114  -4.137   7.251  0.00  0.00    -0.028 A 
ATOM     12  C   UNL     1       7.130  -3.759   6.325  0.00  0.00    +0.005 A 
ATOM     13  C   UNL     1       8.869  -5.292   6.997  0.00  0.00    +0.005 A 
ATOM     14  C   UNL     1       6.926  -4.505   5.162  0.00  0.00    +0.000 A 
ATOM     15  C   UNL     1       8.662  -6.035   5.835  0.00  0.00    +0.000 A 
ATOM     16  C   UNL     1       7.692  -5.640   4.917  0.00  0.00    +0.000 A 
ENDBRANCH  10  11
ENDBRANCH   1  10
TORSDOF 2
ENDMDL
MODEL 2
REMARK VINA RESULT:    -5.884     29.660     31.199
REMARK INTER + INTRA:          -6.674
REMARK INTER:                  -6.555
REMARK INTRA:                  -0.120
REMARK UNBOUND:                -0.102
REMARK  Name = 1550473
REMARK  2 active torsions:
REMARK  status: ('A' for Active; 'I' for Inactive)
REMARK    1  A    between atoms: N_1  and  C_4
REMARK    2  A    between atoms: C_4  and  C_5
REMARK                            x       y       z     vdW  Elec       q    Type
REMARK                         _______ _______ _______ _____ _____    ______ ____
ROOT
ATOM      1  N   UNL     1      -0.867   3.400 -20.096  0.00  0.00    -0.354 N 
ATOM      2  N   UNL     1      -2.018   4.630 -18.507  0.00  0.00    -0.372 N 
ATOM      3  N   UNL     1      -0.458   3.100 -17.808  0.00  0.00    -0.372 N 
ATOM      4  C   UNL     1      -1.105   3.700 -18.812  0.00  0.00    +0.166 C 
ATOM      5  H   UNL     1      -1.413   3.869 -20.809  0.00  0.00    +0.163 HD
ATOM      6  H   UNL     1      -2.217   4.881 -17.547  0.00  0.00    +0.159 HD
ATOM      7  H   UNL     1      -2.530   5.131 -19.224  0.00  0.00    +0.159 HD
ATOM      8  H   UNL     1       0.239   2.385 -17.971  0.00  0.00    +0.159 HD
ATOM      9  H   UNL     1      -0.651   3.328 -16.841  0.00  0.00    +0.159 HD
ENDROOT
BRANCH   1  10
ATOM     10  C   UNL     1       0.144   2.441 -20.537  0.00  0.00    +0.151 C 
BRANCH  10  11
ATOM     11  C   UNL     1       0.253   2.497 -22.036  0.00  0.00    -0.028 A 
ATOM     12  C   UNL     1       1.385   1.984 -22.687  0.00  0.00    +0.005 A 
ATOM     13  C   UNL     1      -0.773   3.058 -22.811  0.00  0.00    +0.005 A 
ATOM     14  C   UNL     1       1.473   2.008 -24.081  0.00  0.00    +0.000 A 
ATOM     15  C   UNL     1      -0.681   3.081 -24.203  0.00  0.00    +0.000 A 
ATOM     16  C   UNL     1       0.441   2.554 -24.837  0.00  0.00    +0.000 A 
ENDBRANCH  10  11
ENDBRANCH   1  10
TORSDOF 2
ENDMDL
MODEL 3
REMARK VINA RESULT:    -5.880     16.594     17.822
REMARK INTER + INTRA:          -6.670
REMARK INTER:                  -6.538
REMARK INTRA:                  -0.132
REMARK UNBOUND:                -0.102
REMARK  Name = 1550473
REMARK  2 active torsions:
REMARK  status: ('A' for Active; 'I' for Inactive)
REMARK    1  A    between atoms: N_1  and  C_4
REMARK    2  A    between atoms: C_4  and  C_5
REMARK                            x       y       z     vdW  Elec       q    Type
REMARK                         _______ _______ _______ _____ _____    ______ ____
ROOT
ATOM      1  N   UNL     1      -7.014 -13.004   5.856  0.00  0.00    -0.354 N 
ATOM      2  N   UNL     1      -8.744 -12.231   4.525  0.00  0.00    -0.372 N 
ATOM      3  N   UNL     1      -9.152 -12.643   6.745  0.00  0.00    -0.372 N 
ATOM      4  C   UNL     1      -8.293 -12.632   5.720  0.00  0.00    +0.166 C 
ATOM      5  H   UNL     1      -6.421 -13.001   5.033  0.00  0.00    +0.163 HD
ATOM      6  H   UNL     1      -9.704 -11.941   4.392  0.00  0.00    +0.159 HD
ATOM      7  H   UNL     1      -8.138 -12.186   3.714  0.00  0.00    +0.159 HD
ATOM      8  H   UNL     1      -8.876 -12.940   7.671  0.00  0.00    +0.159 HD
ATOM      9  H   UNL     1     -10.119 -12.368   6.629  0.00  0.00    +0.159 HD
ENDROOT
BRANCH   1  10
ATOM     10  C   UNL     1      -6.410 -13.405   7.125  0.00  0.00    +0.151 C 
BRANCH  10  11
ATOM     11  C   UNL     1      -5.653 -12.239   7.700  0.00  0.00    -0.028 A 
ATOM     12  C   UNL     1      -6.322 -11.250   8.435  0.00  0.00    +0.005 A 
ATOM     13  C   UNL     1      -4.267 -12.121   7.517  0.00  0.00    +0.005 A 
ATOM     14  C   UNL     1      -5.615 -10.182   8.995  0.00  0.00    +0.000 A 
ATOM     15  C   UNL     1      -3.565 -11.053   8.076  0.00  0.00    +0.000 A 
ATOM     16  C   UNL     1      -4.239 -10.085   8.817  0.00  0.00    +0.000 A 
ENDBRANCH  10  11
ENDBRANCH   1  10
TORSDOF 2
ENDMDL
MODEL 4
REMARK VINA RESULT:    -5.831     31.444     33.055
REMARK INTER + INTRA:          -6.615
REMARK INTER:                  -6.451
REMARK INTRA:                  -0.164
REMARK UNBOUND:                -0.102
REMARK  Name = 1550473
REMARK  2 active torsions:
REMARK  status: ('A' for Active; 'I' for Inactive)
REMARK    1  A    between atoms: N_1  and  C_4
REMARK    2  A    between atoms: C_4  and  C_5
REMARK                            x       y       z     vdW  Elec       q    Type
REMARK                         _______ _______ _______ _____ _____    ______ ____
ROOT
ATOM      1  N   UNL     1     -12.096  -4.133 -19.746  0.00  0.00    -0.354 N 
ATOM      2  N   UNL     1     -11.538  -2.228 -20.939  0.00  0.00    -0.372 N 
ATOM      3  N   UNL     1      -9.868  -3.669 -20.306  0.00  0.00    -0.372 N 
ATOM      4  C   UNL     1     -11.168  -3.357 -20.322  0.00  0.00    +0.166 C 
ATOM      5  H   UNL     1     -13.061  -3.825 -19.766  0.00  0.00    +0.163 HD
ATOM      6  H   UNL     1     -10.861  -1.624 -21.386  0.00  0.00    +0.159 HD
ATOM      7  H   UNL     1     -12.509  -1.946 -20.998  0.00  0.00    +0.159 HD
ATOM      8  H   UNL     1      -9.523  -4.503 -19.851  0.00  0.00    +0.159 HD
ATOM      9  H   UNL     1      -9.174  -3.071 -20.737  0.00  0.00    +0.159 HD
ENDROOT
BRANCH   1  10
ATOM     10  C   UNL     1     -11.804  -5.409 -19.094  0.00  0.00    +0.151 C 
BRANCH  10  11
ATOM     11  C   UNL     1     -12.056  -5.276 -17.618  0.00  0.00    -0.028 A 
ATOM     12  C   UNL     1     -13.357  -5.388 -17.104  0.00  0.00    +0.005 A 
ATOM     13  C   UNL     1     -10.998  -5.043 -16.726  0.00  0.00    +0.005 A 
ATOM     14  C   UNL     1     -13.587  -5.294 -15.730  0.00  0.00    +0.000 A 
ATOM     15  C   UNL     1     -11.232  -4.949 -15.355  0.00  0.00    +0.000 A 
ATOM     16  C   UNL     1     -12.527  -5.077 -14.856  0.00  0.00    +0.000 A 
ENDBRANCH  10  11
ENDBRANCH   1  10
TORSDOF 2
ENDMDL
MODEL 5
REMARK VINA RESULT:    -5.767     29.680     31.186
REMARK INTER + INTRA:          -6.543
REMARK INTER:                  -6.419
REMARK INTRA:                  -0.124
REMARK UNBOUND:                -0.102
REMARK  Name = 1550473
REMARK  2 active torsions:
REMARK  status: ('A' for Active; 'I' for Inactive)
REMARK    1  A    between atoms: N_1  and  C_4
REMARK    2  A    between atoms: C_4  and  C_5
REMARK                            x       y       z     vdW  Elec       q    Type
REMARK                         _______ _______ _______ _____ _____    ______ ____
ROOT
ATOM      1  N   UNL     1      -0.184   2.695 -20.002  0.00  0.00    -0.354 N 
ATOM      2  N   UNL     1       0.459   2.749 -17.778  0.00  0.00    -0.372 N 
ATOM      3  N   UNL     1      -1.440   3.871 -18.411  0.00  0.00    -0.372 N 
ATOM      4  C   UNL     1      -0.395   3.106 -18.745  0.00  0.00    +0.166 C 
ATOM      5  H   UNL     1       0.643   2.142 -20.196  0.00  0.00    +0.163 HD
ATOM      6  H   UNL     1       0.324   3.041 -16.820  0.00  0.00    +0.159 HD
ATOM      7  H   UNL     1       1.260   2.158 -17.966  0.00  0.00    +0.159 HD
ATOM      8  H   UNL     1      -2.118   4.180 -19.096  0.00  0.00    +0.159 HD
ATOM      9  H   UNL     1      -1.586   4.183 -17.460  0.00  0.00    +0.159 HD
ENDROOT
BRANCH   1  10
ATOM     10  C   UNL     1      -1.083   2.983 -21.119  0.00  0.00    +0.151 C 
BRANCH  10  11
ATOM     11  C   UNL     1      -0.360   2.722 -22.411  0.00  0.00    -0.028 A 
ATOM     12  C   UNL     1      -0.914   3.134 -23.633  0.00  0.00    +0.005 A 
ATOM     13  C   UNL     1       0.882   2.068 -22.421  0.00  0.00    +0.005 A 
ATOM     14  C   UNL     1      -0.228   2.918 -24.831  0.00  0.00    +0.000 A 
ATOM     15  C   UNL     1       1.562   1.854 -23.620  0.00  0.00    +0.000 A 
ATOM     16  C   UNL     1       1.008   2.281 -24.824  0.00  0.00    +0.000 A 
ENDBRANCH  10  11
ENDBRANCH   1  10
TORSDOF 2
ENDMDL
MODEL 6
REMARK VINA RESULT:    -5.555     27.864     29.402
REMARK INTER + INTRA:          -6.306
REMARK INTER:                  -6.137
REMARK INTRA:                  -0.169
REMARK UNBOUND:                -0.102
REMARK  Name = 1550473
REMARK  2 active torsions:
REMARK  status: ('A' for Active; 'I' for Inactive)
REMARK    1  A    between atoms: N_1  and  C_4
REMARK    2  A    between atoms: C_4  and  C_5
REMARK                            x       y       z     vdW  Elec       q    Type
REMARK                         _______ _______ _______ _____ _____    ______ ____
ROOT
ATOM      1  N   UNL     1     -18.623 -10.703  -3.659  0.00  0.00    -0.354 N 
ATOM      2  N   UNL     1     -20.146 -11.883  -4.944  0.00  0.00    -0.372 N 
ATOM      3  N   UNL     1     -19.498  -9.792  -5.633  0.00  0.00    -0.372 N 
ATOM      4  C   UNL     1     -19.412 -10.782  -4.738  0.00  0.00    +0.166 C 
ATOM      5  H   UNL     1     -18.625 -11.476  -3.003  0.00  0.00    +0.163 HD
ATOM      6  H   UNL     1     -20.749 -11.973  -5.752  0.00  0.00    +0.159 HD
ATOM      7  H   UNL     1     -20.112 -12.672  -4.311  0.00  0.00    +0.159 HD
ATOM      8  H   UNL     1     -18.975  -8.932  -5.532  0.00  0.00    +0.159 HD
ATOM      9  H   UNL     1     -20.105  -9.858  -6.441  0.00  0.00    +0.159 HD
ENDROOT
BRANCH   1  10
ATOM     10  C   UNL     1     -17.743  -9.571  -3.371  0.00  0.00    +0.151 C 
BRANCH  10  11
ATOM     11  C   UNL     1     -16.367  -9.872  -3.897  0.00  0.00    -0.028 A 
ATOM     12  C   UNL     1     -15.931  -9.316  -5.109  0.00  0.00    +0.005 A 
ATOM     13  C   UNL     1     -15.492 -10.708  -3.186  0.00  0.00    +0.005 A 
ATOM     14  C   UNL     1     -14.642  -9.571  -5.583  0.00  0.00    +0.000 A 
ATOM     15  C   UNL     1     -14.206 -10.960  -3.664  0.00  0.00    +0.000 A 
ATOM     16  C   UNL     1     -13.781 -10.390  -4.861  0.00  0.00    +0.000 A 
ENDBRANCH  10  11
ENDBRANCH   1  10
TORSDOF 2
ENDMDL
MODEL 7
REMARK VINA RESULT:    -5.517     30.922     31.961
REMARK INTER + INTRA:          -6.264
REMARK INTER:                  -6.130
REMARK INTRA:                  -0.134
REMARK UNBOUND:                -0.102
REMARK  Name = 1550473
REMARK  2 active torsions:
REMARK  status: ('A' for Active; 'I' for Inactive)
REMARK    1  A    between atoms: N_1  and  C_4
REMARK    2  A    between atoms: C_4  and  C_5
REMARK                            x       y       z     vdW  Elec       q    Type
REMARK                         _______ _______ _______ _____ _____    ______ ____
ROOT
ATOM      1  N   UNL     1     -11.395 -14.000 -16.400  0.00  0.00    -0.354 N 
ATOM      2  N   UNL     1     -10.160 -15.495 -17.667  0.00  0.00    -0.372 N 
ATOM      3  N   UNL     1      -9.239 -13.459 -17.144  0.00  0.00    -0.372 N 
ATOM      4  C   UNL     1     -10.271 -14.306 -17.062  0.00  0.00    +0.166 C 
ATOM      5  H   UNL     1     -12.152 -14.674 -16.400  0.00  0.00    +0.163 HD
ATOM      6  H   UNL     1      -9.323 -15.755 -18.171  0.00  0.00    +0.159 HD
ATOM      7  H   UNL     1     -10.901 -16.184 -17.627  0.00  0.00    +0.159 HD
ATOM      8  H   UNL     1      -9.262 -12.544 -16.714  0.00  0.00    +0.159 HD
ATOM      9  H   UNL     1      -8.398 -13.697 -17.654  0.00  0.00    +0.159 HD
ENDROOT
BRANCH   1  10
ATOM     10  C   UNL     1     -11.596 -12.754 -15.662  0.00  0.00    +0.151 C 
BRANCH  10  11
ATOM     11  C   UNL     1     -11.937 -13.079 -14.234  0.00  0.00    -0.028 A 
ATOM     12  C   UNL     1     -11.858 -14.398 -13.765  0.00  0.00    +0.005 A 
ATOM     13  C   UNL     1     -12.336 -12.070 -13.343  0.00  0.00    +0.005 A 
ATOM     14  C   UNL     1     -12.146 -14.695 -12.430  0.00  0.00    +0.000 A 
ATOM     15  C   UNL     1     -12.624 -12.371 -12.012  0.00  0.00    +0.000 A 
ATOM     16  C   UNL     1     -12.526 -13.683 -11.555  0.00  0.00    +0.000 A 
ENDBRANCH  10  11
ENDBRANCH   1  10
TORSDOF 2
ENDMDL
MODEL 8
REMARK VINA RESULT:    -5.379     31.010     32.176
REMARK INTER + INTRA:          -6.109
REMARK INTER:                  -6.006
REMARK INTRA:                  -0.104
REMARK UNBOUND:                -0.102
REMARK  Name = 1550473
REMARK  2 active torsions:
REMARK  status: ('A' for Active; 'I' for Inactive)
REMARK    1  A    between atoms: N_1  and  C_4
REMARK    2  A    between atoms: C_4  and  C_5
REMARK                            x       y       z     vdW  Elec       q    Type
REMARK                         _______ _______ _______ _____ _____    ______ ____
ROOT
ATOM      1  N   UNL     1     -10.398  -3.021 -18.536  0.00  0.00    -0.354 N 
ATOM      2  N   UNL     1     -10.376  -0.705 -18.560  0.00  0.00    -0.372 N 
ATOM      3  N   UNL     1      -9.925  -1.798 -16.593  0.00  0.00    -0.372 N 
ATOM      4  C   UNL     1     -10.233  -1.857 -17.893  0.00  0.00    +0.166 C 
ATOM      5  H   UNL     1     -10.660  -2.998 -19.514  0.00  0.00    +0.163 HD
ATOM      6  H   UNL     1     -10.254   0.189 -18.103  0.00  0.00    +0.159 HD
ATOM      7  H   UNL     1     -10.592  -0.685 -19.549  0.00  0.00    +0.159 HD
ATOM      8  H   UNL     1      -9.809  -2.631 -16.032  0.00  0.00    +0.159 HD
ATOM      9  H   UNL     1      -9.811  -0.912 -16.115  0.00  0.00    +0.159 HD
ENDROOT
BRANCH   1  10
ATOM     10  C   UNL     1     -10.212  -4.331 -17.914  0.00  0.00    +0.151 C 
BRANCH  10  11
ATOM     11  C   UNL     1     -11.507  -4.765 -17.285  0.00  0.00    -0.028 A 
ATOM     12  C   UNL     1     -12.594  -5.146 -18.085  0.00  0.00    +0.005 A 
ATOM     13  C   UNL     1     -11.651  -4.802 -15.890  0.00  0.00    +0.005 A 
ATOM     14  C   UNL     1     -13.788  -5.577 -17.501  0.00  0.00    +0.000 A 
ATOM     15  C   UNL     1     -12.845  -5.233 -15.310  0.00  0.00    +0.000 A 
ATOM     16  C   UNL     1     -13.912  -5.623 -16.116  0.00  0.00    +0.000 A 
ENDBRANCH  10  11
ENDBRANCH   1  10
TORSDOF 2
ENDMDL
MODEL 9
REMARK VINA RESULT:    -5.320     26.343     26.914
REMARK INTER + INTRA:          -6.044
REMARK INTER:                  -5.897
REMARK INTRA:                  -0.147
REMARK UNBOUND:                -0.102
REMARK  Name = 1550473
REMARK  2 active torsions:
REMARK  status: ('A' for Active; 'I' for Inactive)
REMARK    1  A    between atoms: N_1  and  C_4
REMARK    2  A    between atoms: C_4  and  C_5
REMARK                            x       y       z     vdW  Elec       q    Type
REMARK                         _______ _______ _______ _____ _____    ______ ____
ROOT
ATOM      1  N   UNL     1     -13.257 -16.653   0.299  0.00  0.00    -0.354 N 
ATOM      2  N   UNL     1     -14.339 -14.813   1.197  0.00  0.00    -0.372 N 
ATOM      3  N   UNL     1     -15.587 -16.440   0.165  0.00  0.00    -0.372 N 
ATOM      4  C   UNL     1     -14.390 -15.982   0.547  0.00  0.00    +0.166 C 
ATOM      5  H   UNL     1     -12.378 -16.238   0.587  0.00  0.00    +0.163 HD
ATOM      6  H   UNL     1     -15.178 -14.286   1.401  0.00  0.00    +0.159 HD
ATOM      7  H   UNL     1     -13.464 -14.423   1.524  0.00  0.00    +0.159 HD
ATOM      8  H   UNL     1     -15.692 -17.312  -0.334  0.00  0.00    +0.159 HD
ATOM      9  H   UNL     1     -16.436 -15.920   0.350  0.00  0.00    +0.159 HD
ENDROOT
BRANCH   1  10
ATOM     10  C   UNL     1     -13.207 -17.960  -0.354  0.00  0.00    +0.151 C 
BRANCH  10  11
ATOM     11  C   UNL     1     -12.240 -17.898  -1.504  0.00  0.00    -0.028 A 
ATOM     12  C   UNL     1     -12.426 -16.972  -2.541  0.00  0.00    +0.005 A 
ATOM     13  C   UNL     1     -11.133 -18.759  -1.560  0.00  0.00    +0.005 A 
ATOM     14  C   UNL     1     -11.511 -16.894  -3.594  0.00  0.00    +0.000 A 
ATOM     15  C   UNL     1     -10.223 -18.678  -2.614  0.00  0.00    +0.000 A 
ATOM     16  C   UNL     1     -10.411 -17.744  -3.629  0.00  0.00    +0.000 A 
ENDBRANCH  10  11
ENDBRANCH   1  10
TORSDOF 2
ENDMDL
