MODEL 1
REMARK VINA RESULT:    -5.843      0.000      0.000
REMARK INTER + INTRA:          -6.650
REMARK INTER:                  -6.526
REMARK INTRA:                  -0.124
REMARK UNBOUND:                -0.124
REMARK  Name = 1550473
REMARK  2 active torsions:
REMARK  status: ('A' for Active; 'I' for Inactive)
REMARK    1  A    between atoms: N_1  and  C_4
REMARK    2  A    between atoms: C_4  and  C_5
REMARK                            x       y       z     vdW  Elec       q    Type
REMARK                         _______ _______ _______ _____ _____    ______ ____
ROOT
ATOM      1  N   UNL     1       5.499  -0.385   3.811  0.00  0.00    -0.354 N 
ATOM      2  N   UNL     1       4.015  -0.663   5.568  0.00  0.00    -0.372 N 
ATOM      3  N   UNL     1       4.571   1.464   4.912  0.00  0.00    -0.372 N 
ATOM      4  C   UNL     1       4.705   0.143   4.752  0.00  0.00    +0.166 C 
ATOM      5  H   UNL     1       5.581  -1.394   3.761  0.00  0.00    +0.163 HD
ATOM      6  H   UNL     1       3.406  -0.294   6.285  0.00  0.00    +0.159 HD
ATOM      7  H   UNL     1       4.063  -1.672   5.486  0.00  0.00    +0.159 HD
ATOM      8  H   UNL     1       5.068   2.127   4.332  0.00  0.00    +0.159 HD
ATOM      9  H   UNL     1       3.974   1.853   5.632  0.00  0.00    +0.159 HD
ENDROOT
BRANCH   1  10
ATOM     10  C   UNL     1       6.251   0.405   2.838  0.00  0.00    +0.151 C 
BRANCH  10  11
ATOM     11  C   UNL     1       7.674  -0.078   2.808  0.00  0.00    -0.028 A 
ATOM     12  C   UNL     1       8.055  -1.118   1.948  0.00  0.00    +0.005 A 
ATOM     13  C   UNL     1       8.649   0.504   3.633  0.00  0.00    +0.005 A 
ATOM     14  C   UNL     1       9.384  -1.547   1.898  0.00  0.00    +0.000 A 
ATOM     15  C   UNL     1       9.974   0.073   3.581  0.00  0.00    +0.000 A 
ATOM     16  C   UNL     1      10.342  -0.951   2.711  0.00  0.00    +0.000 A 
ENDBRANCH  10  11
ENDBRANCH   1  10
TORSDOF 2
ENDMDL
MODEL 2
REMARK VINA RESULT:    -5.830      3.383      5.332
REMARK INTER + INTRA:          -6.636
REMARK INTER:                  -6.459
REMARK INTRA:                  -0.177
REMARK UNBOUND:                -0.124
REMARK  Name = 1550473
REMARK  2 active torsions:
REMARK  status: ('A' for Active; 'I' for Inactive)
REMARK    1  A    between atoms: N_1  and  C_4
REMARK    2  A    between atoms: C_4  and  C_5
REMARK                            x       y       z     vdW  Elec       q    Type
REMARK                         _______ _______ _______ _____ _____    ______ ____
ROOT
ATOM      1  N   UNL     1       5.555   1.091   5.476  0.00  0.00    -0.354 N 
ATOM      2  N   UNL     1       6.815   1.912   7.237  0.00  0.00    -0.372 N 
ATOM      3  N   UNL     1       7.489  -0.019   6.197  0.00  0.00    -0.372 N 
ATOM      4  C   UNL     1       6.613   0.987   6.291  0.00  0.00    +0.166 C 
ATOM      5  H   UNL     1       4.911   1.861   5.619  0.00  0.00    +0.163 HD
ATOM      6  H   UNL     1       7.607   1.862   7.865  0.00  0.00    +0.159 HD
ATOM      7  H   UNL     1       6.196   2.705   7.348  0.00  0.00    +0.159 HD
ATOM      8  H   UNL     1       7.389  -0.753   5.508  0.00  0.00    +0.159 HD
ATOM      9  H   UNL     1       8.281  -0.093   6.823  0.00  0.00    +0.159 HD
ENDROOT
BRANCH   1  10
ATOM     10  C   UNL     1       5.274   0.167   4.379  0.00  0.00    +0.151 C 
BRANCH  10  11
ATOM     11  C   UNL     1       4.265  -0.849   4.839  0.00  0.00    -0.028 A 
ATOM     12  C   UNL     1       4.660  -2.162   5.133  0.00  0.00    +0.005 A 
ATOM     13  C   UNL     1       2.913  -0.503   4.989  0.00  0.00    +0.005 A 
ATOM     14  C   UNL     1       3.728  -3.098   5.589  0.00  0.00    +0.000 A 
ATOM     15  C   UNL     1       1.986  -1.440   5.444  0.00  0.00    +0.000 A 
ATOM     16  C   UNL     1       2.394  -2.737   5.746  0.00  0.00    +0.000 A 
ENDBRANCH  10  11
ENDBRANCH   1  10
TORSDOF 2
ENDMDL
MODEL 3
REMARK VINA RESULT:    -5.823     16.064     17.897
REMARK INTER + INTRA:          -6.628
REMARK INTER:                  -6.478
REMARK INTRA:                  -0.149
REMARK UNBOUND:                -0.124
REMARK  Name = 1550473
REMARK  2 active torsions:
REMARK  status: ('A' for Active; 'I' for Inactive)
REMARK    1  A    between atoms: N_1  and  C_4
REMARK    2  A    between atoms: C_4  and  C_5
REMARK                            x       y       z     vdW  Elec       q    Type
REMARK                         _______ _______ _______ _____ _____    ______ ____
ROOT
ATOM      1  N   UNL     1      -1.440  13.084  10.386  0.00  0.00    -0.354 N 
ATOM      2  N   UNL     1      -1.859  10.832  10.044  0.00  0.00    -0.372 N 
ATOM      3  N   UNL     1      -0.337  11.895   8.695  0.00  0.00    -0.372 N 
ATOM      4  C   UNL     1      -1.208  11.952   9.708  0.00  0.00    +0.166 C 
ATOM      5  H   UNL     1      -2.134  13.069  11.125  0.00  0.00    +0.163 HD
ATOM      6  H   UNL     1      -1.701   9.962   9.553  0.00  0.00    +0.159 HD
ATOM      7  H   UNL     1      -2.518  10.809  10.812  0.00  0.00    +0.159 HD
ATOM      8  H   UNL     1       0.182  12.707   8.388  0.00  0.00    +0.159 HD
ATOM      9  H   UNL     1      -0.175  11.037   8.183  0.00  0.00    +0.159 HD
ENDROOT
BRANCH   1  10
ATOM     10  C   UNL     1      -0.745  14.345  10.135  0.00  0.00    +0.151 C 
BRANCH  10  11
ATOM     11  C   UNL     1       0.092  14.692  11.336  0.00  0.00    -0.028 A 
ATOM     12  C   UNL     1      -0.149  14.077  12.573  0.00  0.00    +0.005 A 
ATOM     13  C   UNL     1       1.132  15.629  11.240  0.00  0.00    +0.005 A 
ATOM     14  C   UNL     1       0.648  14.376  13.681  0.00  0.00    +0.000 A 
ATOM     15  C   UNL     1       1.925  15.926  12.349  0.00  0.00    +0.000 A 
ATOM     16  C   UNL     1       1.684  15.298  13.569  0.00  0.00    +0.000 A 
ENDBRANCH  10  11
ENDBRANCH   1  10
TORSDOF 2
ENDMDL
MODEL 4
REMARK VINA RESULT:    -5.653      2.955      4.479
REMARK INTER + INTRA:          -6.438
REMARK INTER:                  -6.344
REMARK INTRA:                  -0.094
REMARK UNBOUND:                -0.124
REMARK  Name = 1550473
REMARK  2 active torsions:
REMARK  status: ('A' for Active; 'I' for Inactive)
REMARK    1  A    between atoms: N_1  and  C_4
REMARK    2  A    between atoms: C_4  and  C_5
REMARK                            x       y       z     vdW  Elec       q    Type
REMARK                         _______ _______ _______ _____ _____    ______ ____
ROOT
ATOM      1  N   UNL     1       2.680  -1.151   6.960  0.00  0.00    -0.354 N 
ATOM      2  N   UNL     1       1.782  -1.151   9.095  0.00  0.00    -0.372 N 
ATOM      3  N   UNL     1       0.362  -1.216   7.294  0.00  0.00    -0.372 N 
ATOM      4  C   UNL     1       1.612  -1.173   7.768  0.00  0.00    +0.166 C 
ATOM      5  H   UNL     1       3.600  -1.088   7.381  0.00  0.00    +0.163 HD
ATOM      6  H   UNL     1       0.995  -1.170   9.730  0.00  0.00    +0.159 HD
ATOM      7  H   UNL     1       2.704  -1.134   9.514  0.00  0.00    +0.159 HD
ATOM      8  H   UNL     1       0.165  -1.228   6.303  0.00  0.00    +0.159 HD
ATOM      9  H   UNL     1      -0.440  -1.224   7.913  0.00  0.00    +0.159 HD
ENDROOT
BRANCH   1  10
ATOM     10  C   UNL     1       2.605  -1.226   5.502  0.00  0.00    +0.151 C 
BRANCH  10  11
ATOM     11  C   UNL     1       3.999  -1.231   4.938  0.00  0.00    -0.028 A 
ATOM     12  C   UNL     1       4.820  -2.359   5.079  0.00  0.00    +0.005 A 
ATOM     13  C   UNL     1       4.503  -0.112   4.257  0.00  0.00    +0.005 A 
ATOM     14  C   UNL     1       6.104  -2.376   4.529  0.00  0.00    +0.000 A 
ATOM     15  C   UNL     1       5.786  -0.132   3.710  0.00  0.00    +0.000 A 
ATOM     16  C   UNL     1       6.585  -1.265   3.844  0.00  0.00    +0.000 A 
ENDBRANCH  10  11
ENDBRANCH   1  10
TORSDOF 2
ENDMDL
MODEL 5
REMARK VINA RESULT:    -5.641      4.008      5.745
REMARK INTER + INTRA:          -6.425
REMARK INTER:                  -6.292
REMARK INTRA:                  -0.133
REMARK UNBOUND:                -0.124
REMARK  Name = 1550473
REMARK  2 active torsions:
REMARK  status: ('A' for Active; 'I' for Inactive)
REMARK    1  A    between atoms: N_1  and  C_4
REMARK    2  A    between atoms: C_4  and  C_5
REMARK                            x       y       z     vdW  Elec       q    Type
REMARK                         _______ _______ _______ _____ _____    ______ ____
ROOT
ATOM      1  N   UNL     1      10.692  -2.176   1.396  0.00  0.00    -0.354 N 
ATOM      2  N   UNL     1      12.767  -2.515   0.426  0.00  0.00    -0.372 N 
ATOM      3  N   UNL     1      10.887  -2.745  -0.869  0.00  0.00    -0.372 N 
ATOM      4  C   UNL     1      11.433  -2.477   0.322  0.00  0.00    +0.166 C 
ATOM      5  H   UNL     1      11.165  -2.013   2.277  0.00  0.00    +0.163 HD
ATOM      6  H   UNL     1      13.353  -2.736  -0.368  0.00  0.00    +0.159 HD
ATOM      7  H   UNL     1      13.240  -2.307   1.297  0.00  0.00    +0.159 HD
ATOM      8  H   UNL     1       9.886  -2.739  -1.012  0.00  0.00    +0.159 HD
ATOM      9  H   UNL     1      11.456  -2.980  -1.673  0.00  0.00    +0.159 HD
ENDROOT
BRANCH   1  10
ATOM     10  C   UNL     1       9.235  -2.056   1.376  0.00  0.00    +0.151 C 
BRANCH  10  11
ATOM     11  C   UNL     1       8.822  -0.935   2.289  0.00  0.00    -0.028 A 
ATOM     12  C   UNL     1       9.758  -0.330   3.142  0.00  0.00    +0.005 A 
ATOM     13  C   UNL     1       7.499  -0.469   2.303  0.00  0.00    +0.005 A 
ATOM     14  C   UNL     1       9.382   0.732   3.968  0.00  0.00    +0.000 A 
ATOM     15  C   UNL     1       7.127   0.591   3.130  0.00  0.00    +0.000 A 
ATOM     16  C   UNL     1       8.069   1.193   3.960  0.00  0.00    +0.000 A 
ENDBRANCH  10  11
ENDBRANCH   1  10
TORSDOF 2
ENDMDL
MODEL 6
REMARK VINA RESULT:    -5.617      4.439      6.005
REMARK INTER + INTRA:          -6.398
REMARK INTER:                  -6.264
REMARK INTRA:                  -0.134
REMARK UNBOUND:                -0.124
REMARK  Name = 1550473
REMARK  2 active torsions:
REMARK  status: ('A' for Active; 'I' for Inactive)
REMARK    1  A    between atoms: N_1  and  C_4
REMARK    2  A    between atoms: C_4  and  C_5
REMARK                            x       y       z     vdW  Elec       q    Type
REMARK                         _______ _______ _______ _____ _____    ______ ____
ROOT
ATOM      1  N   UNL     1       9.891  -3.670   0.128  0.00  0.00    -0.354 N 
ATOM      2  N   UNL     1      11.600  -4.675  -1.069  0.00  0.00    -0.372 N 
ATOM      3  N   UNL     1      10.152  -3.275  -2.167  0.00  0.00    -0.372 N 
ATOM      4  C   UNL     1      10.535  -3.866  -1.030  0.00  0.00    +0.166 C 
ATOM      5  H   UNL     1      10.213  -4.171   0.948  0.00  0.00    +0.163 HD
ATOM      6  H   UNL     1      12.108  -4.839  -1.927  0.00  0.00    +0.159 HD
ATOM      7  H   UNL     1      11.948  -5.138  -0.238  0.00  0.00    +0.159 HD
ATOM      8  H   UNL     1       9.352  -2.657  -2.207  0.00  0.00    +0.159 HD
ATOM      9  H   UNL     1      10.641  -3.436  -3.039  0.00  0.00    +0.159 HD
ENDROOT
BRANCH   1  10
ATOM     10  C   UNL     1       8.753  -2.766   0.288  0.00  0.00    +0.151 C 
BRANCH  10  11
ATOM     11  C   UNL     1       9.047  -1.799   1.401  0.00  0.00    -0.028 A 
ATOM     12  C   UNL     1       8.008  -1.091   2.022  0.00  0.00    +0.005 A 
ATOM     13  C   UNL     1      10.363  -1.589   1.842  0.00  0.00    +0.005 A 
ATOM     14  C   UNL     1       8.278  -0.214   3.076  0.00  0.00    +0.000 A 
ATOM     15  C   UNL     1      10.628  -0.713   2.894  0.00  0.00    +0.000 A 
ATOM     16  C   UNL     1       9.585  -0.027   3.512  0.00  0.00    +0.000 A 
ENDBRANCH  10  11
ENDBRANCH   1  10
TORSDOF 2
ENDMDL
MODEL 7
REMARK VINA RESULT:    -5.408      0.980      1.798
REMARK INTER + INTRA:          -6.164
REMARK INTER:                  -6.059
REMARK INTRA:                  -0.104
REMARK UNBOUND:                -0.124
REMARK  Name = 1550473
REMARK  2 active torsions:
REMARK  status: ('A' for Active; 'I' for Inactive)
REMARK    1  A    between atoms: N_1  and  C_4
REMARK    2  A    between atoms: C_4  and  C_5
REMARK                            x       y       z     vdW  Elec       q    Type
REMARK                         _______ _______ _______ _____ _____    ______ ____
ROOT
ATOM      1  N   UNL     1       6.600  -0.476   4.355  0.00  0.00    -0.354 N 
ATOM      2  N   UNL     1       5.454  -0.358   6.364  0.00  0.00    -0.372 N 
ATOM      3  N   UNL     1       4.885   1.088   4.676  0.00  0.00    -0.372 N 
ATOM      4  C   UNL     1       5.652   0.086   5.117  0.00  0.00    +0.166 C 
ATOM      5  H   UNL     1       7.169  -1.211   4.759  0.00  0.00    +0.163 HD
ATOM      6  H   UNL     1       4.744   0.044   6.961  0.00  0.00    +0.159 HD
ATOM      7  H   UNL     1       5.993  -1.124   6.749  0.00  0.00    +0.159 HD
ATOM      8  H   UNL     1       4.988   1.473   3.746  0.00  0.00    +0.159 HD
ATOM      9  H   UNL     1       4.177   1.512   5.263  0.00  0.00    +0.159 HD
ENDROOT
BRANCH   1  10
ATOM     10  C   UNL     1       6.860  -0.102   2.966  0.00  0.00    +0.151 C 
BRANCH  10  11
ATOM     11  C   UNL     1       8.192  -0.662   2.548  0.00  0.00    -0.028 A 
ATOM     12  C   UNL     1       9.371  -0.247   3.185  0.00  0.00    +0.005 A 
ATOM     13  C   UNL     1       8.281  -1.613   1.520  0.00  0.00    +0.005 A 
ATOM     14  C   UNL     1      10.604  -0.789   2.817  0.00  0.00    +0.000 A 
ATOM     15  C   UNL     1       9.515  -2.152   1.155  0.00  0.00    +0.000 A 
ATOM     16  C   UNL     1      10.676  -1.741   1.806  0.00  0.00    +0.000 A 
ENDBRANCH  10  11
ENDBRANCH   1  10
TORSDOF 2
ENDMDL
MODEL 8
REMARK VINA RESULT:    -5.159      5.027      6.777
REMARK INTER + INTRA:          -5.886
REMARK INTER:                  -5.743
REMARK INTRA:                  -0.143
REMARK UNBOUND:                -0.124
REMARK  Name = 1550473
REMARK  2 active torsions:
REMARK  status: ('A' for Active; 'I' for Inactive)
REMARK    1  A    between atoms: N_1  and  C_4
REMARK    2  A    between atoms: C_4  and  C_5
REMARK                            x       y       z     vdW  Elec       q    Type
REMARK                         _______ _______ _______ _____ _____    ______ ____
ROOT
ATOM      1  N   UNL     1      12.477  -2.456   0.921  0.00  0.00    -0.354 N 
ATOM      2  N   UNL     1      14.615  -3.108   1.528  0.00  0.00    -0.372 N 
ATOM      3  N   UNL     1      13.027  -4.722   1.153  0.00  0.00    -0.372 N 
ATOM      4  C   UNL     1      13.358  -3.427   1.197  0.00  0.00    +0.166 C 
ATOM      5  H   UNL     1      12.782  -1.492   1.001  0.00  0.00    +0.163 HD
ATOM      6  H   UNL     1      15.303  -3.819   1.738  0.00  0.00    +0.159 HD
ATOM      7  H   UNL     1      14.929  -2.145   1.563  0.00  0.00    +0.159 HD
ATOM      8  H   UNL     1      12.094  -5.028   0.916  0.00  0.00    +0.159 HD
ATOM      9  H   UNL     1      13.699  -5.447   1.372  0.00  0.00    +0.159 HD
ENDROOT
BRANCH   1  10
ATOM     10  C   UNL     1      11.099  -2.698   0.498  0.00  0.00    +0.151 C 
BRANCH  10  11
ATOM     11  C   UNL     1      10.170  -1.901   1.372  0.00  0.00    -0.028 A 
ATOM     12  C   UNL     1      10.672  -1.137   2.435  0.00  0.00    +0.005 A 
ATOM     13  C   UNL     1       8.786  -1.901   1.138  0.00  0.00    +0.005 A 
ATOM     14  C   UNL     1       9.813  -0.373   3.228  0.00  0.00    +0.000 A 
ATOM     15  C   UNL     1       7.931  -1.138   1.932  0.00  0.00    +0.000 A 
ATOM     16  C   UNL     1       8.445  -0.372   2.976  0.00  0.00    +0.000 A 
ENDBRANCH  10  11
ENDBRANCH   1  10
TORSDOF 2
ENDMDL
MODEL 9
REMARK VINA RESULT:    -5.049      2.749      5.238
REMARK INTER + INTRA:          -5.763
REMARK INTER:                  -5.607
REMARK INTRA:                  -0.157
REMARK UNBOUND:                -0.124
REMARK  Name = 1550473
REMARK  2 active torsions:
REMARK  status: ('A' for Active; 'I' for Inactive)
REMARK    1  A    between atoms: N_1  and  C_4
REMARK    2  A    between atoms: C_4  and  C_5
REMARK                            x       y       z     vdW  Elec       q    Type
REMARK                         _______ _______ _______ _____ _____    ______ ____
ROOT
ATOM      1  N   UNL     1       7.251  -0.604   5.255  0.00  0.00    -0.354 N 
ATOM      2  N   UNL     1       8.468   1.204   6.038  0.00  0.00    -0.372 N 
ATOM      3  N   UNL     1       7.843   1.159   3.830  0.00  0.00    -0.372 N 
ATOM      4  C   UNL     1       7.846   0.575   5.033  0.00  0.00    +0.166 C 
ATOM      5  H   UNL     1       7.315  -1.009   6.182  0.00  0.00    +0.163 HD
ATOM      6  H   UNL     1       8.923   2.097   5.901  0.00  0.00    +0.159 HD
ATOM      7  H   UNL     1       8.491   0.820   6.974  0.00  0.00    +0.159 HD
ATOM      8  H   UNL     1       7.396   0.734   3.029  0.00  0.00    +0.159 HD
ATOM      9  H   UNL     1       8.303   2.047   3.671  0.00  0.00    +0.159 HD
ENDROOT
BRANCH   1  10
ATOM     10  C   UNL     1       6.501  -1.345   4.242  0.00  0.00    +0.151 C 
BRANCH  10  11
ATOM     11  C   UNL     1       5.072  -1.480   4.690  0.00  0.00    -0.028 A 
ATOM     12  C   UNL     1       4.181  -0.404   4.561  0.00  0.00    +0.005 A 
ATOM     13  C   UNL     1       4.600  -2.682   5.239  0.00  0.00    +0.005 A 
ATOM     14  C   UNL     1       2.846  -0.538   4.949  0.00  0.00    +0.000 A 
ATOM     15  C   UNL     1       3.267  -2.812   5.627  0.00  0.00    +0.000 A 
ATOM     16  C   UNL     1       2.389  -1.740   5.479  0.00  0.00    +0.000 A 
ENDBRANCH  10  11
ENDBRANCH   1  10
TORSDOF 2
ENDMDL
