MODEL 1
REMARK VINA RESULT:    -5.036      0.000      0.000
REMARK INTER + INTRA:          -5.765
REMARK INTER:                  -5.625
REMARK INTRA:                  -0.140
REMARK UNBOUND:                -0.140
REMARK  Name = 1550473
REMARK  2 active torsions:
REMARK  status: ('A' for Active; 'I' for Inactive)
REMARK    1  A    between atoms: N_1  and  C_4
REMARK    2  A    between atoms: C_4  and  C_5
REMARK                            x       y       z     vdW  Elec       q    Type
REMARK                         _______ _______ _______ _____ _____    ______ ____
ROOT
ATOM      1  N   UNL     1      -4.713   4.623  -0.267  0.00  0.00    -0.354 N 
ATOM      2  N   UNL     1      -6.284   3.067  -0.956  0.00  0.00    -0.372 N 
ATOM      3  N   UNL     1      -6.655   5.287  -1.398  0.00  0.00    -0.372 N 
ATOM      4  C   UNL     1      -5.875   4.338  -0.870  0.00  0.00    +0.166 C 
ATOM      5  H   UNL     1      -4.182   3.861   0.140  0.00  0.00    +0.163 HD
ATOM      6  H   UNL     1      -7.154   2.821  -1.408  0.00  0.00    +0.159 HD
ATOM      7  H   UNL     1      -5.729   2.303  -0.589  0.00  0.00    +0.159 HD
ATOM      8  H   UNL     1      -6.406   6.267  -1.361  0.00  0.00    +0.159 HD
ATOM      9  H   UNL     1      -7.535   5.063  -1.845  0.00  0.00    +0.159 HD
ENDROOT
BRANCH   1  10
ATOM     10  C   UNL     1      -4.151   5.969  -0.168  0.00  0.00    +0.151 C 
BRANCH  10  11
ATOM     11  C   UNL     1      -2.818   5.997  -0.863  0.00  0.00    -0.028 A 
ATOM     12  C   UNL     1      -2.669   6.659  -2.090  0.00  0.00    +0.005 A 
ATOM     13  C   UNL     1      -1.698   5.369  -0.296  0.00  0.00    +0.005 A 
ATOM     14  C   UNL     1      -1.424   6.712  -2.722  0.00  0.00    +0.000 A 
ATOM     15  C   UNL     1      -0.457   5.423  -0.930  0.00  0.00    +0.000 A 
ATOM     16  C   UNL     1      -0.320   6.097  -2.141  0.00  0.00    +0.000 A 
ENDBRANCH  10  11
ENDBRANCH   1  10
TORSDOF 2
ENDMDL
MODEL 2
REMARK VINA RESULT:    -4.752      2.942      3.642
REMARK INTER + INTRA:          -5.447
REMARK INTER:                  -5.270
REMARK INTRA:                  -0.178
REMARK UNBOUND:                -0.140
REMARK  Name = 1550473
REMARK  2 active torsions:
REMARK  status: ('A' for Active; 'I' for Inactive)
REMARK    1  A    between atoms: N_1  and  C_4
REMARK    2  A    between atoms: C_4  and  C_5
REMARK                            x       y       z     vdW  Elec       q    Type
REMARK                         _______ _______ _______ _____ _____    ______ ____
ROOT
ATOM      1  N   UNL     1      -4.714   3.622  -1.469  0.00  0.00    -0.354 N 
ATOM      2  N   UNL     1      -6.771   3.243  -0.473  0.00  0.00    -0.372 N 
ATOM      3  N   UNL     1      -5.976   5.392  -0.594  0.00  0.00    -0.372 N 
ATOM      4  C   UNL     1      -5.806   4.091  -0.851  0.00  0.00    +0.166 C 
ATOM      5  H   UNL     1      -4.632   2.622  -1.607  0.00  0.00    +0.163 HD
ATOM      6  H   UNL     1      -7.608   3.568  -0.008  0.00  0.00    +0.159 HD
ATOM      7  H   UNL     1      -6.707   2.249  -0.654  0.00  0.00    +0.159 HD
ATOM      8  H   UNL     1      -5.283   6.083  -0.848  0.00  0.00    +0.159 HD
ATOM      9  H   UNL     1      -6.802   5.736  -0.119  0.00  0.00    +0.159 HD
ENDROOT
BRANCH   1  10
ATOM     10  C   UNL     1      -3.631   4.468  -1.968  0.00  0.00    +0.151 C 
BRANCH  10  11
ATOM     11  C   UNL     1      -3.807   4.667  -3.448  0.00  0.00    -0.028 A 
ATOM     12  C   UNL     1      -3.283   3.739  -4.360  0.00  0.00    +0.005 A 
ATOM     13  C   UNL     1      -4.502   5.781  -3.946  0.00  0.00    +0.005 A 
ATOM     14  C   UNL     1      -3.472   3.908  -5.733  0.00  0.00    +0.000 A 
ATOM     15  C   UNL     1      -4.688   5.947  -5.318  0.00  0.00    +0.000 A 
ATOM     16  C   UNL     1      -4.175   5.009  -6.211  0.00  0.00    +0.000 A 
ENDBRANCH  10  11
ENDBRANCH   1  10
TORSDOF 2
ENDMDL
MODEL 3
REMARK VINA RESULT:    -4.749      2.698      4.265
REMARK INTER + INTRA:          -5.444
REMARK INTER:                  -5.317
REMARK INTRA:                  -0.127
REMARK UNBOUND:                -0.140
REMARK  Name = 1550473
REMARK  2 active torsions:
REMARK  status: ('A' for Active; 'I' for Inactive)
REMARK    1  A    between atoms: N_1  and  C_4
REMARK    2  A    between atoms: C_4  and  C_5
REMARK                            x       y       z     vdW  Elec       q    Type
REMARK                         _______ _______ _______ _____ _____    ______ ____
ROOT
ATOM      1  N   UNL     1      -4.838   4.765  -0.361  0.00  0.00    -0.354 N 
ATOM      2  N   UNL     1      -5.104   5.530   1.809  0.00  0.00    -0.372 N 
ATOM      3  N   UNL     1      -3.249   6.179   0.623  0.00  0.00    -0.372 N 
ATOM      4  C   UNL     1      -4.393   5.488   0.675  0.00  0.00    +0.166 C 
ATOM      5  H   UNL     1      -5.697   4.239  -0.248  0.00  0.00    +0.163 HD
ATOM      6  H   UNL     1      -4.794   6.069   2.606  0.00  0.00    +0.159 HD
ATOM      7  H   UNL     1      -5.985   5.041   1.904  0.00  0.00    +0.159 HD
ATOM      8  H   UNL     1      -2.664   6.183  -0.201  0.00  0.00    +0.159 HD
ATOM      9  H   UNL     1      -2.917   6.715   1.415  0.00  0.00    +0.159 HD
ENDROOT
BRANCH   1  10
ATOM     10  C   UNL     1      -4.167   4.696  -1.658  0.00  0.00    +0.151 C 
BRANCH  10  11
ATOM     11  C   UNL     1      -4.984   5.444  -2.675  0.00  0.00    -0.028 A 
ATOM     12  C   UNL     1      -6.280   5.881  -2.365  0.00  0.00    +0.005 A 
ATOM     13  C   UNL     1      -4.466   5.723  -3.949  0.00  0.00    +0.005 A 
ATOM     14  C   UNL     1      -7.028   6.602  -3.299  0.00  0.00    +0.000 A 
ATOM     15  C   UNL     1      -5.217   6.442  -4.879  0.00  0.00    +0.000 A 
ATOM     16  C   UNL     1      -6.497   6.884  -4.552  0.00  0.00    +0.000 A 
ENDBRANCH  10  11
ENDBRANCH   1  10
TORSDOF 2
ENDMDL
MODEL 4
REMARK VINA RESULT:    -4.708      1.935      2.260
REMARK INTER + INTRA:          -5.398
REMARK INTER:                  -5.264
REMARK INTRA:                  -0.134
REMARK UNBOUND:                -0.140
REMARK  Name = 1550473
REMARK  2 active torsions:
REMARK  status: ('A' for Active; 'I' for Inactive)
REMARK    1  A    between atoms: N_1  and  C_4
REMARK    2  A    between atoms: C_4  and  C_5
REMARK                            x       y       z     vdW  Elec       q    Type
REMARK                         _______ _______ _______ _____ _____    ______ ____
ROOT
ATOM      1  N   UNL     1      -4.704   3.804  -0.591  0.00  0.00    -0.354 N 
ATOM      2  N   UNL     1      -6.954   3.434  -0.188  0.00  0.00    -0.372 N 
ATOM      3  N   UNL     1      -5.884   5.112   0.954  0.00  0.00    -0.372 N 
ATOM      4  C   UNL     1      -5.832   4.121   0.058  0.00  0.00    +0.166 C 
ATOM      5  H   UNL     1      -4.723   3.022  -1.236  0.00  0.00    +0.163 HD
ATOM      6  H   UNL     1      -7.822   3.652   0.284  0.00  0.00    +0.159 HD
ATOM      7  H   UNL     1      -6.981   2.683  -0.867  0.00  0.00    +0.159 HD
ATOM      8  H   UNL     1      -5.071   5.665   1.189  0.00  0.00    +0.159 HD
ATOM      9  H   UNL     1      -6.740   5.338   1.445  0.00  0.00    +0.159 HD
ENDROOT
BRANCH   1  10
ATOM     10  C   UNL     1      -3.441   4.524  -0.435  0.00  0.00    +0.151 C 
BRANCH  10  11
ATOM     11  C   UNL     1      -2.741   4.581  -1.765  0.00  0.00    -0.028 A 
ATOM     12  C   UNL     1      -1.521   5.259  -1.899  0.00  0.00    +0.005 A 
ATOM     13  C   UNL     1      -3.290   3.954  -2.894  0.00  0.00    +0.005 A 
ATOM     14  C   UNL     1      -0.855   5.287  -3.127  0.00  0.00    +0.000 A 
ATOM     15  C   UNL     1      -2.623   3.984  -4.118  0.00  0.00    +0.000 A 
ATOM     16  C   UNL     1      -1.405   4.649  -4.234  0.00  0.00    +0.000 A 
ENDBRANCH  10  11
ENDBRANCH   1  10
TORSDOF 2
ENDMDL
MODEL 5
REMARK VINA RESULT:    -4.667      2.408      3.186
REMARK INTER + INTRA:          -5.352
REMARK INTER:                  -5.224
REMARK INTRA:                  -0.128
REMARK UNBOUND:                -0.140
REMARK  Name = 1550473
REMARK  2 active torsions:
REMARK  status: ('A' for Active; 'I' for Inactive)
REMARK    1  A    between atoms: N_1  and  C_4
REMARK    2  A    between atoms: C_4  and  C_5
REMARK                            x       y       z     vdW  Elec       q    Type
REMARK                         _______ _______ _______ _____ _____    ______ ____
ROOT
ATOM      1  N   UNL     1      -5.636   4.757  -0.161  0.00  0.00    -0.354 N 
ATOM      2  N   UNL     1      -5.049   5.545   1.937  0.00  0.00    -0.372 N 
ATOM      3  N   UNL     1      -5.145   7.022   0.183  0.00  0.00    -0.372 N 
ATOM      4  C   UNL     1      -5.280   5.772   0.638  0.00  0.00    +0.166 C 
ATOM      5  H   UNL     1      -5.692   3.827   0.239  0.00  0.00    +0.163 HD
ATOM      6  H   UNL     1      -4.783   6.292   2.564  0.00  0.00    +0.159 HD
ATOM      7  H   UNL     1      -5.151   4.623   2.343  0.00  0.00    +0.159 HD
ATOM      8  H   UNL     1      -5.299   7.259  -0.788  0.00  0.00    +0.159 HD
ATOM      9  H   UNL     1      -4.867   7.781   0.793  0.00  0.00    +0.159 HD
ENDROOT
BRANCH   1  10
ATOM     10  C   UNL     1      -5.962   4.907  -1.578  0.00  0.00    +0.151 C 
BRANCH  10  11
ATOM     11  C   UNL     1      -4.708   4.742  -2.391  0.00  0.00    -0.028 A 
ATOM     12  C   UNL     1      -3.764   3.762  -2.053  0.00  0.00    +0.005 A 
ATOM     13  C   UNL     1      -4.460   5.560  -3.504  0.00  0.00    +0.005 A 
ATOM     14  C   UNL     1      -2.613   3.589  -2.825  0.00  0.00    +0.000 A 
ATOM     15  C   UNL     1      -3.309   5.385  -4.272  0.00  0.00    +0.000 A 
ATOM     16  C   UNL     1      -2.387   4.398  -3.934  0.00  0.00    +0.000 A 
ENDBRANCH  10  11
ENDBRANCH   1  10
TORSDOF 2
ENDMDL
MODEL 6
REMARK VINA RESULT:    -4.616      2.700      4.819
REMARK INTER + INTRA:          -5.296
REMARK INTER:                  -5.129
REMARK INTRA:                  -0.167
REMARK UNBOUND:                -0.140
REMARK  Name = 1550473
REMARK  2 active torsions:
REMARK  status: ('A' for Active; 'I' for Inactive)
REMARK    1  A    between atoms: N_1  and  C_4
REMARK    2  A    between atoms: C_4  and  C_5
REMARK                            x       y       z     vdW  Elec       q    Type
REMARK                         _______ _______ _______ _____ _____    ______ ____
ROOT
ATOM      1  N   UNL     1      -2.219   6.039  -2.569  0.00  0.00    -0.354 N 
ATOM      2  N   UNL     1      -0.003   6.446  -2.029  0.00  0.00    -0.372 N 
ATOM      3  N   UNL     1      -1.495   8.188  -1.977  0.00  0.00    -0.372 N 
ATOM      4  C   UNL     1      -1.254   6.891  -2.195  0.00  0.00    +0.166 C 
ATOM      5  H   UNL     1      -1.966   5.074  -2.747  0.00  0.00    +0.163 HD
ATOM      6  H   UNL     1       0.744   7.064  -1.744  0.00  0.00    +0.159 HD
ATOM      7  H   UNL     1       0.238   5.471  -2.164  0.00  0.00    +0.159 HD
ATOM      8  H   UNL     1      -2.417   8.589  -2.091  0.00  0.00    +0.159 HD
ATOM      9  H   UNL     1      -0.757   8.825  -1.703  0.00  0.00    +0.159 HD
ENDROOT
BRANCH   1  10
ATOM     10  C   UNL     1      -3.623   6.412  -2.725  0.00  0.00    +0.151 C 
BRANCH  10  11
ATOM     11  C   UNL     1      -4.426   5.773  -1.625  0.00  0.00    -0.028 A 
ATOM     12  C   UNL     1      -5.174   4.613  -1.872  0.00  0.00    +0.005 A 
ATOM     13  C   UNL     1      -4.439   6.321  -0.333  0.00  0.00    +0.005 A 
ATOM     14  C   UNL     1      -5.896   4.002  -0.844  0.00  0.00    +0.000 A 
ATOM     15  C   UNL     1      -5.162   5.708   0.691  0.00  0.00    +0.000 A 
ATOM     16  C   UNL     1      -5.888   4.548   0.436  0.00  0.00    +0.000 A 
ENDBRANCH  10  11
ENDBRANCH   1  10
TORSDOF 2
ENDMDL
MODEL 7
REMARK VINA RESULT:    -4.559     31.712     33.141
REMARK INTER + INTRA:          -5.232
REMARK INTER:                  -5.101
REMARK INTRA:                  -0.131
REMARK UNBOUND:                -0.140
REMARK  Name = 1550473
REMARK  2 active torsions:
REMARK  status: ('A' for Active; 'I' for Inactive)
REMARK    1  A    between atoms: N_1  and  C_4
REMARK    2  A    between atoms: C_4  and  C_5
REMARK                            x       y       z     vdW  Elec       q    Type
REMARK                         _______ _______ _______ _____ _____    ______ ____
ROOT
ATOM      1  N   UNL     1      19.152  10.753  22.779  0.00  0.00    -0.354 N 
ATOM      2  N   UNL     1      20.625   9.491  21.512  0.00  0.00    -0.372 N 
ATOM      3  N   UNL     1      21.466  11.102  22.914  0.00  0.00    -0.372 N 
ATOM      4  C   UNL     1      20.407  10.459  22.411  0.00  0.00    +0.166 C 
ATOM      5  H   UNL     1      18.391  10.249  22.338  0.00  0.00    +0.163 HD
ATOM      6  H   UNL     1      21.561   9.245  21.218  0.00  0.00    +0.159 HD
ATOM      7  H   UNL     1      19.865   8.958  21.108  0.00  0.00    +0.159 HD
ATOM      8  H   UNL     1      21.368  11.846  23.592  0.00  0.00    +0.159 HD
ATOM      9  H   UNL     1      22.409  10.878  22.623  0.00  0.00    +0.159 HD
ENDROOT
BRANCH   1  10
ATOM     10  C   UNL     1      18.809  11.751  23.789  0.00  0.00    +0.151 C 
BRANCH  10  11
ATOM     11  C   UNL     1      17.485  12.371  23.438  0.00  0.00    -0.028 A 
ATOM     12  C   UNL     1      16.730  11.876  22.364  0.00  0.00    +0.005 A 
ATOM     13  C   UNL     1      16.976  13.449  24.178  0.00  0.00    +0.005 A 
ATOM     14  C   UNL     1      15.486  12.432  22.056  0.00  0.00    +0.000 A 
ATOM     15  C   UNL     1      15.734  14.002  23.867  0.00  0.00    +0.000 A 
ATOM     16  C   UNL     1      14.988  13.491  22.807  0.00  0.00    +0.000 A 
ENDBRANCH  10  11
ENDBRANCH   1  10
TORSDOF 2
ENDMDL
MODEL 8
REMARK VINA RESULT:    -4.473     20.921     23.084
REMARK INTER + INTRA:          -5.136
REMARK INTER:                  -4.975
REMARK INTRA:                  -0.160
REMARK UNBOUND:                -0.140
REMARK  Name = 1550473
REMARK  2 active torsions:
REMARK  status: ('A' for Active; 'I' for Inactive)
REMARK    1  A    between atoms: N_1  and  C_4
REMARK    2  A    between atoms: C_4  and  C_5
REMARK                            x       y       z     vdW  Elec       q    Type
REMARK                         _______ _______ _______ _____ _____    ______ ____
ROOT
ATOM      1  N   UNL     1     -15.061  -7.601 -14.318  0.00  0.00    -0.354 N 
ATOM      2  N   UNL     1     -15.759  -5.932 -12.872  0.00  0.00    -0.372 N 
ATOM      3  N   UNL     1     -13.569  -6.613 -12.804  0.00  0.00    -0.372 N 
ATOM      4  C   UNL     1     -14.789  -6.726 -13.340  0.00  0.00    +0.166 C 
ATOM      5  H   UNL     1     -16.013  -7.659 -14.660  0.00  0.00    +0.163 HD
ATOM      6  H   UNL     1     -15.583  -5.260 -12.137  0.00  0.00    +0.159 HD
ATOM      7  H   UNL     1     -16.699  -5.960 -13.248  0.00  0.00    +0.159 HD
ATOM      8  H   UNL     1     -12.795  -7.188 -13.109  0.00  0.00    +0.159 HD
ATOM      9  H   UNL     1     -13.376  -5.954 -12.060  0.00  0.00    +0.159 HD
ENDROOT
BRANCH   1  10
ATOM     10  C   UNL     1     -14.063  -8.474 -14.934  0.00  0.00    +0.151 C 
BRANCH  10  11
ATOM     11  C   UNL     1     -14.450  -9.907 -14.695  0.00  0.00    -0.028 A 
ATOM     12  C   UNL     1     -14.399 -10.453 -13.404  0.00  0.00    +0.005 A 
ATOM     13  C   UNL     1     -14.875 -10.723 -15.755  0.00  0.00    +0.005 A 
ATOM     14  C   UNL     1     -14.787 -11.775 -13.177  0.00  0.00    +0.000 A 
ATOM     15  C   UNL     1     -15.260 -12.044 -15.524  0.00  0.00    +0.000 A 
ATOM     16  C   UNL     1     -15.219 -12.569 -14.235  0.00  0.00    +0.000 A 
ENDBRANCH  10  11
ENDBRANCH   1  10
TORSDOF 2
ENDMDL
MODEL 9
REMARK VINA RESULT:    -4.366     23.367     24.614
REMARK INTER + INTRA:          -5.016
REMARK INTER:                  -4.903
REMARK INTRA:                  -0.113
REMARK UNBOUND:                -0.140
REMARK  Name = 1550473
REMARK  2 active torsions:
REMARK  status: ('A' for Active; 'I' for Inactive)
REMARK    1  A    between atoms: N_1  and  C_4
REMARK    2  A    between atoms: C_4  and  C_5
REMARK                            x       y       z     vdW  Elec       q    Type
REMARK                         _______ _______ _______ _____ _____    ______ ____
ROOT
ATOM      1  N   UNL     1     -16.478  -8.727 -16.641  0.00  0.00    -0.354 N 
ATOM      2  N   UNL     1     -18.159  -7.740 -17.893  0.00  0.00    -0.372 N 
ATOM      3  N   UNL     1     -16.783  -6.403 -16.634  0.00  0.00    -0.372 N 
ATOM      4  C   UNL     1     -17.128  -7.627 -17.046  0.00  0.00    +0.166 C 
ATOM      5  H   UNL     1     -16.808  -9.628 -16.967  0.00  0.00    +0.163 HD
ATOM      6  H   UNL     1     -18.666  -6.928 -18.218  0.00  0.00    +0.159 HD
ATOM      7  H   UNL     1     -18.457  -8.638 -18.252  0.00  0.00    +0.159 HD
ATOM      8  H   UNL     1     -16.018  -6.251 -15.990  0.00  0.00    +0.159 HD
ATOM      9  H   UNL     1     -17.286  -5.579 -16.939  0.00  0.00    +0.159 HD
ENDROOT
BRANCH   1  10
ATOM     10  C   UNL     1     -15.310  -8.709 -15.763  0.00  0.00    +0.151 C 
BRANCH  10  11
ATOM     11  C   UNL     1     -15.139 -10.069 -15.145  0.00  0.00    -0.028 A 
ATOM     12  C   UNL     1     -14.690 -10.199 -13.823  0.00  0.00    +0.005 A 
ATOM     13  C   UNL     1     -15.429 -11.232 -15.875  0.00  0.00    +0.005 A 
ATOM     14  C   UNL     1     -14.560 -11.461 -13.238  0.00  0.00    +0.000 A 
ATOM     15  C   UNL     1     -15.297 -12.490 -15.288  0.00  0.00    +0.000 A 
ATOM     16  C   UNL     1     -14.865 -12.604 -13.969  0.00  0.00    +0.000 A 
ENDBRANCH  10  11
ENDBRANCH   1  10
TORSDOF 2
ENDMDL
