MODEL 1
REMARK VINA RESULT:    -5.135      0.000      0.000
REMARK INTER + INTRA:          -5.859
REMARK INTER:                  -5.735
REMARK INTRA:                  -0.124
REMARK UNBOUND:                -0.124
REMARK  Name = 1550473
REMARK  2 active torsions:
REMARK  status: ('A' for Active; 'I' for Inactive)
REMARK    1  A    between atoms: N_1  and  C_4
REMARK    2  A    between atoms: C_4  and  C_5
REMARK                            x       y       z     vdW  Elec       q    Type
REMARK                         _______ _______ _______ _____ _____    ______ ____
ROOT
ATOM      1  N   UNL     1       0.516  12.463  -5.539  0.00  0.00    -0.354 N 
ATOM      2  N   UNL     1      -1.478  11.643  -6.385  0.00  0.00    -0.372 N 
ATOM      3  N   UNL     1      -1.523  13.512  -5.054  0.00  0.00    -0.372 N 
ATOM      4  C   UNL     1      -0.816  12.547  -5.653  0.00  0.00    +0.166 C 
ATOM      5  H   UNL     1       0.990  11.690  -5.993  0.00  0.00    +0.163 HD
ATOM      6  H   UNL     1      -2.483  11.683  -6.492  0.00  0.00    +0.159 HD
ATOM      7  H   UNL     1      -0.997  10.898  -6.875  0.00  0.00    +0.159 HD
ATOM      8  H   UNL     1      -1.083  14.220  -4.482  0.00  0.00    +0.159 HD
ATOM      9  H   UNL     1      -2.530  13.561  -5.139  0.00  0.00    +0.159 HD
ENDROOT
BRANCH   1  10
ATOM     10  C   UNL     1       1.337  13.427  -4.809  0.00  0.00    +0.151 C 
BRANCH  10  11
ATOM     11  C   UNL     1       2.732  13.408  -5.370  0.00  0.00    -0.028 A 
ATOM     12  C   UNL     1       2.946  13.204  -6.741  0.00  0.00    +0.005 A 
ATOM     13  C   UNL     1       3.845  13.599  -4.536  0.00  0.00    +0.005 A 
ATOM     14  C   UNL     1       4.241  13.216  -7.267  0.00  0.00    +0.000 A 
ATOM     15  C   UNL     1       5.135  13.609  -5.064  0.00  0.00    +0.000 A 
ATOM     16  C   UNL     1       5.333  13.421  -6.430  0.00  0.00    +0.000 A 
ENDBRANCH  10  11
ENDBRANCH   1  10
TORSDOF 2
ENDMDL
MODEL 2
REMARK VINA RESULT:    -4.954      1.079      1.895
REMARK INTER + INTRA:          -5.657
REMARK INTER:                  -5.512
REMARK INTRA:                  -0.145
REMARK UNBOUND:                -0.124
REMARK  Name = 1550473
REMARK  2 active torsions:
REMARK  status: ('A' for Active; 'I' for Inactive)
REMARK    1  A    between atoms: N_1  and  C_4
REMARK    2  A    between atoms: C_4  and  C_5
REMARK                            x       y       z     vdW  Elec       q    Type
REMARK                         _______ _______ _______ _____ _____    ______ ____
ROOT
ATOM      1  N   UNL     1       0.448  13.363  -7.008  0.00  0.00    -0.354 N 
ATOM      2  N   UNL     1      -1.067  12.285  -8.389  0.00  0.00    -0.372 N 
ATOM      3  N   UNL     1      -0.938  11.661  -6.185  0.00  0.00    -0.372 N 
ATOM      4  C   UNL     1      -0.509  12.442  -7.183  0.00  0.00    +0.166 C 
ATOM      5  H   UNL     1       0.749  13.903  -7.811  0.00  0.00    +0.163 HD
ATOM      6  H   UNL     1      -1.793  11.601  -8.551  0.00  0.00    +0.159 HD
ATOM      7  H   UNL     1      -0.796  12.857  -9.180  0.00  0.00    +0.159 HD
ATOM      8  H   UNL     1      -0.553  11.726  -5.252  0.00  0.00    +0.159 HD
ATOM      9  H   UNL     1      -1.656  10.963  -6.330  0.00  0.00    +0.159 HD
ENDROOT
BRANCH   1  10
ATOM     10  C   UNL     1       1.081  13.650  -5.722  0.00  0.00    +0.151 C 
BRANCH  10  11
ATOM     11  C   UNL     1       2.573  13.539  -5.873  0.00  0.00    -0.028 A 
ATOM     12  C   UNL     1       3.416  13.720  -4.767  0.00  0.00    +0.005 A 
ATOM     13  C   UNL     1       3.149  13.247  -7.119  0.00  0.00    +0.005 A 
ATOM     14  C   UNL     1       4.800  13.587  -4.901  0.00  0.00    +0.000 A 
ATOM     15  C   UNL     1       4.532  13.115  -7.249  0.00  0.00    +0.000 A 
ATOM     16  C   UNL     1       5.357  13.283  -6.139  0.00  0.00    +0.000 A 
ENDBRANCH  10  11
ENDBRANCH   1  10
TORSDOF 2
ENDMDL
MODEL 3
REMARK VINA RESULT:    -4.603     33.364     34.567
REMARK INTER + INTRA:          -5.265
REMARK INTER:                  -5.125
REMARK INTRA:                  -0.139
REMARK UNBOUND:                -0.124
REMARK  Name = 1550473
REMARK  2 active torsions:
REMARK  status: ('A' for Active; 'I' for Inactive)
REMARK    1  A    between atoms: N_1  and  C_4
REMARK    2  A    between atoms: C_4  and  C_5
REMARK                            x       y       z     vdW  Elec       q    Type
REMARK                         _______ _______ _______ _____ _____    ______ ____
ROOT
ATOM      1  N   UNL     1      -9.239 -14.110  10.768  0.00  0.00    -0.354 N 
ATOM      2  N   UNL     1      -7.741 -15.743  11.443  0.00  0.00    -0.372 N 
ATOM      3  N   UNL     1      -7.922 -13.822  12.685  0.00  0.00    -0.372 N 
ATOM      4  C   UNL     1      -8.310 -14.545  11.629  0.00  0.00    +0.166 C 
ATOM      5  H   UNL     1      -9.468 -14.693   9.971  0.00  0.00    +0.163 HD
ATOM      6  H   UNL     1      -7.040 -16.099  12.078  0.00  0.00    +0.159 HD
ATOM      7  H   UNL     1      -8.005 -16.343  10.671  0.00  0.00    +0.159 HD
ATOM      8  H   UNL     1      -8.308 -12.907  12.878  0.00  0.00    +0.159 HD
ATOM      9  H   UNL     1      -7.212 -14.156  13.325  0.00  0.00    +0.159 HD
ENDROOT
BRANCH   1  10
ATOM     10  C   UNL     1      -9.958 -12.845  10.911  0.00  0.00    +0.151 C 
BRANCH  10  11
ATOM     11  C   UNL     1     -11.437 -13.110  10.843  0.00  0.00    -0.028 A 
ATOM     12  C   UNL     1     -11.925 -14.425  10.830  0.00  0.00    +0.005 A 
ATOM     13  C   UNL     1     -12.356 -12.050  10.798  0.00  0.00    +0.005 A 
ATOM     14  C   UNL     1     -13.300 -14.671  10.798  0.00  0.00    +0.000 A 
ATOM     15  C   UNL     1     -13.727 -12.301  10.764  0.00  0.00    +0.000 A 
ATOM     16  C   UNL     1     -14.199 -13.611  10.766  0.00  0.00    +0.000 A 
ENDBRANCH  10  11
ENDBRANCH   1  10
TORSDOF 2
ENDMDL
MODEL 4
REMARK VINA RESULT:    -4.502     12.861     14.200
REMARK INTER + INTRA:          -5.152
REMARK INTER:                  -4.973
REMARK INTRA:                  -0.180
REMARK UNBOUND:                -0.124
REMARK  Name = 1550473
REMARK  2 active torsions:
REMARK  status: ('A' for Active; 'I' for Inactive)
REMARK    1  A    between atoms: N_1  and  C_4
REMARK    2  A    between atoms: C_4  and  C_5
REMARK                            x       y       z     vdW  Elec       q    Type
REMARK                         _______ _______ _______ _____ _____    ______ ____
ROOT
ATOM      1  N   UNL     1      -4.034  17.018   8.452  0.00  0.00    -0.354 N 
ATOM      2  N   UNL     1      -5.540  15.610   9.507  0.00  0.00    -0.372 N 
ATOM      3  N   UNL     1      -6.298  17.001   7.847  0.00  0.00    -0.372 N 
ATOM      4  C   UNL     1      -5.283  16.554   8.593  0.00  0.00    +0.166 C 
ATOM      5  H   UNL     1      -3.314  16.659   9.069  0.00  0.00    +0.163 HD
ATOM      6  H   UNL     1      -6.472  15.239   9.634  0.00  0.00    +0.159 HD
ATOM      7  H   UNL     1      -4.811  15.221  10.091  0.00  0.00    +0.159 HD
ATOM      8  H   UNL     1      -6.171  17.717   7.143  0.00  0.00    +0.159 HD
ATOM      9  H   UNL     1      -7.239  16.650   7.967  0.00  0.00    +0.159 HD
ENDROOT
BRANCH   1  10
ATOM     10  C   UNL     1      -3.637  18.006   7.450  0.00  0.00    +0.151 C 
BRANCH  10  11
ATOM     11  C   UNL     1      -3.097  17.291   6.242  0.00  0.00    -0.028 A 
ATOM     12  C   UNL     1      -3.712  17.443   4.991  0.00  0.00    +0.005 A 
ATOM     13  C   UNL     1      -1.967  16.465   6.341  0.00  0.00    +0.005 A 
ATOM     14  C   UNL     1      -3.193  16.804   3.862  0.00  0.00    +0.000 A 
ATOM     15  C   UNL     1      -1.453  15.827   5.212  0.00  0.00    +0.000 A 
ATOM     16  C   UNL     1      -2.065  15.999   3.973  0.00  0.00    +0.000 A 
ENDBRANCH  10  11
ENDBRANCH   1  10
TORSDOF 2
ENDMDL
MODEL 5
REMARK VINA RESULT:    -4.383      4.567      6.265
REMARK INTER + INTRA:          -5.019
REMARK INTER:                  -4.877
REMARK INTRA:                  -0.142
REMARK UNBOUND:                -0.124
REMARK  Name = 1550473
REMARK  2 active torsions:
REMARK  status: ('A' for Active; 'I' for Inactive)
REMARK    1  A    between atoms: N_1  and  C_4
REMARK    2  A    between atoms: C_4  and  C_5
REMARK                            x       y       z     vdW  Elec       q    Type
REMARK                         _______ _______ _______ _____ _____    ______ ____
ROOT
ATOM      1  N   UNL     1       6.578  13.995  -8.730  0.00  0.00    -0.354 N 
ATOM      2  N   UNL     1       8.517  15.153  -9.245  0.00  0.00    -0.372 N 
ATOM      3  N   UNL     1       8.677  12.965  -8.574  0.00  0.00    -0.372 N 
ATOM      4  C   UNL     1       7.913  14.027  -8.845  0.00  0.00    +0.166 C 
ATOM      5  H   UNL     1       6.058  14.843  -8.921  0.00  0.00    +0.163 HD
ATOM      6  H   UNL     1       9.521  15.207  -9.344  0.00  0.00    +0.159 HD
ATOM      7  H   UNL     1       7.990  15.986  -9.480  0.00  0.00    +0.159 HD
ATOM      8  H   UNL     1       8.283  12.087  -8.263  0.00  0.00    +0.159 HD
ATOM      9  H   UNL     1       9.686  13.002  -8.657  0.00  0.00    +0.159 HD
ENDROOT
BRANCH   1  10
ATOM     10  C   UNL     1       5.819  12.803  -8.355  0.00  0.00    +0.151 C 
BRANCH  10  11
ATOM     11  C   UNL     1       4.912  13.141  -7.203  0.00  0.00    -0.028 A 
ATOM     12  C   UNL     1       3.529  13.264  -7.399  0.00  0.00    +0.005 A 
ATOM     13  C   UNL     1       5.430  13.334  -5.913  0.00  0.00    +0.005 A 
ATOM     14  C   UNL     1       2.683  13.548  -6.324  0.00  0.00    +0.000 A 
ATOM     15  C   UNL     1       4.583  13.618  -4.843  0.00  0.00    +0.000 A 
ATOM     16  C   UNL     1       3.209  13.723  -5.048  0.00  0.00    +0.000 A 
ENDBRANCH  10  11
ENDBRANCH   1  10
TORSDOF 2
ENDMDL
MODEL 6
REMARK VINA RESULT:    -4.352      2.154      2.736
REMARK INTER + INTRA:          -4.984
REMARK INTER:                  -4.822
REMARK INTRA:                  -0.162
REMARK UNBOUND:                -0.124
REMARK  Name = 1550473
REMARK  2 active torsions:
REMARK  status: ('A' for Active; 'I' for Inactive)
REMARK    1  A    between atoms: N_1  and  C_4
REMARK    2  A    between atoms: C_4  and  C_5
REMARK                            x       y       z     vdW  Elec       q    Type
REMARK                         _______ _______ _______ _____ _____    ______ ____
ROOT
ATOM      1  N   UNL     1       1.119  14.642  -3.454  0.00  0.00    -0.354 N 
ATOM      2  N   UNL     1       0.577  16.689  -2.516  0.00  0.00    -0.372 N 
ATOM      3  N   UNL     1      -0.005  16.280  -4.697  0.00  0.00    -0.372 N 
ATOM      4  C   UNL     1       0.566  15.857  -3.564  0.00  0.00    +0.166 C 
ATOM      5  H   UNL     1       1.563  14.393  -2.577  0.00  0.00    +0.163 HD
ATOM      6  H   UNL     1       0.165  17.611  -2.568  0.00  0.00    +0.159 HD
ATOM      7  H   UNL     1       0.981  16.420  -1.627  0.00  0.00    +0.159 HD
ATOM      8  H   UNL     1      -0.041  15.703  -5.527  0.00  0.00    +0.159 HD
ATOM      9  H   UNL     1      -0.413  17.203  -4.773  0.00  0.00    +0.159 HD
ENDROOT
BRANCH   1  10
ATOM     10  C   UNL     1       1.113  13.641  -4.519  0.00  0.00    +0.151 C 
BRANCH  10  11
ATOM     11  C   UNL     1       2.488  13.555  -5.121  0.00  0.00    -0.028 A 
ATOM     12  C   UNL     1       2.652  13.326  -6.495  0.00  0.00    +0.005 A 
ATOM     13  C   UNL     1       3.633  13.708  -4.323  0.00  0.00    +0.005 A 
ATOM     14  C   UNL     1       3.929  13.276  -7.059  0.00  0.00    +0.000 A 
ATOM     15  C   UNL     1       4.906  13.656  -4.889  0.00  0.00    +0.000 A 
ATOM     16  C   UNL     1       5.054  13.443  -6.258  0.00  0.00    +0.000 A 
ENDBRANCH  10  11
ENDBRANCH   1  10
TORSDOF 2
ENDMDL
MODEL 7
REMARK VINA RESULT:    -4.276     32.651     34.212
REMARK INTER + INTRA:          -4.900
REMARK INTER:                  -4.764
REMARK INTRA:                  -0.136
REMARK UNBOUND:                -0.124
REMARK  Name = 1550473
REMARK  2 active torsions:
REMARK  status: ('A' for Active; 'I' for Inactive)
REMARK    1  A    between atoms: N_1  and  C_4
REMARK    2  A    between atoms: C_4  and  C_5
REMARK                            x       y       z     vdW  Elec       q    Type
REMARK                         _______ _______ _______ _____ _____    ______ ____
ROOT
ATOM      1  N   UNL     1     -16.977 -16.301  -4.750  0.00  0.00    -0.354 N 
ATOM      2  N   UNL     1     -17.391 -18.354  -3.761  0.00  0.00    -0.372 N 
ATOM      3  N   UNL     1     -17.700 -18.130  -6.024  0.00  0.00    -0.372 N 
ATOM      4  C   UNL     1     -17.354 -17.582  -4.854  0.00  0.00    +0.166 C 
ATOM      5  H   UNL     1     -16.757 -15.937  -3.830  0.00  0.00    +0.163 HD
ATOM      6  H   UNL     1     -17.669 -19.325  -3.810  0.00  0.00    +0.159 HD
ATOM      7  H   UNL     1     -17.126 -18.000  -2.850  0.00  0.00    +0.159 HD
ATOM      8  H   UNL     1     -17.698 -17.600  -6.885  0.00  0.00    +0.159 HD
ATOM      9  H   UNL     1     -17.991 -19.097  -6.091  0.00  0.00    +0.159 HD
ENDROOT
BRANCH   1  10
ATOM     10  C   UNL     1     -16.851 -15.390  -5.887  0.00  0.00    +0.151 C 
BRANCH  10  11
ATOM     11  C   UNL     1     -17.303 -14.018  -5.469  0.00  0.00    -0.028 A 
ATOM     12  C   UNL     1     -17.139 -12.922  -6.329  0.00  0.00    +0.005 A 
ATOM     13  C   UNL     1     -17.903 -13.808  -4.218  0.00  0.00    +0.005 A 
ATOM     14  C   UNL     1     -17.586 -11.653  -5.954  0.00  0.00    +0.000 A 
ATOM     15  C   UNL     1     -18.347 -12.539  -3.847  0.00  0.00    +0.000 A 
ATOM     16  C   UNL     1     -18.191 -11.463  -4.716  0.00  0.00    +0.000 A 
ENDBRANCH  10  11
ENDBRANCH   1  10
TORSDOF 2
ENDMDL
MODEL 8
REMARK VINA RESULT:    -4.244     21.267     22.673
REMARK INTER + INTRA:          -4.864
REMARK INTER:                  -4.721
REMARK INTRA:                  -0.143
REMARK UNBOUND:                -0.124
REMARK  Name = 1550473
REMARK  2 active torsions:
REMARK  status: ('A' for Active; 'I' for Inactive)
REMARK    1  A    between atoms: N_1  and  C_4
REMARK    2  A    between atoms: C_4  and  C_5
REMARK                            x       y       z     vdW  Elec       q    Type
REMARK                         _______ _______ _______ _____ _____    ______ ____
ROOT
ATOM      1  N   UNL     1       4.867   4.678 -24.464  0.00  0.00    -0.354 N 
ATOM      2  N   UNL     1       5.872   3.289 -22.906  0.00  0.00    -0.372 N 
ATOM      3  N   UNL     1       7.113   4.967 -23.860  0.00  0.00    -0.372 N 
ATOM      4  C   UNL     1       5.947   4.322 -23.754  0.00  0.00    +0.166 C 
ATOM      5  H   UNL     1       4.021   4.129 -24.361  0.00  0.00    +0.163 HD
ATOM      6  H   UNL     1       6.669   3.000 -22.355  0.00  0.00    +0.159 HD
ATOM      7  H   UNL     1       5.013   2.772 -22.771  0.00  0.00    +0.159 HD
ATOM      8  H   UNL     1       7.237   5.751 -24.487  0.00  0.00    +0.159 HD
ATOM      9  H   UNL     1       7.925   4.686 -23.325  0.00  0.00    +0.159 HD
ENDROOT
BRANCH   1  10
ATOM     10  C   UNL     1       4.828   5.820 -25.375  0.00  0.00    +0.151 C 
BRANCH  10  11
ATOM     11  C   UNL     1       4.360   5.355 -26.726  0.00  0.00    -0.028 A 
ATOM     12  C   UNL     1       4.884   4.187 -27.298  0.00  0.00    +0.005 A 
ATOM     13  C   UNL     1       3.388   6.076 -27.438  0.00  0.00    +0.005 A 
ATOM     14  C   UNL     1       4.428   3.738 -28.540  0.00  0.00    +0.000 A 
ATOM     15  C   UNL     1       2.936   5.625 -28.678  0.00  0.00    +0.000 A 
ATOM     16  C   UNL     1       3.455   4.455 -29.227  0.00  0.00    +0.000 A 
ENDBRANCH  10  11
ENDBRANCH   1  10
TORSDOF 2
ENDMDL
MODEL 9
REMARK VINA RESULT:    -4.144     14.785     16.153
REMARK INTER + INTRA:          -4.752
REMARK INTER:                  -4.618
REMARK INTRA:                  -0.135
REMARK UNBOUND:                -0.124
REMARK  Name = 1550473
REMARK  2 active torsions:
REMARK  status: ('A' for Active; 'I' for Inactive)
REMARK    1  A    between atoms: N_1  and  C_4
REMARK    2  A    between atoms: C_4  and  C_5
REMARK                            x       y       z     vdW  Elec       q    Type
REMARK                         _______ _______ _______ _____ _____    ______ ____
ROOT
ATOM      1  N   UNL     1       3.702   8.589 -19.019  0.00  0.00    -0.354 N 
ATOM      2  N   UNL     1       1.872   8.961 -17.648  0.00  0.00    -0.372 N 
ATOM      3  N   UNL     1       2.919  10.761 -18.613  0.00  0.00    -0.372 N 
ATOM      4  C   UNL     1       2.844   9.437 -18.436  0.00  0.00    +0.166 C 
ATOM      5  H   UNL     1       3.610   7.600 -18.820  0.00  0.00    +0.163 HD
ATOM      6  H   UNL     1       1.208   9.577 -17.198  0.00  0.00    +0.159 HD
ATOM      7  H   UNL     1       1.755   7.968 -17.488  0.00  0.00    +0.159 HD
ATOM      8  H   UNL     1       3.633  11.184 -19.192  0.00  0.00    +0.159 HD
ATOM      9  H   UNL     1       2.271  11.394 -18.162  0.00  0.00    +0.159 HD
ENDROOT
BRANCH   1  10
ATOM     10  C   UNL     1       4.762   9.001 -19.937  0.00  0.00    +0.151 C 
BRANCH  10  11
ATOM     11  C   UNL     1       4.760   8.086 -21.131  0.00  0.00    -0.028 A 
ATOM     12  C   UNL     1       5.943   7.457 -21.547  0.00  0.00    +0.005 A 
ATOM     13  C   UNL     1       3.579   7.839 -21.846  0.00  0.00    +0.005 A 
ATOM     14  C   UNL     1       5.936   6.584 -22.637  0.00  0.00    +0.000 A 
ATOM     15  C   UNL     1       3.576   6.967 -22.935  0.00  0.00    +0.000 A 
ATOM     16  C   UNL     1       4.754   6.338 -23.328  0.00  0.00    +0.000 A 
ENDBRANCH  10  11
ENDBRANCH   1  10
TORSDOF 2
ENDMDL
