MODEL 1
REMARK VINA RESULT:    -5.277      0.000      0.000
REMARK INTER + INTRA:          -6.021
REMARK INTER:                  -5.893
REMARK INTRA:                  -0.128
REMARK UNBOUND:                -0.128
REMARK  Name = 1550473
REMARK  2 active torsions:
REMARK  status: ('A' for Active; 'I' for Inactive)
REMARK    1  A    between atoms: N_1  and  C_4
REMARK    2  A    between atoms: C_4  and  C_5
REMARK                            x       y       z     vdW  Elec       q    Type
REMARK                         _______ _______ _______ _____ _____    ______ ____
ROOT
ATOM      1  N   UNL     1       7.372   5.649 -10.501  0.00  0.00    -0.354 N 
ATOM      2  N   UNL     1       7.439   5.779  -8.190  0.00  0.00    -0.372 N 
ATOM      3  N   UNL     1       9.191   4.795  -9.297  0.00  0.00    -0.372 N 
ATOM      4  C   UNL     1       8.002   5.405  -9.345  0.00  0.00    +0.166 C 
ATOM      5  H   UNL     1       6.459   6.089 -10.468  0.00  0.00    +0.163 HD
ATOM      6  H   UNL     1       7.892   5.611  -7.302  0.00  0.00    +0.159 HD
ATOM      7  H   UNL     1       6.547   6.259  -8.162  0.00  0.00    +0.159 HD
ATOM      8  H   UNL     1       9.667   4.483 -10.132  0.00  0.00    +0.159 HD
ATOM      9  H   UNL     1       9.656   4.607  -8.417  0.00  0.00    +0.159 HD
ENDROOT
BRANCH   1  10
ATOM     10  C   UNL     1       7.924   5.331 -11.817  0.00  0.00    +0.151 C 
BRANCH  10  11
ATOM     11  C   UNL     1       6.798   5.210 -12.806  0.00  0.00    -0.028 A 
ATOM     12  C   UNL     1       5.486   4.979 -12.367  0.00  0.00    +0.005 A 
ATOM     13  C   UNL     1       7.035   5.331 -14.184  0.00  0.00    +0.005 A 
ATOM     14  C   UNL     1       4.435   4.896 -13.283  0.00  0.00    +0.000 A 
ATOM     15  C   UNL     1       5.983   5.247 -15.096  0.00  0.00    +0.000 A 
ATOM     16  C   UNL     1       4.683   5.032 -14.645  0.00  0.00    +0.000 A 
ENDBRANCH  10  11
ENDBRANCH   1  10
TORSDOF 2
ENDMDL
MODEL 2
REMARK VINA RESULT:    -5.274      1.302      2.094
REMARK INTER + INTRA:          -6.018
REMARK INTER:                  -5.897
REMARK INTRA:                  -0.121
REMARK UNBOUND:                -0.128
REMARK  Name = 1550473
REMARK  2 active torsions:
REMARK  status: ('A' for Active; 'I' for Inactive)
REMARK    1  A    between atoms: N_1  and  C_4
REMARK    2  A    between atoms: C_4  and  C_5
REMARK                            x       y       z     vdW  Elec       q    Type
REMARK                         _______ _______ _______ _____ _____    ______ ____
ROOT
ATOM      1  N   UNL     1       8.787   5.119  -9.895  0.00  0.00    -0.354 N 
ATOM      2  N   UNL     1       8.777   4.078  -7.826  0.00  0.00    -0.372 N 
ATOM      3  N   UNL     1       7.286   5.778  -8.220  0.00  0.00    -0.372 N 
ATOM      4  C   UNL     1       8.281   5.001  -8.660  0.00  0.00    +0.166 C 
ATOM      5  H   UNL     1       9.561   4.520 -10.158  0.00  0.00    +0.163 HD
ATOM      6  H   UNL     1       8.413   3.963  -6.890  0.00  0.00    +0.159 HD
ATOM      7  H   UNL     1       9.519   3.450  -8.107  0.00  0.00    +0.159 HD
ATOM      8  H   UNL     1       6.873   6.497  -8.798  0.00  0.00    +0.159 HD
ATOM      9  H   UNL     1       6.917   5.686  -7.282  0.00  0.00    +0.159 HD
ENDROOT
BRANCH   1  10
ATOM     10  C   UNL     1       8.283   6.056 -10.898  0.00  0.00    +0.151 C 
BRANCH  10  11
ATOM     11  C   UNL     1       8.013   5.309 -12.175  0.00  0.00    -0.028 A 
ATOM     12  C   UNL     1       6.696   5.051 -12.584  0.00  0.00    +0.005 A 
ATOM     13  C   UNL     1       9.069   4.861 -12.984  0.00  0.00    +0.005 A 
ATOM     14  C   UNL     1       6.444   4.383 -13.785  0.00  0.00    +0.000 A 
ATOM     15  C   UNL     1       8.813   4.194 -14.182  0.00  0.00    +0.000 A 
ATOM     16  C   UNL     1       7.501   3.958 -14.583  0.00  0.00    +0.000 A 
ENDBRANCH  10  11
ENDBRANCH   1  10
TORSDOF 2
ENDMDL
MODEL 3
REMARK VINA RESULT:    -4.889     19.186     19.899
REMARK INTER + INTRA:          -5.589
REMARK INTER:                  -5.467
REMARK INTRA:                  -0.121
REMARK UNBOUND:                -0.128
REMARK  Name = 1550473
REMARK  2 active torsions:
REMARK  status: ('A' for Active; 'I' for Inactive)
REMARK    1  A    between atoms: N_1  and  C_4
REMARK    2  A    between atoms: C_4  and  C_5
REMARK                            x       y       z     vdW  Elec       q    Type
REMARK                         _______ _______ _______ _____ _____    ______ ____
ROOT
ATOM      1  N   UNL     1      -5.686  16.765  -0.875  0.00  0.00    -0.354 N 
ATOM      2  N   UNL     1      -5.354  14.860   0.400  0.00  0.00    -0.372 N 
ATOM      3  N   UNL     1      -4.064  15.182  -1.470  0.00  0.00    -0.372 N 
ATOM      4  C   UNL     1      -5.035  15.614  -0.659  0.00  0.00    +0.166 C 
ATOM      5  H   UNL     1      -6.433  17.022  -0.240  0.00  0.00    +0.163 HD
ATOM      6  H   UNL     1      -4.878  13.989   0.591  0.00  0.00    +0.159 HD
ATOM      7  H   UNL     1      -6.070  15.142   1.059  0.00  0.00    +0.159 HD
ATOM      8  H   UNL     1      -3.779  15.702  -2.289  0.00  0.00    +0.159 HD
ATOM      9  H   UNL     1      -3.584  14.307  -1.302  0.00  0.00    +0.159 HD
ENDROOT
BRANCH   1  10
ATOM     10  C   UNL     1      -5.378  17.686  -1.968  0.00  0.00    +0.151 C 
BRANCH  10  11
ATOM     11  C   UNL     1      -6.442  17.567  -3.024  0.00  0.00    -0.028 A 
ATOM     12  C   UNL     1      -7.636  16.881  -2.758  0.00  0.00    +0.005 A 
ATOM     13  C   UNL     1      -6.265  18.145  -4.291  0.00  0.00    +0.005 A 
ATOM     14  C   UNL     1      -8.637  16.796  -3.728  0.00  0.00    +0.000 A 
ATOM     15  C   UNL     1      -7.267  18.057  -5.257  0.00  0.00    +0.000 A 
ATOM     16  C   UNL     1      -8.454  17.385  -4.975  0.00  0.00    +0.000 A 
ENDBRANCH  10  11
ENDBRANCH   1  10
TORSDOF 2
ENDMDL
MODEL 4
REMARK VINA RESULT:    -4.881     14.377     15.483
REMARK INTER + INTRA:          -5.579
REMARK INTER:                  -5.461
REMARK INTRA:                  -0.118
REMARK UNBOUND:                -0.128
REMARK  Name = 1550473
REMARK  2 active torsions:
REMARK  status: ('A' for Active; 'I' for Inactive)
REMARK    1  A    between atoms: N_1  and  C_4
REMARK    2  A    between atoms: C_4  and  C_5
REMARK                            x       y       z     vdW  Elec       q    Type
REMARK                         _______ _______ _______ _____ _____    ______ ____
ROOT
ATOM      1  N   UNL     1      -1.674  -8.259 -15.561  0.00  0.00    -0.354 N 
ATOM      2  N   UNL     1      -1.179 -10.521 -15.623  0.00  0.00    -0.372 N 
ATOM      3  N   UNL     1      -2.678  -9.756 -14.063  0.00  0.00    -0.372 N 
ATOM      4  C   UNL     1      -1.849  -9.497 -15.080  0.00  0.00    +0.166 C 
ATOM      5  H   UNL     1      -1.008  -8.124 -16.313  0.00  0.00    +0.163 HD
ATOM      6  H   UNL     1      -1.292 -11.466 -15.283  0.00  0.00    +0.159 HD
ATOM      7  H   UNL     1      -0.548 -10.390 -16.405  0.00  0.00    +0.159 HD
ATOM      8  H   UNL     1      -3.208  -9.027 -13.606  0.00  0.00    +0.159 HD
ATOM      9  H   UNL     1      -2.797 -10.694 -13.702  0.00  0.00    +0.159 HD
ENDROOT
BRANCH   1  10
ATOM     10  C   UNL     1      -2.396  -7.084 -15.075  0.00  0.00    +0.151 C 
BRANCH  10  11
ATOM     11  C   UNL     1      -1.872  -5.861 -15.777  0.00  0.00    -0.028 A 
ATOM     12  C   UNL     1      -2.683  -4.727 -15.932  0.00  0.00    +0.005 A 
ATOM     13  C   UNL     1      -0.564  -5.829 -16.284  0.00  0.00    +0.005 A 
ATOM     14  C   UNL     1      -2.187  -3.581 -16.557  0.00  0.00    +0.000 A 
ATOM     15  C   UNL     1      -0.073  -4.682 -16.909  0.00  0.00    +0.000 A 
ATOM     16  C   UNL     1      -0.884  -3.558 -17.043  0.00  0.00    +0.000 A 
ENDBRANCH  10  11
ENDBRANCH   1  10
TORSDOF 2
ENDMDL
MODEL 5
REMARK VINA RESULT:    -4.816     20.340     21.560
REMARK INTER + INTRA:          -5.507
REMARK INTER:                  -5.364
REMARK INTRA:                  -0.143
REMARK UNBOUND:                -0.128
REMARK  Name = 1550473
REMARK  2 active torsions:
REMARK  status: ('A' for Active; 'I' for Inactive)
REMARK    1  A    between atoms: N_1  and  C_4
REMARK    2  A    between atoms: C_4  and  C_5
REMARK                            x       y       z     vdW  Elec       q    Type
REMARK                         _______ _______ _______ _____ _____    ______ ____
ROOT
ATOM      1  N   UNL     1     -14.693   6.212  -6.817  0.00  0.00    -0.354 N 
ATOM      2  N   UNL     1     -16.459   6.749  -5.418  0.00  0.00    -0.372 N 
ATOM      3  N   UNL     1     -14.855   8.335  -5.838  0.00  0.00    -0.372 N 
ATOM      4  C   UNL     1     -15.323   7.097  -6.033  0.00  0.00    +0.166 C 
ATOM      5  H   UNL     1     -15.083   5.280  -6.900  0.00  0.00    +0.163 HD
ATOM      6  H   UNL     1     -16.958   7.397  -4.824  0.00  0.00    +0.159 HD
ATOM      7  H   UNL     1     -16.871   5.832  -5.540  0.00  0.00    +0.159 HD
ATOM      8  H   UNL     1     -13.999   8.658  -6.268  0.00  0.00    +0.159 HD
ATOM      9  H   UNL     1     -15.334   8.994  -5.237  0.00  0.00    +0.159 HD
ENDROOT
BRANCH   1  10
ATOM     10  C   UNL     1     -13.478   6.508  -7.574  0.00  0.00    +0.151 C 
BRANCH  10  11
ATOM     11  C   UNL     1     -13.671   6.075  -9.001  0.00  0.00    -0.028 A 
ATOM     12  C   UNL     1     -12.677   6.320  -9.960  0.00  0.00    +0.005 A 
ATOM     13  C   UNL     1     -14.842   5.413  -9.400  0.00  0.00    +0.005 A 
ATOM     14  C   UNL     1     -12.842   5.891 -11.279  0.00  0.00    +0.000 A 
ATOM     15  C   UNL     1     -15.004   4.987 -10.718  0.00  0.00    +0.000 A 
ATOM     16  C   UNL     1     -14.003   5.224 -11.656  0.00  0.00    +0.000 A 
ENDBRANCH  10  11
ENDBRANCH   1  10
TORSDOF 2
ENDMDL
MODEL 6
REMARK VINA RESULT:    -4.812     19.273     20.210
REMARK INTER + INTRA:          -5.502
REMARK INTER:                  -5.360
REMARK INTRA:                  -0.142
REMARK UNBOUND:                -0.128
REMARK  Name = 1550473
REMARK  2 active torsions:
REMARK  status: ('A' for Active; 'I' for Inactive)
REMARK    1  A    between atoms: N_1  and  C_4
REMARK    2  A    between atoms: C_4  and  C_5
REMARK                            x       y       z     vdW  Elec       q    Type
REMARK                         _______ _______ _______ _____ _____    ______ ____
ROOT
ATOM      1  N   UNL     1      -5.861  16.916  -2.063  0.00  0.00    -0.354 N 
ATOM      2  N   UNL     1      -4.396  15.235  -1.434  0.00  0.00    -0.372 N 
ATOM      3  N   UNL     1      -6.534  15.212  -0.601  0.00  0.00    -0.372 N 
ATOM      4  C   UNL     1      -5.609  15.798  -1.369  0.00  0.00    +0.166 C 
ATOM      5  H   UNL     1      -5.108  17.328  -2.602  0.00  0.00    +0.163 HD
ATOM      6  H   UNL     1      -4.178  14.390  -0.925  0.00  0.00    +0.159 HD
ATOM      7  H   UNL     1      -3.659  15.624  -2.010  0.00  0.00    +0.159 HD
ATOM      8  H   UNL     1      -7.467  15.590  -0.504  0.00  0.00    +0.159 HD
ATOM      9  H   UNL     1      -6.331  14.372  -0.074  0.00  0.00    +0.159 HD
ENDROOT
BRANCH   1  10
ATOM     10  C   UNL     1      -7.164  17.578  -2.102  0.00  0.00    +0.151 C 
BRANCH  10  11
ATOM     11  C   UNL     1      -7.657  17.608  -3.522  0.00  0.00    -0.028 A 
ATOM     12  C   UNL     1      -6.775  17.885  -4.576  0.00  0.00    +0.005 A 
ATOM     13  C   UNL     1      -9.005  17.355  -3.821  0.00  0.00    +0.005 A 
ATOM     14  C   UNL     1      -7.226  17.883  -5.898  0.00  0.00    +0.000 A 
ATOM     15  C   UNL     1      -9.452  17.355  -5.142  0.00  0.00    +0.000 A 
ATOM     16  C   UNL     1      -8.562  17.617  -6.181  0.00  0.00    +0.000 A 
ENDBRANCH  10  11
ENDBRANCH   1  10
TORSDOF 2
ENDMDL
MODEL 7
REMARK VINA RESULT:    -4.712     15.879     16.943
REMARK INTER + INTRA:          -5.391
REMARK INTER:                  -5.272
REMARK INTRA:                  -0.119
REMARK UNBOUND:                -0.128
REMARK  Name = 1550473
REMARK  2 active torsions:
REMARK  status: ('A' for Active; 'I' for Inactive)
REMARK    1  A    between atoms: N_1  and  C_4
REMARK    2  A    between atoms: C_4  and  C_5
REMARK                            x       y       z     vdW  Elec       q    Type
REMARK                         _______ _______ _______ _____ _____    ______ ____
ROOT
ATOM      1  N   UNL     1      -3.696  -9.148 -15.356  0.00  0.00    -0.354 N 
ATOM      2  N   UNL     1      -5.708 -10.277 -15.161  0.00  0.00    -0.372 N 
ATOM      3  N   UNL     1      -3.933 -10.943 -13.868  0.00  0.00    -0.372 N 
ATOM      4  C   UNL     1      -4.431 -10.117 -14.795  0.00  0.00    +0.166 C 
ATOM      5  H   UNL     1      -4.123  -8.575 -16.075  0.00  0.00    +0.163 HD
ATOM      6  H   UNL     1      -6.289 -10.997 -14.752  0.00  0.00    +0.159 HD
ATOM      7  H   UNL     1      -6.146  -9.673 -15.846  0.00  0.00    +0.159 HD
ATOM      8  H   UNL     1      -2.975 -10.878 -13.553  0.00  0.00    +0.159 HD
ATOM      9  H   UNL     1      -4.495 -11.677 -13.456  0.00  0.00    +0.159 HD
ENDROOT
BRANCH   1  10
ATOM     10  C   UNL     1      -2.311  -8.855 -14.989  0.00  0.00    +0.151 C 
BRANCH  10  11
ATOM     11  C   UNL     1      -1.965  -7.466 -15.449  0.00  0.00    -0.028 A 
ATOM     12  C   UNL     1      -2.906  -6.430 -15.358  0.00  0.00    +0.005 A 
ATOM     13  C   UNL     1      -0.694  -7.177 -15.970  0.00  0.00    +0.005 A 
ATOM     14  C   UNL     1      -2.575  -5.133 -15.756  0.00  0.00    +0.000 A 
ATOM     15  C   UNL     1      -0.368  -5.881 -16.368  0.00  0.00    +0.000 A 
ATOM     16  C   UNL     1      -1.307  -4.858 -16.259  0.00  0.00    +0.000 A 
ENDBRANCH  10  11
ENDBRANCH   1  10
TORSDOF 2
ENDMDL
MODEL 8
REMARK VINA RESULT:    -4.669     13.021     13.858
REMARK INTER + INTRA:          -5.343
REMARK INTER:                  -5.251
REMARK INTRA:                  -0.092
REMARK UNBOUND:                -0.128
REMARK  Name = 1550473
REMARK  2 active torsions:
REMARK  status: ('A' for Active; 'I' for Inactive)
REMARK    1  A    between atoms: N_1  and  C_4
REMARK    2  A    between atoms: C_4  and  C_5
REMARK                            x       y       z     vdW  Elec       q    Type
REMARK                         _______ _______ _______ _____ _____    ______ ____
ROOT
ATOM      1  N   UNL     1      -6.052  10.865 -15.862  0.00  0.00    -0.354 N 
ATOM      2  N   UNL     1      -6.275  11.280 -13.595  0.00  0.00    -0.372 N 
ATOM      3  N   UNL     1      -5.526   9.221 -14.277  0.00  0.00    -0.372 N 
ATOM      4  C   UNL     1      -5.949  10.450 -14.593  0.00  0.00    +0.166 C 
ATOM      5  H   UNL     1      -6.408  11.798 -16.036  0.00  0.00    +0.163 HD
ATOM      6  H   UNL     1      -6.205  10.996 -12.627  0.00  0.00    +0.159 HD
ATOM      7  H   UNL     1      -6.587  12.227 -13.770  0.00  0.00    +0.159 HD
ATOM      8  H   UNL     1      -5.270   8.545 -14.984  0.00  0.00    +0.159 HD
ATOM      9  H   UNL     1      -5.460   8.914 -13.314  0.00  0.00    +0.159 HD
ENDROOT
BRANCH   1  10
ATOM     10  C   UNL     1      -5.671  10.057 -17.020  0.00  0.00    +0.151 C 
BRANCH  10  11
ATOM     11  C   UNL     1      -4.481  10.689 -17.689  0.00  0.00    -0.028 A 
ATOM     12  C   UNL     1      -4.300  10.575 -19.075  0.00  0.00    +0.005 A 
ATOM     13  C   UNL     1      -3.534  11.407 -16.942  0.00  0.00    +0.005 A 
ATOM     14  C   UNL     1      -3.211  11.186 -19.701  0.00  0.00    +0.000 A 
ATOM     15  C   UNL     1      -2.448  12.016 -17.571  0.00  0.00    +0.000 A 
ATOM     16  C   UNL     1      -2.288  11.907 -18.950  0.00  0.00    +0.000 A 
ENDBRANCH  10  11
ENDBRANCH   1  10
TORSDOF 2
ENDMDL
MODEL 9
REMARK VINA RESULT:    -4.539     14.119     15.369
REMARK INTER + INTRA:          -5.197
REMARK INTER:                  -5.088
REMARK INTRA:                  -0.109
REMARK UNBOUND:                -0.128
REMARK  Name = 1550473
REMARK  2 active torsions:
REMARK  status: ('A' for Active; 'I' for Inactive)
REMARK    1  A    between atoms: N_1  and  C_4
REMARK    2  A    between atoms: C_4  and  C_5
REMARK                            x       y       z     vdW  Elec       q    Type
REMARK                         _______ _______ _______ _____ _____    ______ ____
ROOT
ATOM      1  N   UNL     1      -0.821  -5.439 -16.549  0.00  0.00    -0.354 N 
ATOM      2  N   UNL     1      -0.164  -3.512 -17.652  0.00  0.00    -0.372 N 
ATOM      3  N   UNL     1      -2.199  -3.544 -16.593  0.00  0.00    -0.372 N 
ATOM      4  C   UNL     1      -1.068  -4.176 -16.924  0.00  0.00    +0.166 C 
ATOM      5  H   UNL     1       0.042  -5.872 -16.857  0.00  0.00    +0.163 HD
ATOM      6  H   UNL     1      -0.321  -2.557 -17.947  0.00  0.00    +0.159 HD
ATOM      7  H   UNL     1       0.718  -3.932 -17.920  0.00  0.00    +0.159 HD
ATOM      8  H   UNL     1      -2.924  -3.992 -16.050  0.00  0.00    +0.159 HD
ATOM      9  H   UNL     1      -2.380  -2.592 -16.889  0.00  0.00    +0.159 HD
ENDROOT
BRANCH   1  10
ATOM     10  C   UNL     1      -1.716  -6.232 -15.709  0.00  0.00    +0.151 C 
BRANCH  10  11
ATOM     11  C   UNL     1      -1.016  -7.501 -15.306  0.00  0.00    -0.028 A 
ATOM     12  C   UNL     1      -0.257  -8.222 -16.240  0.00  0.00    +0.005 A 
ATOM     13  C   UNL     1      -1.103  -7.984 -13.992  0.00  0.00    +0.005 A 
ATOM     14  C   UNL     1       0.418  -9.384 -15.859  0.00  0.00    +0.000 A 
ATOM     15  C   UNL     1      -0.428  -9.146 -13.616  0.00  0.00    +0.000 A 
ATOM     16  C   UNL     1       0.334  -9.844 -14.549  0.00  0.00    +0.000 A 
ENDBRANCH  10  11
ENDBRANCH   1  10
TORSDOF 2
ENDMDL
