MODEL 1
REMARK VINA RESULT:    -5.971      0.000      0.000
REMARK INTER + INTRA:          -6.789
REMARK INTER:                  -6.669
REMARK INTRA:                  -0.120
REMARK UNBOUND:                -0.120
REMARK  Name = 1550473
REMARK  2 active torsions:
REMARK  status: ('A' for Active; 'I' for Inactive)
REMARK    1  A    between atoms: N_1  and  C_4
REMARK    2  A    between atoms: C_4  and  C_5
REMARK                            x       y       z     vdW  Elec       q    Type
REMARK                         _______ _______ _______ _____ _____    ______ ____
ROOT
ATOM      1  N   UNL     1      -1.454  -0.392   3.339  0.00  0.00    -0.354 N 
ATOM      2  N   UNL     1       0.482  -1.313   4.216  0.00  0.00    -0.372 N 
ATOM      3  N   UNL     1      -0.217   0.734   4.982  0.00  0.00    -0.372 N 
ATOM      4  C   UNL     1      -0.409  -0.315   4.175  0.00  0.00    +0.166 C 
ATOM      5  H   UNL     1      -1.526  -1.199   2.732  0.00  0.00    +0.163 HD
ATOM      6  H   UNL     1       1.278  -1.285   4.839  0.00  0.00    +0.159 HD
ATOM      7  H   UNL     1       0.382  -2.141   3.641  0.00  0.00    +0.159 HD
ATOM      8  H   UNL     1      -0.850   1.523   4.994  0.00  0.00    +0.159 HD
ATOM      9  H   UNL     1       0.580   0.786   5.603  0.00  0.00    +0.159 HD
ENDROOT
BRANCH   1  10
ATOM     10  C   UNL     1      -2.509   0.616   3.255  0.00  0.00    +0.151 C 
BRANCH  10  11
ATOM     11  C   UNL     1      -3.782  -0.042   2.802  0.00  0.00    -0.028 A 
ATOM     12  C   UNL     1      -4.215  -1.238   3.393  0.00  0.00    +0.005 A 
ATOM     13  C   UNL     1      -4.564   0.527   1.785  0.00  0.00    +0.005 A 
ATOM     14  C   UNL     1      -5.413  -1.835   2.993  0.00  0.00    +0.000 A 
ATOM     15  C   UNL     1      -5.759  -0.072   1.388  0.00  0.00    +0.000 A 
ATOM     16  C   UNL     1      -6.185  -1.251   1.994  0.00  0.00    +0.000 A 
ENDBRANCH  10  11
ENDBRANCH   1  10
TORSDOF 2
ENDMDL
MODEL 2
REMARK VINA RESULT:    -5.725      6.030      7.448
REMARK INTER + INTRA:          -6.515
REMARK INTER:                  -6.403
REMARK INTRA:                  -0.113
REMARK UNBOUND:                -0.120
REMARK  Name = 1550473
REMARK  2 active torsions:
REMARK  status: ('A' for Active; 'I' for Inactive)
REMARK    1  A    between atoms: N_1  and  C_4
REMARK    2  A    between atoms: C_4  and  C_5
REMARK                            x       y       z     vdW  Elec       q    Type
REMARK                         _______ _______ _______ _____ _____    ______ ____
ROOT
ATOM      1  N   UNL     1      -7.772  -1.497   5.375  0.00  0.00    -0.354 N 
ATOM      2  N   UNL     1      -6.654  -0.843   3.455  0.00  0.00    -0.372 N 
ATOM      3  N   UNL     1      -6.632  -3.059   4.052  0.00  0.00    -0.372 N 
ATOM      4  C   UNL     1      -7.026  -1.807   4.307  0.00  0.00    +0.166 C 
ATOM      5  H   UNL     1      -8.013  -0.524   5.528  0.00  0.00    +0.163 HD
ATOM      6  H   UNL     1      -6.094  -1.048   2.638  0.00  0.00    +0.159 HD
ATOM      7  H   UNL     1      -6.935   0.121   3.586  0.00  0.00    +0.159 HD
ATOM      8  H   UNL     1      -6.874  -3.830   4.659  0.00  0.00    +0.159 HD
ATOM      9  H   UNL     1      -6.061  -3.281   3.246  0.00  0.00    +0.159 HD
ENDROOT
BRANCH   1  10
ATOM     10  C   UNL     1      -8.275  -2.479   6.334  0.00  0.00    +0.151 C 
BRANCH  10  11
ATOM     11  C   UNL     1      -8.069  -1.954   7.728  0.00  0.00    -0.028 A 
ATOM     12  C   UNL     1      -8.727  -0.792   8.156  0.00  0.00    +0.005 A 
ATOM     13  C   UNL     1      -7.222  -2.618   8.629  0.00  0.00    +0.005 A 
ATOM     14  C   UNL     1      -8.560  -0.320   9.460  0.00  0.00    +0.000 A 
ATOM     15  C   UNL     1      -7.057  -2.144   9.930  0.00  0.00    +0.000 A 
ATOM     16  C   UNL     1      -7.728  -0.997  10.346  0.00  0.00    +0.000 A 
ENDBRANCH  10  11
ENDBRANCH   1  10
TORSDOF 2
ENDMDL
MODEL 3
REMARK VINA RESULT:    -5.259     10.631     11.662
REMARK INTER + INTRA:          -5.994
REMARK INTER:                  -5.850
REMARK INTRA:                  -0.144
REMARK UNBOUND:                -0.120
REMARK  Name = 1550473
REMARK  2 active torsions:
REMARK  status: ('A' for Active; 'I' for Inactive)
REMARK    1  A    between atoms: N_1  and  C_4
REMARK    2  A    between atoms: C_4  and  C_5
REMARK                            x       y       z     vdW  Elec       q    Type
REMARK                         _______ _______ _______ _____ _____    ______ ____
ROOT
ATOM      1  N   UNL     1     -11.485   0.117  11.375  0.00  0.00    -0.354 N 
ATOM      2  N   UNL     1     -13.309  -0.393  12.709  0.00  0.00    -0.372 N 
ATOM      3  N   UNL     1     -13.032  -1.521  10.730  0.00  0.00    -0.372 N 
ATOM      4  C   UNL     1     -12.597  -0.597  11.594  0.00  0.00    +0.166 C 
ATOM      5  H   UNL     1     -11.225   0.823  12.054  0.00  0.00    +0.163 HD
ATOM      6  H   UNL     1     -14.150  -0.918  12.902  0.00  0.00    +0.159 HD
ATOM      7  H   UNL     1     -13.022   0.282  13.408  0.00  0.00    +0.159 HD
ATOM      8  H   UNL     1     -12.544  -1.719   9.867  0.00  0.00    +0.159 HD
ATOM      9  H   UNL     1     -13.879  -2.049  10.900  0.00  0.00    +0.159 HD
ENDROOT
BRANCH   1  10
ATOM     10  C   UNL     1     -10.609  -0.067  10.219  0.00  0.00    +0.151 C 
BRANCH  10  11
ATOM     11  C   UNL     1      -9.199  -0.274  10.698  0.00  0.00    -0.028 A 
ATOM     12  C   UNL     1      -8.205  -0.719   9.815  0.00  0.00    +0.005 A 
ATOM     13  C   UNL     1      -8.849  -0.020  12.033  0.00  0.00    +0.005 A 
ATOM     14  C   UNL     1      -6.888  -0.883  10.252  0.00  0.00    +0.000 A 
ATOM     15  C   UNL     1      -7.534  -0.185  12.466  0.00  0.00    +0.000 A 
ATOM     16  C   UNL     1      -6.553  -0.614  11.575  0.00  0.00    +0.000 A 
ENDBRANCH  10  11
ENDBRANCH   1  10
TORSDOF 2
ENDMDL
MODEL 4
REMARK VINA RESULT:    -5.193      7.523      8.577
REMARK INTER + INTRA:          -5.921
REMARK INTER:                  -5.816
REMARK INTRA:                  -0.104
REMARK UNBOUND:                -0.120
REMARK  Name = 1550473
REMARK  2 active torsions:
REMARK  status: ('A' for Active; 'I' for Inactive)
REMARK    1  A    between atoms: N_1  and  C_4
REMARK    2  A    between atoms: C_4  and  C_5
REMARK                            x       y       z     vdW  Elec       q    Type
REMARK                         _______ _______ _______ _____ _____    ______ ____
ROOT
ATOM      1  N   UNL     1      -7.999  -0.859   6.809  0.00  0.00    -0.354 N 
ATOM      2  N   UNL     1      -6.444  -2.111   5.635  0.00  0.00    -0.372 N 
ATOM      3  N   UNL     1      -8.385  -3.120   6.329  0.00  0.00    -0.372 N 
ATOM      4  C   UNL     1      -7.621  -2.024   6.266  0.00  0.00    +0.166 C 
ATOM      5  H   UNL     1      -7.362  -0.073   6.753  0.00  0.00    +0.163 HD
ATOM      6  H   UNL     1      -6.133  -2.976   5.213  0.00  0.00    +0.159 HD
ATOM      7  H   UNL     1      -5.829  -1.312   5.541  0.00  0.00    +0.159 HD
ATOM      8  H   UNL     1      -9.282  -3.122   6.795  0.00  0.00    +0.159 HD
ATOM      9  H   UNL     1      -8.086  -3.998   5.922  0.00  0.00    +0.159 HD
ENDROOT
BRANCH   1  10
ATOM     10  C   UNL     1      -9.285  -0.644   7.470  0.00  0.00    +0.151 C 
BRANCH  10  11
ATOM     11  C   UNL     1      -9.059  -0.507   8.950  0.00  0.00    -0.028 A 
ATOM     12  C   UNL     1      -7.764  -0.581   9.483  0.00  0.00    +0.005 A 
ATOM     13  C   UNL     1     -10.136  -0.296   9.825  0.00  0.00    +0.005 A 
ATOM     14  C   UNL     1      -7.550  -0.423  10.854  0.00  0.00    +0.000 A 
ATOM     15  C   UNL     1      -9.919  -0.140  11.194  0.00  0.00    +0.000 A 
ATOM     16  C   UNL     1      -8.626  -0.201  11.708  0.00  0.00    +0.000 A 
ENDBRANCH  10  11
ENDBRANCH   1  10
TORSDOF 2
ENDMDL
MODEL 5
REMARK VINA RESULT:    -5.080      2.415      3.590
REMARK INTER + INTRA:          -5.794
REMARK INTER:                  -5.655
REMARK INTRA:                  -0.139
REMARK UNBOUND:                -0.120
REMARK  Name = 1550473
REMARK  2 active torsions:
REMARK  status: ('A' for Active; 'I' for Inactive)
REMARK    1  A    between atoms: N_1  and  C_4
REMARK    2  A    between atoms: C_4  and  C_5
REMARK                            x       y       z     vdW  Elec       q    Type
REMARK                         _______ _______ _______ _____ _____    ______ ____
ROOT
ATOM      1  N   UNL     1      -4.382   0.079   2.899  0.00  0.00    -0.354 N 
ATOM      2  N   UNL     1      -3.137   2.025   2.733  0.00  0.00    -0.372 N 
ATOM      3  N   UNL     1      -2.079   0.078   3.329  0.00  0.00    -0.372 N 
ATOM      4  C   UNL     1      -3.206   0.713   2.989  0.00  0.00    +0.166 C 
ATOM      5  H   UNL     1      -5.205   0.623   2.666  0.00  0.00    +0.163 HD
ATOM      6  H   UNL     1      -2.262   2.529   2.790  0.00  0.00    +0.159 HD
ATOM      7  H   UNL     1      -3.953   2.557   2.455  0.00  0.00    +0.159 HD
ATOM      8  H   UNL     1      -2.064  -0.911   3.541  0.00  0.00    +0.159 HD
ATOM      9  H   UNL     1      -1.196   0.568   3.403  0.00  0.00    +0.159 HD
ENDROOT
BRANCH   1  10
ATOM     10  C   UNL     1      -4.555  -1.358   3.105  0.00  0.00    +0.151 C 
BRANCH  10  11
ATOM     11  C   UNL     1      -5.736  -1.586   4.008  0.00  0.00    -0.028 A 
ATOM     12  C   UNL     1      -5.844  -0.900   5.226  0.00  0.00    +0.005 A 
ATOM     13  C   UNL     1      -6.754  -2.483   3.647  0.00  0.00    +0.005 A 
ATOM     14  C   UNL     1      -6.955  -1.089   6.051  0.00  0.00    +0.000 A 
ATOM     15  C   UNL     1      -7.861  -2.669   4.474  0.00  0.00    +0.000 A 
ATOM     16  C   UNL     1      -7.963  -1.971   5.675  0.00  0.00    +0.000 A 
ENDBRANCH  10  11
ENDBRANCH   1  10
TORSDOF 2
ENDMDL
MODEL 6
REMARK VINA RESULT:    -5.041      8.056      9.312
REMARK INTER + INTRA:          -5.751
REMARK INTER:                  -5.610
REMARK INTRA:                  -0.141
REMARK UNBOUND:                -0.120
REMARK  Name = 1550473
REMARK  2 active torsions:
REMARK  status: ('A' for Active; 'I' for Inactive)
REMARK    1  A    between atoms: N_1  and  C_4
REMARK    2  A    between atoms: C_4  and  C_5
REMARK                            x       y       z     vdW  Elec       q    Type
REMARK                         _______ _______ _______ _____ _____    ______ ____
ROOT
ATOM      1  N   UNL     1      -9.694  -0.165   6.840  0.00  0.00    -0.354 N 
ATOM      2  N   UNL     1     -11.040  -0.621   5.012  0.00  0.00    -0.372 N 
ATOM      3  N   UNL     1     -12.020   0.091   6.961  0.00  0.00    -0.372 N 
ATOM      4  C   UNL     1     -10.911  -0.228   6.285  0.00  0.00    +0.166 C 
ATOM      5  H   UNL     1      -8.896  -0.450   6.284  0.00  0.00    +0.163 HD
ATOM      6  H   UNL     1     -11.946  -0.675   4.565  0.00  0.00    +0.159 HD
ATOM      7  H   UNL     1     -10.237  -0.861   4.444  0.00  0.00    +0.159 HD
ATOM      8  H   UNL     1     -11.991   0.389   7.927  0.00  0.00    +0.159 HD
ATOM      9  H   UNL     1     -12.936   0.032   6.535  0.00  0.00    +0.159 HD
ENDROOT
BRANCH   1  10
ATOM     10  C   UNL     1      -9.439   0.301   8.202  0.00  0.00    +0.151 C 
BRANCH  10  11
ATOM     11  C   UNL     1      -8.742  -0.787   8.972  0.00  0.00    -0.028 A 
ATOM     12  C   UNL     1      -9.045  -1.008  10.323  0.00  0.00    +0.005 A 
ATOM     13  C   UNL     1      -7.783  -1.603   8.354  0.00  0.00    +0.005 A 
ATOM     14  C   UNL     1      -8.419  -2.038  11.031  0.00  0.00    +0.000 A 
ATOM     15  C   UNL     1      -7.160  -2.630   9.063  0.00  0.00    +0.000 A 
ATOM     16  C   UNL     1      -7.481  -2.849  10.401  0.00  0.00    +0.000 A 
ENDBRANCH  10  11
ENDBRANCH   1  10
TORSDOF 2
ENDMDL
MODEL 7
REMARK VINA RESULT:    -4.888     25.445     26.355
REMARK INTER + INTRA:          -5.580
REMARK INTER:                  -5.416
REMARK INTRA:                  -0.164
REMARK UNBOUND:                -0.120
REMARK  Name = 1550473
REMARK  2 active torsions:
REMARK  status: ('A' for Active; 'I' for Inactive)
REMARK    1  A    between atoms: N_1  and  C_4
REMARK    2  A    between atoms: C_4  and  C_5
REMARK                            x       y       z     vdW  Elec       q    Type
REMARK                         _______ _______ _______ _____ _____    ______ ____
ROOT
ATOM      1  N   UNL     1       0.459   2.250 -21.421  0.00  0.00    -0.354 N 
ATOM      2  N   UNL     1       0.414   1.882 -19.135  0.00  0.00    -0.372 N 
ATOM      3  N   UNL     1       2.440   1.929 -20.210  0.00  0.00    -0.372 N 
ATOM      4  C   UNL     1       1.107   2.022 -20.271  0.00  0.00    +0.166 C 
ATOM      5  H   UNL     1      -0.554   2.279 -21.405  0.00  0.00    +0.163 HD
ATOM      6  H   UNL     1       0.875   1.713 -18.251  0.00  0.00    +0.159 HD
ATOM      7  H   UNL     1      -0.596   1.958 -19.114  0.00  0.00    +0.159 HD
ATOM      8  H   UNL     1       3.021   2.020 -21.033  0.00  0.00    +0.159 HD
ATOM      9  H   UNL     1       2.920   1.749 -19.337  0.00  0.00    +0.159 HD
ENDROOT
BRANCH   1  10
ATOM     10  C   UNL     1       1.124   2.471 -22.704  0.00  0.00    +0.151 C 
BRANCH  10  11
ATOM     11  C   UNL     1       0.950   1.249 -23.564  0.00  0.00    -0.028 A 
ATOM     12  C   UNL     1      -0.321   0.689 -23.756  0.00  0.00    +0.005 A 
ATOM     13  C   UNL     1       2.053   0.651 -24.194  0.00  0.00    +0.005 A 
ATOM     14  C   UNL     1      -0.487  -0.428 -24.579  0.00  0.00    +0.000 A 
ATOM     15  C   UNL     1       1.883  -0.464 -25.014  0.00  0.00    +0.000 A 
ATOM     16  C   UNL     1       0.613  -1.002 -25.208  0.00  0.00    +0.000 A 
ENDBRANCH  10  11
ENDBRANCH   1  10
TORSDOF 2
ENDMDL
MODEL 8
REMARK VINA RESULT:    -4.825     11.250     12.550
REMARK INTER + INTRA:          -5.509
REMARK INTER:                  -5.413
REMARK INTRA:                  -0.096
REMARK UNBOUND:                -0.120
REMARK  Name = 1550473
REMARK  2 active torsions:
REMARK  status: ('A' for Active; 'I' for Inactive)
REMARK    1  A    between atoms: N_1  and  C_4
REMARK    2  A    between atoms: C_4  and  C_5
REMARK                            x       y       z     vdW  Elec       q    Type
REMARK                         _______ _______ _______ _____ _____    ______ ____
ROOT
ATOM      1  N   UNL     1      -3.492   1.789  -7.716  0.00  0.00    -0.354 N 
ATOM      2  N   UNL     1      -4.360  -0.344  -7.964  0.00  0.00    -0.372 N 
ATOM      3  N   UNL     1      -2.329  -0.087  -6.928  0.00  0.00    -0.372 N 
ATOM      4  C   UNL     1      -3.385   0.466  -7.533  0.00  0.00    +0.166 C 
ATOM      5  H   UNL     1      -4.303   2.143  -8.209  0.00  0.00    +0.163 HD
ATOM      6  H   UNL     1      -4.309  -1.346  -7.837  0.00  0.00    +0.159 HD
ATOM      7  H   UNL     1      -5.192   0.017  -8.416  0.00  0.00    +0.159 HD
ATOM      8  H   UNL     1      -1.557   0.469  -6.585  0.00  0.00    +0.159 HD
ATOM      9  H   UNL     1      -2.254  -1.089  -6.802  0.00  0.00    +0.159 HD
ENDROOT
BRANCH   1  10
ATOM     10  C   UNL     1      -2.512   2.762  -7.237  0.00  0.00    +0.151 C 
BRANCH  10  11
ATOM     11  C   UNL     1      -2.599   4.004  -8.081  0.00  0.00    -0.028 A 
ATOM     12  C   UNL     1      -3.637   4.927  -7.883  0.00  0.00    +0.005 A 
ATOM     13  C   UNL     1      -1.645   4.266  -9.075  0.00  0.00    +0.005 A 
ATOM     14  C   UNL     1      -3.702   6.095  -8.646  0.00  0.00    +0.000 A 
ATOM     15  C   UNL     1      -1.714   5.433  -9.836  0.00  0.00    +0.000 A 
ATOM     16  C   UNL     1      -2.741   6.349  -9.619  0.00  0.00    +0.000 A 
ENDBRANCH  10  11
ENDBRANCH   1  10
TORSDOF 2
ENDMDL
MODEL 9
REMARK VINA RESULT:    -4.736      9.066     10.150
REMARK INTER + INTRA:          -5.410
REMARK INTER:                  -5.260
REMARK INTRA:                  -0.151
REMARK UNBOUND:                -0.120
REMARK  Name = 1550473
REMARK  2 active torsions:
REMARK  status: ('A' for Active; 'I' for Inactive)
REMARK    1  A    between atoms: N_1  and  C_4
REMARK    2  A    between atoms: C_4  and  C_5
REMARK                            x       y       z     vdW  Elec       q    Type
REMARK                         _______ _______ _______ _____ _____    ______ ____
ROOT
ATOM      1  N   UNL     1     -10.726   0.204  10.386  0.00  0.00    -0.354 N 
ATOM      2  N   UNL     1     -12.159  -0.445  12.087  0.00  0.00    -0.372 N 
ATOM      3  N   UNL     1     -12.849  -0.669   9.910  0.00  0.00    -0.372 N 
ATOM      4  C   UNL     1     -11.904  -0.300  10.781  0.00  0.00    +0.166 C 
ATOM      5  H   UNL     1     -10.064   0.493  11.097  0.00  0.00    +0.163 HD
ATOM      6  H   UNL     1     -13.036  -0.826  12.415  0.00  0.00    +0.159 HD
ATOM      7  H   UNL     1     -11.477  -0.198  12.794  0.00  0.00    +0.159 HD
ATOM      8  H   UNL     1     -12.720  -0.579   8.911  0.00  0.00    +0.159 HD
ATOM      9  H   UNL     1     -13.738  -1.041  10.219  0.00  0.00    +0.159 HD
ENDROOT
BRANCH   1  10
ATOM     10  C   UNL     1     -10.329   0.353   8.988  0.00  0.00    +0.151 C 
BRANCH  10  11
ATOM     11  C   UNL     1      -9.285  -0.679   8.661  0.00  0.00    -0.028 A 
ATOM     12  C   UNL     1      -9.070  -1.079   7.334  0.00  0.00    +0.005 A 
ATOM     13  C   UNL     1      -8.503  -1.257   9.673  0.00  0.00    +0.005 A 
ATOM     14  C   UNL     1      -8.080  -2.015   7.027  0.00  0.00    +0.000 A 
ATOM     15  C   UNL     1      -7.516  -2.192   9.362  0.00  0.00    +0.000 A 
ATOM     16  C   UNL     1      -7.303  -2.569   8.039  0.00  0.00    +0.000 A 
ENDBRANCH  10  11
ENDBRANCH   1  10
TORSDOF 2
ENDMDL
