MODEL 1
REMARK VINA RESULT:    -5.894      0.000      0.000
REMARK INTER + INTRA:          -6.764
REMARK INTER:                  -6.583
REMARK INTRA:                  -0.181
REMARK UNBOUND:                -0.181
REMARK  Name = 1550473
REMARK  2 active torsions:
REMARK  status: ('A' for Active; 'I' for Inactive)
REMARK    1  A    between atoms: N_1  and  C_4
REMARK    2  A    between atoms: C_4  and  C_5
REMARK                            x       y       z     vdW  Elec       q    Type
REMARK                         _______ _______ _______ _____ _____    ______ ____
ROOT
ATOM      1  N   UNL     1       0.273   1.967 -17.249  0.00  0.00    -0.354 N 
ATOM      2  N   UNL     1      -1.663   2.428 -18.434  0.00  0.00    -0.372 N 
ATOM      3  N   UNL     1       0.333   3.259 -19.203  0.00  0.00    -0.372 N 
ATOM      4  C   UNL     1      -0.338   2.550 -18.289  0.00  0.00    +0.166 C 
ATOM      5  H   UNL     1      -0.296   1.468 -16.574  0.00  0.00    +0.163 HD
ATOM      6  H   UNL     1      -2.151   2.853 -19.210  0.00  0.00    +0.159 HD
ATOM      7  H   UNL     1      -2.223   1.890 -17.783  0.00  0.00    +0.159 HD
ATOM      8  H   UNL     1       1.333   3.394 -19.147  0.00  0.00    +0.159 HD
ATOM      9  H   UNL     1      -0.140   3.703 -19.981  0.00  0.00    +0.159 HD
ENDROOT
BRANCH   1  10
ATOM     10  C   UNL     1       1.718   1.994 -17.029  0.00  0.00    +0.151 C 
BRANCH  10  11
ATOM     11  C   UNL     1       2.318   0.719 -17.552  0.00  0.00    -0.028 A 
ATOM     12  C   UNL     1       1.881  -0.524 -17.070  0.00  0.00    +0.005 A 
ATOM     13  C   UNL     1       3.322   0.746 -18.533  0.00  0.00    +0.005 A 
ATOM     14  C   UNL     1       2.417  -1.710 -17.577  0.00  0.00    +0.000 A 
ATOM     15  C   UNL     1       3.855  -0.441 -19.036  0.00  0.00    +0.000 A 
ATOM     16  C   UNL     1       3.401  -1.668 -18.559  0.00  0.00    +0.000 A 
ENDBRANCH  10  11
ENDBRANCH   1  10
TORSDOF 2
ENDMDL
MODEL 2
REMARK VINA RESULT:    -5.738     14.479     15.717
REMARK INTER + INTRA:          -6.590
REMARK INTER:                  -6.412
REMARK INTRA:                  -0.178
REMARK UNBOUND:                -0.181
REMARK  Name = 1550473
REMARK  2 active torsions:
REMARK  status: ('A' for Active; 'I' for Inactive)
REMARK    1  A    between atoms: N_1  and  C_4
REMARK    2  A    between atoms: C_4  and  C_5
REMARK                            x       y       z     vdW  Elec       q    Type
REMARK                         _______ _______ _______ _____ _____    ______ ____
ROOT
ATOM      1  N   UNL     1       2.043  -5.093  -4.441  0.00  0.00    -0.354 N 
ATOM      2  N   UNL     1       4.040  -6.186  -4.865  0.00  0.00    -0.372 N 
ATOM      3  N   UNL     1       2.764  -6.859  -3.080  0.00  0.00    -0.372 N 
ATOM      4  C   UNL     1       2.935  -6.040  -4.123  0.00  0.00    +0.166 C 
ATOM      5  H   UNL     1       2.245  -4.484  -5.226  0.00  0.00    +0.163 HD
ATOM      6  H   UNL     1       4.729  -6.895  -4.652  0.00  0.00    +0.159 HD
ATOM      7  H   UNL     1       4.217  -5.607  -5.676  0.00  0.00    +0.159 HD
ATOM      8  H   UNL     1       1.954  -6.797  -2.478  0.00  0.00    +0.159 HD
ATOM      9  H   UNL     1       3.448  -7.567  -2.844  0.00  0.00    +0.159 HD
ENDROOT
BRANCH   1  10
ATOM     10  C   UNL     1       0.782  -4.886  -3.731  0.00  0.00    +0.151 C 
BRANCH  10  11
ATOM     11  C   UNL     1      -0.309  -5.644  -4.436  0.00  0.00    -0.028 A 
ATOM     12  C   UNL     1      -1.034  -6.639  -3.763  0.00  0.00    +0.005 A 
ATOM     13  C   UNL     1      -0.627  -5.368  -5.774  0.00  0.00    +0.005 A 
ATOM     14  C   UNL     1      -2.067  -7.323  -4.408  0.00  0.00    +0.000 A 
ATOM     15  C   UNL     1      -1.658  -6.054  -6.415  0.00  0.00    +0.000 A 
ATOM     16  C   UNL     1      -2.380  -7.029  -5.731  0.00  0.00    +0.000 A 
ENDBRANCH  10  11
ENDBRANCH   1  10
TORSDOF 2
ENDMDL
MODEL 3
REMARK VINA RESULT:    -5.312     15.660     16.756
REMARK INTER + INTRA:          -6.114
REMARK INTER:                  -5.992
REMARK INTRA:                  -0.122
REMARK UNBOUND:                -0.181
REMARK  Name = 1550473
REMARK  2 active torsions:
REMARK  status: ('A' for Active; 'I' for Inactive)
REMARK    1  A    between atoms: N_1  and  C_4
REMARK    2  A    between atoms: C_4  and  C_5
REMARK                            x       y       z     vdW  Elec       q    Type
REMARK                         _______ _______ _______ _____ _____    ______ ____
ROOT
ATOM      1  N   UNL     1      11.671  -7.782  -8.037  0.00  0.00    -0.354 N 
ATOM      2  N   UNL     1      11.841  -6.677  -6.008  0.00  0.00    -0.372 N 
ATOM      3  N   UNL     1      10.954  -5.563  -7.807  0.00  0.00    -0.372 N 
ATOM      4  C   UNL     1      11.487  -6.679  -7.299  0.00  0.00    +0.166 C 
ATOM      5  H   UNL     1      12.108  -8.585  -7.600  0.00  0.00    +0.163 HD
ATOM      6  H   UNL     1      11.710  -5.861  -5.426  0.00  0.00    +0.159 HD
ATOM      7  H   UNL     1      12.235  -7.497  -5.563  0.00  0.00    +0.159 HD
ATOM      8  H   UNL     1      10.671  -5.497  -8.776  0.00  0.00    +0.159 HD
ATOM      9  H   UNL     1      10.826  -4.732  -7.243  0.00  0.00    +0.159 HD
ENDROOT
BRANCH   1  10
ATOM     10  C   UNL     1      11.270  -7.905  -9.437  0.00  0.00    +0.151 C 
BRANCH  10  11
ATOM     11  C   UNL     1      11.240  -9.361  -9.813  0.00  0.00    -0.028 A 
ATOM     12  C   UNL     1      11.501  -9.762 -11.131  0.00  0.00    +0.005 A 
ATOM     13  C   UNL     1      10.957 -10.345  -8.853  0.00  0.00    +0.005 A 
ATOM     14  C   UNL     1      11.502 -11.116 -11.474  0.00  0.00    +0.000 A 
ATOM     15  C   UNL     1      10.958 -11.696  -9.200  0.00  0.00    +0.000 A 
ATOM     16  C   UNL     1      11.233 -12.082 -10.510  0.00  0.00    +0.000 A 
ENDBRANCH  10  11
ENDBRANCH   1  10
TORSDOF 2
ENDMDL
MODEL 4
REMARK VINA RESULT:    -5.294      2.773      4.470
REMARK INTER + INTRA:          -6.093
REMARK INTER:                  -5.920
REMARK INTRA:                  -0.173
REMARK UNBOUND:                -0.181
REMARK  Name = 1550473
REMARK  2 active torsions:
REMARK  status: ('A' for Active; 'I' for Inactive)
REMARK    1  A    between atoms: N_1  and  C_4
REMARK    2  A    between atoms: C_4  and  C_5
REMARK                            x       y       z     vdW  Elec       q    Type
REMARK                         _______ _______ _______ _____ _____    ______ ____
ROOT
ATOM      1  N   UNL     1       3.424   1.401 -19.089  0.00  0.00    -0.354 N 
ATOM      2  N   UNL     1       4.763   3.259 -19.431  0.00  0.00    -0.372 N 
ATOM      3  N   UNL     1       3.547   2.429 -21.191  0.00  0.00    -0.372 N 
ATOM      4  C   UNL     1       3.902   2.350 -19.904  0.00  0.00    +0.166 C 
ATOM      5  H   UNL     1       3.755   1.377 -18.131  0.00  0.00    +0.163 HD
ATOM      6  H   UNL     1       5.138   3.989 -20.021  0.00  0.00    +0.159 HD
ATOM      7  H   UNL     1       5.057   3.261 -18.461  0.00  0.00    +0.159 HD
ATOM      8  H   UNL     1       2.905   1.770 -21.611  0.00  0.00    +0.159 HD
ATOM      9  H   UNL     1       3.921   3.146 -21.800  0.00  0.00    +0.159 HD
ENDROOT
BRANCH   1  10
ATOM     10  C   UNL     1       2.440   0.397 -19.491  0.00  0.00    +0.151 C 
BRANCH  10  11
ATOM     11  C   UNL     1       1.061   0.905 -19.171  0.00  0.00    -0.028 A 
ATOM     12  C   UNL     1       0.101   1.045 -20.184  0.00  0.00    +0.005 A 
ATOM     13  C   UNL     1       0.707   1.243 -17.856  0.00  0.00    +0.005 A 
ATOM     14  C   UNL     1      -1.189   1.488 -19.883  0.00  0.00    +0.000 A 
ATOM     15  C   UNL     1      -0.582   1.686 -17.560  0.00  0.00    +0.000 A 
ATOM     16  C   UNL     1      -1.530   1.806 -18.573  0.00  0.00    +0.000 A 
ENDBRANCH  10  11
ENDBRANCH   1  10
TORSDOF 2
ENDMDL
MODEL 5
REMARK VINA RESULT:    -5.111      1.677      2.462
REMARK INTER + INTRA:          -5.889
REMARK INTER:                  -5.932
REMARK INTRA:                   0.044
REMARK UNBOUND:                -0.181
REMARK  Name = 1550473
REMARK  2 active torsions:
REMARK  status: ('A' for Active; 'I' for Inactive)
REMARK    1  A    between atoms: N_1  and  C_4
REMARK    2  A    between atoms: C_4  and  C_5
REMARK                            x       y       z     vdW  Elec       q    Type
REMARK                         _______ _______ _______ _____ _____    ______ ____
ROOT
ATOM      1  N   UNL     1       1.419   1.801 -19.912  0.00  0.00    -0.354 N 
ATOM      2  N   UNL     1       0.099   3.261 -18.692  0.00  0.00    -0.372 N 
ATOM      3  N   UNL     1      -0.887   1.449 -19.695  0.00  0.00    -0.372 N 
ATOM      4  C   UNL     1       0.217   2.159 -19.442  0.00  0.00    +0.166 C 
ATOM      5  H   UNL     1       2.213   2.398 -19.710  0.00  0.00    +0.163 HD
ATOM      6  H   UNL     1      -0.794   3.554 -18.320  0.00  0.00    +0.159 HD
ATOM      7  H   UNL     1       0.902   3.831 -18.453  0.00  0.00    +0.159 HD
ATOM      8  H   UNL     1      -0.867   0.610 -20.260  0.00  0.00    +0.159 HD
ATOM      9  H   UNL     1      -1.793   1.733 -19.342  0.00  0.00    +0.159 HD
ENDROOT
BRANCH   1  10
ATOM     10  C   UNL     1       1.664   0.590 -20.693  0.00  0.00    +0.151 C 
BRANCH  10  11
ATOM     11  C   UNL     1       2.002  -0.538 -19.758  0.00  0.00    -0.028 A 
ATOM     12  C   UNL     1       2.150  -1.846 -20.244  0.00  0.00    +0.005 A 
ATOM     13  C   UNL     1       2.180  -0.306 -18.386  0.00  0.00    +0.005 A 
ATOM     14  C   UNL     1       2.493  -2.889 -19.380  0.00  0.00    +0.000 A 
ATOM     15  C   UNL     1       2.522  -1.350 -17.527  0.00  0.00    +0.000 A 
ATOM     16  C   UNL     1       2.681  -2.641 -18.024  0.00  0.00    +0.000 A 
ENDBRANCH  10  11
ENDBRANCH   1  10
TORSDOF 2
ENDMDL
MODEL 6
REMARK VINA RESULT:    -4.859     20.153     20.910
REMARK INTER + INTRA:          -5.607
REMARK INTER:                  -5.491
REMARK INTRA:                  -0.116
REMARK UNBOUND:                -0.181
REMARK  Name = 1550473
REMARK  2 active torsions:
REMARK  status: ('A' for Active; 'I' for Inactive)
REMARK    1  A    between atoms: N_1  and  C_4
REMARK    2  A    between atoms: C_4  and  C_5
REMARK                            x       y       z     vdW  Elec       q    Type
REMARK                         _______ _______ _______ _____ _____    ______ ____
ROOT
ATOM      1  N   UNL     1      -3.779  19.385 -11.351  0.00  0.00    -0.354 N 
ATOM      2  N   UNL     1      -1.535  19.446 -10.779  0.00  0.00    -0.372 N 
ATOM      3  N   UNL     1      -2.848  21.270 -10.317  0.00  0.00    -0.372 N 
ATOM      4  C   UNL     1      -2.736  20.036 -10.819  0.00  0.00    +0.166 C 
ATOM      5  H   UNL     1      -3.621  18.463 -11.743  0.00  0.00    +0.163 HD
ATOM      6  H   UNL     1      -0.731  19.912 -10.381  0.00  0.00    +0.159 HD
ATOM      7  H   UNL     1      -1.391  18.507 -11.129  0.00  0.00    +0.159 HD
ATOM      8  H   UNL     1      -3.726  21.773 -10.322  0.00  0.00    +0.159 HD
ATOM      9  H   UNL     1      -2.052  21.757  -9.924  0.00  0.00    +0.159 HD
ENDROOT
BRANCH   1  10
ATOM     10  C   UNL     1      -5.140  19.916 -11.394  0.00  0.00    +0.151 C 
BRANCH  10  11
ATOM     11  C   UNL     1      -6.108  18.813 -11.068  0.00  0.00    -0.028 A 
ATOM     12  C   UNL     1      -6.342  18.442  -9.736  0.00  0.00    +0.005 A 
ATOM     13  C   UNL     1      -6.800  18.140 -12.087  0.00  0.00    +0.005 A 
ATOM     14  C   UNL     1      -7.264  17.438  -9.431  0.00  0.00    +0.000 A 
ATOM     15  C   UNL     1      -7.719  17.137 -11.778  0.00  0.00    +0.000 A 
ATOM     16  C   UNL     1      -7.953  16.788 -10.450  0.00  0.00    +0.000 A 
ENDBRANCH  10  11
ENDBRANCH   1  10
TORSDOF 2
ENDMDL
MODEL 7
REMARK VINA RESULT:    -4.754      3.394      5.040
REMARK INTER + INTRA:          -5.491
REMARK INTER:                  -5.342
REMARK INTRA:                  -0.149
REMARK UNBOUND:                -0.181
REMARK  Name = 1550473
REMARK  2 active torsions:
REMARK  status: ('A' for Active; 'I' for Inactive)
REMARK    1  A    between atoms: N_1  and  C_4
REMARK    2  A    between atoms: C_4  and  C_5
REMARK                            x       y       z     vdW  Elec       q    Type
REMARK                         _______ _______ _______ _____ _____    ______ ____
ROOT
ATOM      1  N   UNL     1       2.973  -1.349 -19.477  0.00  0.00    -0.354 N 
ATOM      2  N   UNL     1       3.676  -3.427 -18.734  0.00  0.00    -0.372 N 
ATOM      3  N   UNL     1       1.975  -3.315 -20.270  0.00  0.00    -0.372 N 
ATOM      4  C   UNL     1       2.868  -2.684 -19.500  0.00  0.00    +0.166 C 
ATOM      5  H   UNL     1       3.650  -0.930 -18.849  0.00  0.00    +0.163 HD
ATOM      6  H   UNL     1       3.622  -4.437 -18.733  0.00  0.00    +0.159 HD
ATOM      7  H   UNL     1       4.383  -3.008 -18.142  0.00  0.00    +0.159 HD
ATOM      8  H   UNL     1       1.332  -2.812 -20.866  0.00  0.00    +0.159 HD
ATOM      9  H   UNL     1       1.898  -4.325 -20.274  0.00  0.00    +0.159 HD
ENDROOT
BRANCH   1  10
ATOM     10  C   UNL     1       2.178  -0.451 -20.312  0.00  0.00    +0.151 C 
BRANCH  10  11
ATOM     11  C   UNL     1       1.315   0.407 -19.429  0.00  0.00    -0.028 A 
ATOM     12  C   UNL     1       0.254   1.146 -19.971  0.00  0.00    +0.005 A 
ATOM     13  C   UNL     1       1.551   0.481 -18.047  0.00  0.00    +0.005 A 
ATOM     14  C   UNL     1      -0.566   1.920 -19.146  0.00  0.00    +0.000 A 
ATOM     15  C   UNL     1       0.731   1.256 -17.228  0.00  0.00    +0.000 A 
ATOM     16  C   UNL     1      -0.329   1.973 -17.777  0.00  0.00    +0.000 A 
ENDBRANCH  10  11
ENDBRANCH   1  10
TORSDOF 2
ENDMDL
MODEL 8
REMARK VINA RESULT:    -4.561      3.821      5.059
REMARK INTER + INTRA:          -5.275
REMARK INTER:                  -5.095
REMARK INTRA:                  -0.180
REMARK UNBOUND:                -0.181
REMARK  Name = 1550473
REMARK  2 active torsions:
REMARK  status: ('A' for Active; 'I' for Inactive)
REMARK    1  A    between atoms: N_1  and  C_4
REMARK    2  A    between atoms: C_4  and  C_5
REMARK                            x       y       z     vdW  Elec       q    Type
REMARK                         _______ _______ _______ _____ _____    ______ ____
ROOT
ATOM      1  N   UNL     1       3.388  -2.015 -20.427  0.00  0.00    -0.354 N 
ATOM      2  N   UNL     1       3.080  -4.300 -20.652  0.00  0.00    -0.372 N 
ATOM      3  N   UNL     1       4.314  -3.516 -18.883  0.00  0.00    -0.372 N 
ATOM      4  C   UNL     1       3.598  -3.262 -19.984  0.00  0.00    +0.166 C 
ATOM      5  H   UNL     1       2.862  -1.891 -21.284  0.00  0.00    +0.163 HD
ATOM      6  H   UNL     1       3.219  -5.251 -20.340  0.00  0.00    +0.159 HD
ATOM      7  H   UNL     1       2.516  -4.170 -21.483  0.00  0.00    +0.159 HD
ATOM      8  H   UNL     1       4.737  -2.777 -18.337  0.00  0.00    +0.159 HD
ATOM      9  H   UNL     1       4.474  -4.463 -18.561  0.00  0.00    +0.159 HD
ENDROOT
BRANCH   1  10
ATOM     10  C   UNL     1       3.863  -0.814 -19.743  0.00  0.00    +0.151 C 
BRANCH  10  11
ATOM     11  C   UNL     1       2.736  -0.232 -18.934  0.00  0.00    -0.028 A 
ATOM     12  C   UNL     1       2.639  -0.492 -17.559  0.00  0.00    +0.005 A 
ATOM     13  C   UNL     1       1.767   0.585 -19.535  0.00  0.00    +0.005 A 
ATOM     14  C   UNL     1       1.610   0.072 -16.801  0.00  0.00    +0.000 A 
ATOM     15  C   UNL     1       0.741   1.147 -18.775  0.00  0.00    +0.000 A 
ATOM     16  C   UNL     1       0.664   0.892 -17.408  0.00  0.00    +0.000 A 
ENDBRANCH  10  11
ENDBRANCH   1  10
TORSDOF 2
ENDMDL
MODEL 9
REMARK VINA RESULT:    -4.530     16.333     17.253
REMARK INTER + INTRA:          -5.240
REMARK INTER:                  -5.115
REMARK INTRA:                  -0.126
REMARK UNBOUND:                -0.181
REMARK  Name = 1550473
REMARK  2 active torsions:
REMARK  status: ('A' for Active; 'I' for Inactive)
REMARK    1  A    between atoms: N_1  and  C_4
REMARK    2  A    between atoms: C_4  and  C_5
REMARK                            x       y       z     vdW  Elec       q    Type
REMARK                         _______ _______ _______ _____ _____    ______ ____
ROOT
ATOM      1  N   UNL     1      10.531  -9.681  -8.697  0.00  0.00    -0.354 N 
ATOM      2  N   UNL     1      10.617  -7.374  -8.510  0.00  0.00    -0.372 N 
ATOM      3  N   UNL     1      12.429  -8.610  -7.836  0.00  0.00    -0.372 N 
ATOM      4  C   UNL     1      11.194  -8.570  -8.348  0.00  0.00    +0.166 C 
ATOM      5  H   UNL     1       9.586  -9.585  -9.050  0.00  0.00    +0.163 HD
ATOM      6  H   UNL     1      11.094  -6.518  -8.259  0.00  0.00    +0.159 HD
ATOM      7  H   UNL     1       9.690  -7.279  -8.907  0.00  0.00    +0.159 HD
ATOM      8  H   UNL     1      12.918  -9.481  -7.683  0.00  0.00    +0.159 HD
ATOM      9  H   UNL     1      12.919  -7.765  -7.568  0.00  0.00    +0.159 HD
ENDROOT
BRANCH   1  10
ATOM     10  C   UNL     1      11.090 -11.029  -8.610  0.00  0.00    +0.151 C 
BRANCH  10  11
ATOM     11  C   UNL     1      11.102 -11.644  -9.982  0.00  0.00    -0.028 A 
ATOM     12  C   UNL     1      10.772 -12.995 -10.160  0.00  0.00    +0.005 A 
ATOM     13  C   UNL     1      11.439 -10.879 -11.110  0.00  0.00    +0.005 A 
ATOM     14  C   UNL     1      10.754 -13.560 -11.437  0.00  0.00    +0.000 A 
ATOM     15  C   UNL     1      11.421 -11.447 -12.384  0.00  0.00    +0.000 A 
ATOM     16  C   UNL     1      11.076 -12.786 -12.548  0.00  0.00    +0.000 A 
ENDBRANCH  10  11
ENDBRANCH   1  10
TORSDOF 2
ENDMDL
