MODEL 1
REMARK VINA RESULT:    -6.189      0.000      0.000
REMARK INTER + INTRA:          -7.009
REMARK INTER:                  -6.913
REMARK INTRA:                  -0.096
REMARK UNBOUND:                -0.096
REMARK  Name = 1550473
REMARK  2 active torsions:
REMARK  status: ('A' for Active; 'I' for Inactive)
REMARK    1  A    between atoms: N_1  and  C_4
REMARK    2  A    between atoms: C_4  and  C_5
REMARK                            x       y       z     vdW  Elec       q    Type
REMARK                         _______ _______ _______ _____ _____    ______ ____
ROOT
ATOM      1  N   UNL     1      -3.205   5.906   2.435  0.00  0.00    -0.354 N 
ATOM      2  N   UNL     1      -1.006   6.191   1.766  0.00  0.00    -0.372 N 
ATOM      3  N   UNL     1      -1.456   5.871   3.993  0.00  0.00    -0.372 N 
ATOM      4  C   UNL     1      -1.903   5.987   2.739  0.00  0.00    +0.166 C 
ATOM      5  H   UNL     1      -3.483   6.033   1.468  0.00  0.00    +0.163 HD
ATOM      6  H   UNL     1      -0.017   6.254   1.964  0.00  0.00    +0.159 HD
ATOM      7  H   UNL     1      -1.282   6.272   0.795  0.00  0.00    +0.159 HD
ATOM      8  H   UNL     1      -2.082   5.722   4.773  0.00  0.00    +0.159 HD
ATOM      9  H   UNL     1      -0.470   5.942   4.213  0.00  0.00    +0.159 HD
ENDROOT
BRANCH   1  10
ATOM     10  C   UNL     1      -4.257   5.632   3.412  0.00  0.00    +0.151 C 
BRANCH  10  11
ATOM     11  C   UNL     1      -4.846   4.276   3.134  0.00  0.00    -0.028 A 
ATOM     12  C   UNL     1      -4.236   3.411   2.214  0.00  0.00    +0.005 A 
ATOM     13  C   UNL     1      -6.009   3.849   3.792  0.00  0.00    +0.005 A 
ATOM     14  C   UNL     1      -4.765   2.140   1.978  0.00  0.00    +0.000 A 
ATOM     15  C   UNL     1      -6.534   2.579   3.553  0.00  0.00    +0.000 A 
ATOM     16  C   UNL     1      -5.911   1.724   2.648  0.00  0.00    +0.000 A 
ENDBRANCH  10  11
ENDBRANCH   1  10
TORSDOF 2
ENDMDL
MODEL 2
REMARK VINA RESULT:    -5.859     17.370     18.582
REMARK INTER + INTRA:          -6.640
REMARK INTER:                  -6.506
REMARK INTRA:                  -0.135
REMARK UNBOUND:                -0.096
REMARK  Name = 1550473
REMARK  2 active torsions:
REMARK  status: ('A' for Active; 'I' for Inactive)
REMARK    1  A    between atoms: N_1  and  C_4
REMARK    2  A    between atoms: C_4  and  C_5
REMARK                            x       y       z     vdW  Elec       q    Type
REMARK                         _______ _______ _______ _____ _____    ______ ____
ROOT
ATOM      1  N   UNL     1      -3.873 -12.483  11.653  0.00  0.00    -0.354 N 
ATOM      2  N   UNL     1      -2.040 -13.148  10.403  0.00  0.00    -0.372 N 
ATOM      3  N   UNL     1      -2.054 -13.565  12.659  0.00  0.00    -0.372 N 
ATOM      4  C   UNL     1      -2.667 -13.061  11.583  0.00  0.00    +0.166 C 
ATOM      5  H   UNL     1      -4.271 -12.093  10.806  0.00  0.00    +0.163 HD
ATOM      6  H   UNL     1      -1.131 -13.582  10.318  0.00  0.00    +0.159 HD
ATOM      7  H   UNL     1      -2.460 -12.799   9.550  0.00  0.00    +0.159 HD
ATOM      8  H   UNL     1      -2.471 -13.526  13.580  0.00  0.00    +0.159 HD
ATOM      9  H   UNL     1      -1.139 -13.993  12.597  0.00  0.00    +0.159 HD
ENDROOT
BRANCH   1  10
ATOM     10  C   UNL     1      -4.663 -12.386  12.879  0.00  0.00    +0.151 C 
BRANCH  10  11
ATOM     11  C   UNL     1      -5.249 -11.004  12.978  0.00  0.00    -0.028 A 
ATOM     12  C   UNL     1      -5.370 -10.199  11.837  0.00  0.00    +0.005 A 
ATOM     13  C   UNL     1      -5.691 -10.497  14.210  0.00  0.00    +0.005 A 
ATOM     14  C   UNL     1      -5.942  -8.927  11.923  0.00  0.00    +0.000 A 
ATOM     15  C   UNL     1      -6.260  -9.227  14.292  0.00  0.00    +0.000 A 
ATOM     16  C   UNL     1      -6.388  -8.443  13.148  0.00  0.00    +0.000 A 
ENDBRANCH  10  11
ENDBRANCH   1  10
TORSDOF 2
ENDMDL
MODEL 3
REMARK VINA RESULT:    -5.760      2.745      4.470
REMARK INTER + INTRA:          -6.529
REMARK INTER:                  -6.349
REMARK INTRA:                  -0.180
REMARK UNBOUND:                -0.096
REMARK  Name = 1550473
REMARK  2 active torsions:
REMARK  status: ('A' for Active; 'I' for Inactive)
REMARK    1  A    between atoms: N_1  and  C_4
REMARK    2  A    between atoms: C_4  and  C_5
REMARK                            x       y       z     vdW  Elec       q    Type
REMARK                         _______ _______ _______ _____ _____    ______ ____
ROOT
ATOM      1  N   UNL     1      -5.077   3.051   3.294  0.00  0.00    -0.354 N 
ATOM      2  N   UNL     1      -7.386   3.195   3.397  0.00  0.00    -0.372 N 
ATOM      3  N   UNL     1      -6.127   4.782   4.474  0.00  0.00    -0.372 N 
ATOM      4  C   UNL     1      -6.181   3.677   3.723  0.00  0.00    +0.166 C 
ATOM      5  H   UNL     1      -5.185   2.200   2.753  0.00  0.00    +0.163 HD
ATOM      6  H   UNL     1      -8.237   3.648   3.703  0.00  0.00    +0.159 HD
ATOM      7  H   UNL     1      -7.492   2.371   2.817  0.00  0.00    +0.159 HD
ATOM      8  H   UNL     1      -5.248   5.192   4.760  0.00  0.00    +0.159 HD
ATOM      9  H   UNL     1      -6.967   5.243   4.800  0.00  0.00    +0.159 HD
ENDROOT
BRANCH   1  10
ATOM     10  C   UNL     1      -3.718   3.524   3.549  0.00  0.00    +0.151 C 
BRANCH  10  11
ATOM     11  C   UNL     1      -3.223   4.271   2.341  0.00  0.00    -0.028 A 
ATOM     12  C   UNL     1      -2.703   3.577   1.239  0.00  0.00    +0.005 A 
ATOM     13  C   UNL     1      -3.278   5.672   2.290  0.00  0.00    +0.005 A 
ATOM     14  C   UNL     1      -2.271   4.269   0.104  0.00  0.00    +0.000 A 
ATOM     15  C   UNL     1      -2.846   6.359   1.156  0.00  0.00    +0.000 A 
ATOM     16  C   UNL     1      -2.345   5.657   0.062  0.00  0.00    +0.000 A 
ENDBRANCH  10  11
ENDBRANCH   1  10
TORSDOF 2
ENDMDL
MODEL 4
REMARK VINA RESULT:    -5.733      3.553      4.631
REMARK INTER + INTRA:          -6.500
REMARK INTER:                  -6.372
REMARK INTRA:                  -0.128
REMARK UNBOUND:                -0.096
REMARK  Name = 1550473
REMARK  2 active torsions:
REMARK  status: ('A' for Active; 'I' for Inactive)
REMARK    1  A    between atoms: N_1  and  C_4
REMARK    2  A    between atoms: C_4  and  C_5
REMARK                            x       y       z     vdW  Elec       q    Type
REMARK                         _______ _______ _______ _____ _____    ______ ____
ROOT
ATOM      1  N   UNL     1      -4.400   1.458   0.004  0.00  0.00    -0.354 N 
ATOM      2  N   UNL     1      -4.449  -0.405  -1.372  0.00  0.00    -0.372 N 
ATOM      3  N   UNL     1      -2.448   0.662  -1.020  0.00  0.00    -0.372 N 
ATOM      4  C   UNL     1      -3.763   0.585  -0.787  0.00  0.00    +0.166 C 
ATOM      5  H   UNL     1      -5.403   1.363   0.116  0.00  0.00    +0.163 HD
ATOM      6  H   UNL     1      -3.995  -1.081  -1.971  0.00  0.00    +0.159 HD
ATOM      7  H   UNL     1      -5.444  -0.525  -1.221  0.00  0.00    +0.159 HD
ATOM      8  H   UNL     1      -1.875   1.389  -0.613  0.00  0.00    +0.159 HD
ATOM      9  H   UNL     1      -1.978   0.002  -1.626  0.00  0.00    +0.159 HD
ENDROOT
BRANCH   1  10
ATOM     10  C   UNL     1      -3.737   2.539   0.731  0.00  0.00    +0.151 C 
BRANCH  10  11
ATOM     11  C   UNL     1      -4.603   2.960   1.885  0.00  0.00    -0.028 A 
ATOM     12  C   UNL     1      -5.726   2.200   2.247  0.00  0.00    +0.005 A 
ATOM     13  C   UNL     1      -4.304   4.114   2.625  0.00  0.00    +0.005 A 
ATOM     14  C   UNL     1      -6.514   2.574   3.338  0.00  0.00    +0.000 A 
ATOM     15  C   UNL     1      -5.094   4.484   3.714  0.00  0.00    +0.000 A 
ATOM     16  C   UNL     1      -6.197   3.713   4.071  0.00  0.00    +0.000 A 
ENDBRANCH  10  11
ENDBRANCH   1  10
TORSDOF 2
ENDMDL
MODEL 5
REMARK VINA RESULT:    -5.620      1.910      3.153
REMARK INTER + INTRA:          -6.374
REMARK INTER:                  -6.241
REMARK INTRA:                  -0.133
REMARK UNBOUND:                -0.096
REMARK  Name = 1550473
REMARK  2 active torsions:
REMARK  status: ('A' for Active; 'I' for Inactive)
REMARK    1  A    between atoms: N_1  and  C_4
REMARK    2  A    between atoms: C_4  and  C_5
REMARK                            x       y       z     vdW  Elec       q    Type
REMARK                         _______ _______ _______ _____ _____    ______ ____
ROOT
ATOM      1  N   UNL     1      -0.615   6.016   1.194  0.00  0.00    -0.354 N 
ATOM      2  N   UNL     1       1.589   5.497   0.705  0.00  0.00    -0.372 N 
ATOM      3  N   UNL     1       0.163   6.013  -1.017  0.00  0.00    -0.372 N 
ATOM      4  C   UNL     1       0.363   5.845   0.295  0.00  0.00    +0.166 C 
ATOM      5  H   UNL     1      -0.406   5.844   2.171  0.00  0.00    +0.163 HD
ATOM      6  H   UNL     1       2.348   5.364   0.051  0.00  0.00    +0.159 HD
ATOM      7  H   UNL     1       1.806   5.371   1.686  0.00  0.00    +0.159 HD
ATOM      8  H   UNL     1      -0.740   6.270  -1.392  0.00  0.00    +0.159 HD
ATOM      9  H   UNL     1       0.907   5.873  -1.689  0.00  0.00    +0.159 HD
ENDROOT
BRANCH   1  10
ATOM     10  C   UNL     1      -1.970   6.447   0.856  0.00  0.00    +0.151 C 
BRANCH  10  11
ATOM     11  C   UNL     1      -2.958   5.576   1.581  0.00  0.00    -0.028 A 
ATOM     12  C   UNL     1      -3.067   4.212   1.271  0.00  0.00    +0.005 A 
ATOM     13  C   UNL     1      -3.785   6.107   2.583  0.00  0.00    +0.005 A 
ATOM     14  C   UNL     1      -3.963   3.396   1.965  0.00  0.00    +0.000 A 
ATOM     15  C   UNL     1      -4.680   5.289   3.273  0.00  0.00    +0.000 A 
ATOM     16  C   UNL     1      -4.767   3.933   2.965  0.00  0.00    +0.000 A 
ENDBRANCH  10  11
ENDBRANCH   1  10
TORSDOF 2
ENDMDL
MODEL 6
REMARK VINA RESULT:    -5.351      1.313      2.168
REMARK INTER + INTRA:          -6.072
REMARK INTER:                  -5.933
REMARK INTRA:                  -0.139
REMARK UNBOUND:                -0.096
REMARK  Name = 1550473
REMARK  2 active torsions:
REMARK  status: ('A' for Active; 'I' for Inactive)
REMARK    1  A    between atoms: N_1  and  C_4
REMARK    2  A    between atoms: C_4  and  C_5
REMARK                            x       y       z     vdW  Elec       q    Type
REMARK                         _______ _______ _______ _____ _____    ______ ____
ROOT
ATOM      1  N   UNL     1      -2.077   4.756   1.789  0.00  0.00    -0.354 N 
ATOM      2  N   UNL     1      -0.343   4.820   0.255  0.00  0.00    -0.372 N 
ATOM      3  N   UNL     1      -1.813   6.580   0.342  0.00  0.00    -0.372 N 
ATOM      4  C   UNL     1      -1.424   5.387   0.804  0.00  0.00    +0.166 C 
ATOM      5  H   UNL     1      -1.749   3.840   2.074  0.00  0.00    +0.163 HD
ATOM      6  H   UNL     1       0.172   5.274  -0.488  0.00  0.00    +0.159 HD
ATOM      7  H   UNL     1       0.009   3.926   0.573  0.00  0.00    +0.159 HD
ATOM      8  H   UNL     1      -2.624   7.059   0.710  0.00  0.00    +0.159 HD
ATOM      9  H   UNL     1      -1.317   7.045  -0.409  0.00  0.00    +0.159 HD
ENDROOT
BRANCH   1  10
ATOM     10  C   UNL     1      -3.232   5.312   2.491  0.00  0.00    +0.151 C 
BRANCH  10  11
ATOM     11  C   UNL     1      -4.270   4.237   2.656  0.00  0.00    -0.028 A 
ATOM     12  C   UNL     1      -5.293   4.374   3.606  0.00  0.00    +0.005 A 
ATOM     13  C   UNL     1      -4.240   3.080   1.862  0.00  0.00    +0.005 A 
ATOM     14  C   UNL     1      -6.275   3.389   3.739  0.00  0.00    +0.000 A 
ATOM     15  C   UNL     1      -5.222   2.099   1.998  0.00  0.00    +0.000 A 
ATOM     16  C   UNL     1      -6.241   2.255   2.935  0.00  0.00    +0.000 A 
ENDBRANCH  10  11
ENDBRANCH   1  10
TORSDOF 2
ENDMDL
MODEL 7
REMARK VINA RESULT:    -5.039     29.166     29.684
REMARK INTER + INTRA:          -5.725
REMARK INTER:                  -5.607
REMARK INTRA:                  -0.118
REMARK UNBOUND:                -0.096
REMARK  Name = 1550473
REMARK  2 active torsions:
REMARK  status: ('A' for Active; 'I' for Inactive)
REMARK    1  A    between atoms: N_1  and  C_4
REMARK    2  A    between atoms: C_4  and  C_5
REMARK                            x       y       z     vdW  Elec       q    Type
REMARK                         _______ _______ _______ _____ _____    ______ ____
ROOT
ATOM      1  N   UNL     1       5.189 -14.025 -18.329  0.00  0.00    -0.354 N 
ATOM      2  N   UNL     1       7.284 -13.094 -18.004  0.00  0.00    -0.372 N 
ATOM      3  N   UNL     1       5.621 -11.794 -18.904  0.00  0.00    -0.372 N 
ATOM      4  C   UNL     1       6.016 -12.975 -18.416  0.00  0.00    +0.166 C 
ATOM      5  H   UNL     1       5.558 -14.901 -17.978  0.00  0.00    +0.163 HD
ATOM      6  H   UNL     1       7.931 -12.318 -18.054  0.00  0.00    +0.159 HD
ATOM      7  H   UNL     1       7.638 -13.957 -17.611  0.00  0.00    +0.159 HD
ATOM      8  H   UNL     1       4.678 -11.641 -19.236  0.00  0.00    +0.159 HD
ATOM      9  H   UNL     1       6.256 -11.009 -18.973  0.00  0.00    +0.159 HD
ENDROOT
BRANCH   1  10
ATOM     10  C   UNL     1       3.775 -13.985 -18.699  0.00  0.00    +0.151 C 
BRANCH  10  11
ATOM     11  C   UNL     1       3.129 -15.286 -18.312  0.00  0.00    -0.028 A 
ATOM     12  C   UNL     1       3.598 -16.013 -17.208  0.00  0.00    +0.005 A 
ATOM     13  C   UNL     1       2.042 -15.794 -19.040  0.00  0.00    +0.005 A 
ATOM     14  C   UNL     1       2.979 -17.207 -16.829  0.00  0.00    +0.000 A 
ATOM     15  C   UNL     1       1.427 -16.987 -18.659  0.00  0.00    +0.000 A 
ATOM     16  C   UNL     1       1.894 -17.691 -17.552  0.00  0.00    +0.000 A 
ENDBRANCH  10  11
ENDBRANCH   1  10
TORSDOF 2
ENDMDL
MODEL 8
REMARK VINA RESULT:    -4.991      3.105      3.920
REMARK INTER + INTRA:          -5.670
REMARK INTER:                  -5.588
REMARK INTRA:                  -0.082
REMARK UNBOUND:                -0.096
REMARK  Name = 1550473
REMARK  2 active torsions:
REMARK  status: ('A' for Active; 'I' for Inactive)
REMARK    1  A    between atoms: N_1  and  C_4
REMARK    2  A    between atoms: C_4  and  C_5
REMARK                            x       y       z     vdW  Elec       q    Type
REMARK                         _______ _______ _______ _____ _____    ______ ____
ROOT
ATOM      1  N   UNL     1      -3.108   1.917   0.608  0.00  0.00    -0.354 N 
ATOM      2  N   UNL     1      -2.412  -0.278   0.358  0.00  0.00    -0.372 N 
ATOM      3  N   UNL     1      -0.939   1.261   1.208  0.00  0.00    -0.372 N 
ATOM      4  C   UNL     1      -2.155   0.982   0.727  0.00  0.00    +0.166 C 
ATOM      5  H   UNL     1      -3.999   1.647   0.209  0.00  0.00    +0.163 HD
ATOM      6  H   UNL     1      -1.715  -1.006   0.439  0.00  0.00    +0.159 HD
ATOM      7  H   UNL     1      -3.319  -0.555   0.002  0.00  0.00    +0.159 HD
ATOM      8  H   UNL     1      -0.680   2.195   1.499  0.00  0.00    +0.159 HD
ATOM      9  H   UNL     1      -0.223   0.550   1.286  0.00  0.00    +0.159 HD
ENDROOT
BRANCH   1  10
ATOM     10  C   UNL     1      -2.947   3.306   1.032  0.00  0.00    +0.151 C 
BRANCH  10  11
ATOM     11  C   UNL     1      -3.815   3.557   2.234  0.00  0.00    -0.028 A 
ATOM     12  C   UNL     1      -4.105   4.867   2.642  0.00  0.00    +0.005 A 
ATOM     13  C   UNL     1      -4.354   2.489   2.967  0.00  0.00    +0.005 A 
ATOM     14  C   UNL     1      -4.935   5.101   3.741  0.00  0.00    +0.000 A 
ATOM     15  C   UNL     1      -5.182   2.726   4.064  0.00  0.00    +0.000 A 
ATOM     16  C   UNL     1      -5.475   4.032   4.449  0.00  0.00    +0.000 A 
ENDBRANCH  10  11
ENDBRANCH   1  10
TORSDOF 2
ENDMDL
MODEL 9
REMARK VINA RESULT:    -4.926      3.642      5.844
REMARK INTER + INTRA:          -5.598
REMARK INTER:                  -5.485
REMARK INTRA:                  -0.113
REMARK UNBOUND:                -0.096
REMARK  Name = 1550473
REMARK  2 active torsions:
REMARK  status: ('A' for Active; 'I' for Inactive)
REMARK    1  A    between atoms: N_1  and  C_4
REMARK    2  A    between atoms: C_4  and  C_5
REMARK                            x       y       z     vdW  Elec       q    Type
REMARK                         _______ _______ _______ _____ _____    ______ ____
ROOT
ATOM      1  N   UNL     1      -1.365   6.330   1.861  0.00  0.00    -0.354 N 
ATOM      2  N   UNL     1      -1.351   5.853   4.128  0.00  0.00    -0.372 N 
ATOM      3  N   UNL     1      -3.355   5.872   3.010  0.00  0.00    -0.372 N 
ATOM      4  C   UNL     1      -2.027   6.022   2.985  0.00  0.00    +0.166 C 
ATOM      5  H   UNL     1      -0.361   6.458   1.914  0.00  0.00    +0.163 HD
ATOM      6  H   UNL     1      -1.823   5.617   4.991  0.00  0.00    +0.159 HD
ATOM      7  H   UNL     1      -0.343   5.938   4.169  0.00  0.00    +0.159 HD
ATOM      8  H   UNL     1      -3.924   5.992   2.183  0.00  0.00    +0.159 HD
ATOM      9  H   UNL     1      -3.847   5.648   3.866  0.00  0.00    +0.159 HD
ENDROOT
BRANCH   1  10
ATOM     10  C   UNL     1      -2.000   6.481   0.554  0.00  0.00    +0.151 C 
BRANCH  10  11
ATOM     11  C   UNL     1      -1.037   6.040  -0.514  0.00  0.00    -0.028 A 
ATOM     12  C   UNL     1      -1.479   5.259  -1.592  0.00  0.00    +0.005 A 
ATOM     13  C   UNL     1       0.317   6.404  -0.456  0.00  0.00    +0.005 A 
ATOM     14  C   UNL     1      -0.591   4.873  -2.600  0.00  0.00    +0.000 A 
ATOM     15  C   UNL     1       1.200   6.017  -1.464  0.00  0.00    +0.000 A 
ATOM     16  C   UNL     1       0.745   5.254  -2.537  0.00  0.00    +0.000 A 
ENDBRANCH  10  11
ENDBRANCH   1  10
TORSDOF 2
ENDMDL
