MODEL 1
REMARK VINA RESULT:    -6.612      0.000      0.000
REMARK INTER + INTRA:          -7.509
REMARK INTER:                  -7.385
REMARK INTRA:                  -0.124
REMARK UNBOUND:                -0.124
REMARK  Name = 1550473
REMARK  2 active torsions:
REMARK  status: ('A' for Active; 'I' for Inactive)
REMARK    1  A    between atoms: N_1  and  C_4
REMARK    2  A    between atoms: C_4  and  C_5
REMARK                            x       y       z     vdW  Elec       q    Type
REMARK                         _______ _______ _______ _____ _____    ______ ____
ROOT
ATOM      1  N   UNL     1      -6.266  -7.524  -8.199  0.00  0.00    -0.354 N 
ATOM      2  N   UNL     1      -8.360  -7.793  -9.152  0.00  0.00    -0.372 N 
ATOM      3  N   UNL     1      -8.185  -6.672  -7.158  0.00  0.00    -0.372 N 
ATOM      4  C   UNL     1      -7.591  -7.327  -8.161  0.00  0.00    +0.166 C 
ATOM      5  H   UNL     1      -5.881  -8.055  -8.972  0.00  0.00    +0.163 HD
ATOM      6  H   UNL     1      -9.362  -7.656  -9.152  0.00  0.00    +0.159 HD
ATOM      7  H   UNL     1      -7.967  -8.283  -9.946  0.00  0.00    +0.159 HD
ATOM      8  H   UNL     1      -7.661  -6.300  -6.376  0.00  0.00    +0.159 HD
ATOM      9  H   UNL     1      -9.188  -6.535  -7.134  0.00  0.00    +0.159 HD
ENDROOT
BRANCH   1  10
ATOM     10  C   UNL     1      -5.334  -7.011  -7.197  0.00  0.00    +0.151 C 
BRANCH  10  11
ATOM     11  C   UNL     1      -3.927  -7.195  -7.696  0.00  0.00    -0.028 A 
ATOM     12  C   UNL     1      -3.685  -7.803  -8.936  0.00  0.00    +0.005 A 
ATOM     13  C   UNL     1      -2.832  -6.757  -6.935  0.00  0.00    +0.005 A 
ATOM     14  C   UNL     1      -2.380  -7.947  -9.413  0.00  0.00    +0.000 A 
ATOM     15  C   UNL     1      -1.530  -6.903  -7.415  0.00  0.00    +0.000 A 
ATOM     16  C   UNL     1      -1.305  -7.496  -8.655  0.00  0.00    +0.000 A 
ENDBRANCH  10  11
ENDBRANCH   1  10
TORSDOF 2
ENDMDL
MODEL 2
REMARK VINA RESULT:    -5.781      5.120      7.563
REMARK INTER + INTRA:          -6.581
REMARK INTER:                  -6.451
REMARK INTRA:                  -0.130
REMARK UNBOUND:                -0.124
REMARK  Name = 1550473
REMARK  2 active torsions:
REMARK  status: ('A' for Active; 'I' for Inactive)
REMARK    1  A    between atoms: N_1  and  C_4
REMARK    2  A    between atoms: C_4  and  C_5
REMARK                            x       y       z     vdW  Elec       q    Type
REMARK                         _______ _______ _______ _____ _____    ______ ____
ROOT
ATOM      1  N   UNL     1      -9.243  -4.989  -8.554  0.00  0.00    -0.354 N 
ATOM      2  N   UNL     1      -7.374  -5.587  -7.324  0.00  0.00    -0.372 N 
ATOM      3  N   UNL     1      -9.430  -6.363  -6.665  0.00  0.00    -0.372 N 
ATOM      4  C   UNL     1      -8.696  -5.644  -7.521  0.00  0.00    +0.166 C 
ATOM      5  H   UNL     1      -8.637  -4.437  -9.149  0.00  0.00    +0.163 HD
ATOM      6  H   UNL     1      -6.932  -6.073  -6.555  0.00  0.00    +0.159 HD
ATOM      7  H   UNL     1      -6.764  -5.072  -7.947  0.00  0.00    +0.159 HD
ATOM      8  H   UNL     1     -10.434  -6.441  -6.754  0.00  0.00    +0.159 HD
ATOM      9  H   UNL     1      -9.008  -6.847  -5.882  0.00  0.00    +0.159 HD
ENDROOT
BRANCH   1  10
ATOM     10  C   UNL     1     -10.666  -5.030  -8.887  0.00  0.00    +0.151 C 
BRANCH  10  11
ATOM     11  C   UNL     1     -10.832  -4.791 -10.363  0.00  0.00    -0.028 A 
ATOM     12  C   UNL     1     -12.108  -4.614 -10.916  0.00  0.00    +0.005 A 
ATOM     13  C   UNL     1      -9.716  -4.734 -11.212  0.00  0.00    +0.005 A 
ATOM     14  C   UNL     1     -12.261  -4.361 -12.282  0.00  0.00    +0.000 A 
ATOM     15  C   UNL     1      -9.872  -4.483 -12.575  0.00  0.00    +0.000 A 
ATOM     16  C   UNL     1     -11.145  -4.294 -13.109  0.00  0.00    +0.000 A 
ENDBRANCH  10  11
ENDBRANCH   1  10
TORSDOF 2
ENDMDL
MODEL 3
REMARK VINA RESULT:    -5.620      3.662      7.103
REMARK INTER + INTRA:          -6.402
REMARK INTER:                  -6.292
REMARK INTRA:                  -0.109
REMARK UNBOUND:                -0.124
REMARK  Name = 1550473
REMARK  2 active torsions:
REMARK  status: ('A' for Active; 'I' for Inactive)
REMARK    1  A    between atoms: N_1  and  C_4
REMARK    2  A    between atoms: C_4  and  C_5
REMARK                            x       y       z     vdW  Elec       q    Type
REMARK                         _______ _______ _______ _____ _____    ______ ____
ROOT
ATOM      1  N   UNL     1      -8.008  -6.317  -8.597  0.00  0.00    -0.354 N 
ATOM      2  N   UNL     1      -6.113  -7.648  -8.645  0.00  0.00    -0.372 N 
ATOM      3  N   UNL     1      -7.011  -7.070  -6.614  0.00  0.00    -0.372 N 
ATOM      4  C   UNL     1      -7.057  -7.002  -7.949  0.00  0.00    +0.166 C 
ATOM      5  H   UNL     1      -7.969  -6.279  -9.609  0.00  0.00    +0.163 HD
ATOM      6  H   UNL     1      -5.385  -8.176  -8.184  0.00  0.00    +0.159 HD
ATOM      7  H   UNL     1      -6.104  -7.647  -9.658  0.00  0.00    +0.159 HD
ATOM      8  H   UNL     1      -7.691  -6.600  -6.031  0.00  0.00    +0.159 HD
ATOM      9  H   UNL     1      -6.283  -7.584  -6.134  0.00  0.00    +0.159 HD
ENDROOT
BRANCH   1  10
ATOM     10  C   UNL     1      -9.112  -5.624  -7.934  0.00  0.00    +0.151 C 
BRANCH  10  11
ATOM     11  C   UNL     1     -10.217  -5.398  -8.928  0.00  0.00    -0.028 A 
ATOM     12  C   UNL     1     -11.557  -5.575  -8.555  0.00  0.00    +0.005 A 
ATOM     13  C   UNL     1      -9.932  -5.002 -10.244  0.00  0.00    +0.005 A 
ATOM     14  C   UNL     1     -12.586  -5.337  -9.469  0.00  0.00    +0.000 A 
ATOM     15  C   UNL     1     -10.962  -4.766 -11.154  0.00  0.00    +0.000 A 
ATOM     16  C   UNL     1     -12.289  -4.931 -10.766  0.00  0.00    +0.000 A 
ENDBRANCH  10  11
ENDBRANCH   1  10
TORSDOF 2
ENDMDL
MODEL 4
REMARK VINA RESULT:    -5.338      5.147      8.094
REMARK INTER + INTRA:          -6.087
REMARK INTER:                  -5.955
REMARK INTRA:                  -0.132
REMARK UNBOUND:                -0.124
REMARK  Name = 1550473
REMARK  2 active torsions:
REMARK  status: ('A' for Active; 'I' for Inactive)
REMARK    1  A    between atoms: N_1  and  C_4
REMARK    2  A    between atoms: C_4  and  C_5
REMARK                            x       y       z     vdW  Elec       q    Type
REMARK                         _______ _______ _______ _____ _____    ______ ____
ROOT
ATOM      1  N   UNL     1     -10.268  -6.621  -9.402  0.00  0.00    -0.354 N 
ATOM      2  N   UNL     1      -8.498  -8.109  -9.278  0.00  0.00    -0.372 N 
ATOM      3  N   UNL     1      -8.189  -5.954  -8.552  0.00  0.00    -0.372 N 
ATOM      4  C   UNL     1      -8.995  -6.883  -9.077  0.00  0.00    +0.166 C 
ATOM      5  H   UNL     1     -10.819  -7.359  -9.825  0.00  0.00    +0.163 HD
ATOM      6  H   UNL     1      -7.542  -8.337  -9.040  0.00  0.00    +0.159 HD
ATOM      7  H   UNL     1      -9.064  -8.858  -9.659  0.00  0.00    +0.159 HD
ATOM      8  H   UNL     1      -8.501  -5.008  -8.381  0.00  0.00    +0.159 HD
ATOM      9  H   UNL     1      -7.226  -6.160  -8.318  0.00  0.00    +0.159 HD
ENDROOT
BRANCH   1  10
ATOM     10  C   UNL     1     -10.922  -5.333  -9.174  0.00  0.00    +0.151 C 
BRANCH  10  11
ATOM     11  C   UNL     1     -11.351  -4.759 -10.496  0.00  0.00    -0.028 A 
ATOM     12  C   UNL     1     -10.472  -4.756 -11.589  0.00  0.00    +0.005 A 
ATOM     13  C   UNL     1     -12.637  -4.222 -10.663  0.00  0.00    +0.005 A 
ATOM     14  C   UNL     1     -10.880  -4.249 -12.826  0.00  0.00    +0.000 A 
ATOM     15  C   UNL     1     -13.040  -3.716 -11.899  0.00  0.00    +0.000 A 
ATOM     16  C   UNL     1     -12.162  -3.733 -12.981  0.00  0.00    +0.000 A 
ENDBRANCH  10  11
ENDBRANCH   1  10
TORSDOF 2
ENDMDL
MODEL 5
REMARK VINA RESULT:    -5.203      6.678      9.282
REMARK INTER + INTRA:          -5.936
REMARK INTER:                  -5.833
REMARK INTRA:                  -0.103
REMARK UNBOUND:                -0.124
REMARK  Name = 1550473
REMARK  2 active torsions:
REMARK  status: ('A' for Active; 'I' for Inactive)
REMARK    1  A    between atoms: N_1  and  C_4
REMARK    2  A    between atoms: C_4  and  C_5
REMARK                            x       y       z     vdW  Elec       q    Type
REMARK                         _______ _______ _______ _____ _____    ______ ____
ROOT
ATOM      1  N   UNL     1     -11.579  -5.062  -8.658  0.00  0.00    -0.354 N 
ATOM      2  N   UNL     1      -9.812  -5.205  -7.168  0.00  0.00    -0.372 N 
ATOM      3  N   UNL     1     -10.625  -7.132  -8.113  0.00  0.00    -0.372 N 
ATOM      4  C   UNL     1     -10.684  -5.802  -7.990  0.00  0.00    +0.166 C 
ATOM      5  H   UNL     1     -11.592  -4.061  -8.498  0.00  0.00    +0.163 HD
ATOM      6  H   UNL     1      -9.123  -5.737  -6.654  0.00  0.00    +0.159 HD
ATOM      7  H   UNL     1      -9.797  -4.200  -7.046  0.00  0.00    +0.159 HD
ATOM      8  H   UNL     1     -11.259  -7.643  -8.713  0.00  0.00    +0.159 HD
ATOM      9  H   UNL     1      -9.950  -7.682  -7.598  0.00  0.00    +0.159 HD
ENDROOT
BRANCH   1  10
ATOM     10  C   UNL     1     -12.537  -5.607  -9.619  0.00  0.00    +0.151 C 
BRANCH  10  11
ATOM     11  C   UNL     1     -12.731  -4.619 -10.735  0.00  0.00    -0.028 A 
ATOM     12  C   UNL     1     -13.611  -3.537 -10.583  0.00  0.00    +0.005 A 
ATOM     13  C   UNL     1     -12.034  -4.755 -11.945  0.00  0.00    +0.005 A 
ATOM     14  C   UNL     1     -13.768  -2.601 -11.608  0.00  0.00    +0.000 A 
ATOM     15  C   UNL     1     -12.195  -3.819 -12.967  0.00  0.00    +0.000 A 
ATOM     16  C   UNL     1     -13.060  -2.741 -12.797  0.00  0.00    +0.000 A 
ENDBRANCH  10  11
ENDBRANCH   1  10
TORSDOF 2
ENDMDL
MODEL 6
REMARK VINA RESULT:    -5.055     22.817     24.139
REMARK INTER + INTRA:          -5.770
REMARK INTER:                  -5.657
REMARK INTRA:                  -0.113
REMARK UNBOUND:                -0.124
REMARK  Name = 1550473
REMARK  2 active torsions:
REMARK  status: ('A' for Active; 'I' for Inactive)
REMARK    1  A    between atoms: N_1  and  C_4
REMARK    2  A    between atoms: C_4  and  C_5
REMARK                            x       y       z     vdW  Elec       q    Type
REMARK                         _______ _______ _______ _____ _____    ______ ____
ROOT
ATOM      1  N   UNL     1       2.070   4.491   9.969  0.00  0.00    -0.354 N 
ATOM      2  N   UNL     1       1.357   2.308   9.672  0.00  0.00    -0.372 N 
ATOM      3  N   UNL     1       1.410   3.714   7.859  0.00  0.00    -0.372 N 
ATOM      4  C   UNL     1       1.617   3.520   9.166  0.00  0.00    +0.166 C 
ATOM      5  H   UNL     1       2.177   4.289  10.957  0.00  0.00    +0.163 HD
ATOM      6  H   UNL     1       1.017   1.554   9.090  0.00  0.00    +0.159 HD
ATOM      7  H   UNL     1       1.508   2.095  10.650  0.00  0.00    +0.159 HD
ATOM      8  H   UNL     1       1.582   4.607   7.417  0.00  0.00    +0.159 HD
ATOM      9  H   UNL     1       1.060   2.976   7.262  0.00  0.00    +0.159 HD
ENDROOT
BRANCH   1  10
ATOM     10  C   UNL     1       2.435   5.830   9.508  0.00  0.00    +0.151 C 
BRANCH  10  11
ATOM     11  C   UNL     1       2.168   6.818  10.610  0.00  0.00    -0.028 A 
ATOM     12  C   UNL     1       2.510   6.515  11.936  0.00  0.00    +0.005 A 
ATOM     13  C   UNL     1       1.580   8.062  10.334  0.00  0.00    +0.005 A 
ATOM     14  C   UNL     1       2.290   7.445  12.956  0.00  0.00    +0.000 A 
ATOM     15  C   UNL     1       1.362   8.987  11.354  0.00  0.00    +0.000 A 
ATOM     16  C   UNL     1       1.719   8.679  12.665  0.00  0.00    +0.000 A 
ENDBRANCH  10  11
ENDBRANCH   1  10
TORSDOF 2
ENDMDL
MODEL 7
REMARK VINA RESULT:    -4.982     23.164     24.442
REMARK INTER + INTRA:          -5.689
REMARK INTER:                  -5.549
REMARK INTRA:                  -0.141
REMARK UNBOUND:                -0.124
REMARK  Name = 1550473
REMARK  2 active torsions:
REMARK  status: ('A' for Active; 'I' for Inactive)
REMARK    1  A    between atoms: N_1  and  C_4
REMARK    2  A    between atoms: C_4  and  C_5
REMARK                            x       y       z     vdW  Elec       q    Type
REMARK                         _______ _______ _______ _____ _____    ______ ____
ROOT
ATOM      1  N   UNL     1       1.044   5.927   9.146  0.00  0.00    -0.354 N 
ATOM      2  N   UNL     1       1.769   4.288   7.678  0.00  0.00    -0.372 N 
ATOM      3  N   UNL     1       1.773   6.477   6.988  0.00  0.00    -0.372 N 
ATOM      4  C   UNL     1       1.524   5.577   7.945  0.00  0.00    +0.166 C 
ATOM      5  H   UNL     1       0.847   5.194   9.818  0.00  0.00    +0.163 HD
ATOM      6  H   UNL     1       2.134   3.995   6.782  0.00  0.00    +0.159 HD
ATOM      7  H   UNL     1       1.615   3.563   8.368  0.00  0.00    +0.159 HD
ATOM      8  H   UNL     1       1.604   7.464   7.124  0.00  0.00    +0.159 HD
ATOM      9  H   UNL     1       2.128   6.201   6.081  0.00  0.00    +0.159 HD
ENDROOT
BRANCH   1  10
ATOM     10  C   UNL     1       0.794   7.307   9.556  0.00  0.00    +0.151 C 
BRANCH  10  11
ATOM     11  C   UNL     1       1.394   7.532  10.916  0.00  0.00    -0.028 A 
ATOM     12  C   UNL     1       2.232   6.566  11.493  0.00  0.00    +0.005 A 
ATOM     13  C   UNL     1       1.134   8.712  11.631  0.00  0.00    +0.005 A 
ATOM     14  C   UNL     1       2.814   6.788  12.744  0.00  0.00    +0.000 A 
ATOM     15  C   UNL     1       1.717   8.928  12.880  0.00  0.00    +0.000 A 
ATOM     16  C   UNL     1       2.558   7.967  13.434  0.00  0.00    +0.000 A 
ENDBRANCH  10  11
ENDBRANCH   1  10
TORSDOF 2
ENDMDL
MODEL 8
REMARK VINA RESULT:    -4.887     10.772     12.139
REMARK INTER + INTRA:          -5.583
REMARK INTER:                  -5.455
REMARK INTRA:                  -0.128
REMARK UNBOUND:                -0.124
REMARK  Name = 1550473
REMARK  2 active torsions:
REMARK  status: ('A' for Active; 'I' for Inactive)
REMARK    1  A    between atoms: N_1  and  C_4
REMARK    2  A    between atoms: C_4  and  C_5
REMARK                            x       y       z     vdW  Elec       q    Type
REMARK                         _______ _______ _______ _____ _____    ______ ____
ROOT
ATOM      1  N   UNL     1      -4.173 -12.063 -18.899  0.00  0.00    -0.354 N 
ATOM      2  N   UNL     1      -3.553 -14.265 -18.536  0.00  0.00    -0.372 N 
ATOM      3  N   UNL     1      -4.755 -13.748 -20.420  0.00  0.00    -0.372 N 
ATOM      4  C   UNL     1      -4.166 -13.344 -19.290  0.00  0.00    +0.166 C 
ATOM      5  H   UNL     1      -3.734 -11.827 -18.016  0.00  0.00    +0.163 HD
ATOM      6  H   UNL     1      -3.528 -15.239 -18.807  0.00  0.00    +0.159 HD
ATOM      7  H   UNL     1      -3.076 -14.018 -17.677  0.00  0.00    +0.159 HD
ATOM      8  H   UNL     1      -5.240 -13.103 -21.031  0.00  0.00    +0.159 HD
ATOM      9  H   UNL     1      -4.752 -14.720 -20.703  0.00  0.00    +0.159 HD
ENDROOT
BRANCH   1  10
ATOM     10  C   UNL     1      -4.766 -10.975 -19.674  0.00  0.00    +0.151 C 
BRANCH  10  11
ATOM     11  C   UNL     1      -5.736 -10.224 -18.804  0.00  0.00    -0.028 A 
ATOM     12  C   UNL     1      -5.341  -9.747 -17.545  0.00  0.00    +0.005 A 
ATOM     13  C   UNL     1      -7.049  -9.981 -19.235  0.00  0.00    +0.005 A 
ATOM     14  C   UNL     1      -6.232  -9.023 -16.749  0.00  0.00    +0.000 A 
ATOM     15  C   UNL     1      -7.936  -9.258 -18.437  0.00  0.00    +0.000 A 
ATOM     16  C   UNL     1      -7.527  -8.778 -17.195  0.00  0.00    +0.000 A 
ENDBRANCH  10  11
ENDBRANCH   1  10
TORSDOF 2
ENDMDL
MODEL 9
REMARK VINA RESULT:    -4.667      6.463      9.478
REMARK INTER + INTRA:          -5.337
REMARK INTER:                  -5.213
REMARK INTRA:                  -0.124
REMARK UNBOUND:                -0.124
REMARK  Name = 1550473
REMARK  2 active torsions:
REMARK  status: ('A' for Active; 'I' for Inactive)
REMARK    1  A    between atoms: N_1  and  C_4
REMARK    2  A    between atoms: C_4  and  C_5
REMARK                            x       y       z     vdW  Elec       q    Type
REMARK                         _______ _______ _______ _____ _____    ______ ____
ROOT
ATOM      1  N   UNL     1     -10.645  -4.860 -10.445  0.00  0.00    -0.354 N 
ATOM      2  N   UNL     1      -8.696  -5.461  -9.348  0.00  0.00    -0.372 N 
ATOM      3  N   UNL     1     -10.479  -4.715  -8.112  0.00  0.00    -0.372 N 
ATOM      4  C   UNL     1      -9.954  -5.007  -9.307  0.00  0.00    +0.166 C 
ATOM      5  H   UNL     1     -10.180  -5.070 -11.321  0.00  0.00    +0.163 HD
ATOM      6  H   UNL     1      -8.151  -5.585  -8.506  0.00  0.00    +0.159 HD
ATOM      7  H   UNL     1      -8.249  -5.714 -10.221  0.00  0.00    +0.159 HD
ATOM      8  H   UNL     1     -11.422  -4.362  -8.013  0.00  0.00    +0.159 HD
ATOM      9  H   UNL     1      -9.945  -4.821  -7.258  0.00  0.00    +0.159 HD
ENDROOT
BRANCH   1  10
ATOM     10  C   UNL     1     -12.039  -4.424 -10.505  0.00  0.00    +0.151 C 
BRANCH  10  11
ATOM     11  C   UNL     1     -12.544  -4.584 -11.912  0.00  0.00    -0.028 A 
ATOM     12  C   UNL     1     -11.707  -5.094 -12.915  0.00  0.00    +0.005 A 
ATOM     13  C   UNL     1     -13.860  -4.233 -12.248  0.00  0.00    +0.005 A 
ATOM     14  C   UNL     1     -12.184  -5.271 -14.216  0.00  0.00    +0.000 A 
ATOM     15  C   UNL     1     -14.333  -4.410 -13.549  0.00  0.00    +0.000 A 
ATOM     16  C   UNL     1     -13.495  -4.931 -14.532  0.00  0.00    +0.000 A 
ENDBRANCH  10  11
ENDBRANCH   1  10
TORSDOF 2
ENDMDL
