MODEL 1
REMARK VINA RESULT:    -5.888      0.000      0.000
REMARK INTER + INTRA:          -6.693
REMARK INTER:                  -6.576
REMARK INTRA:                  -0.117
REMARK UNBOUND:                -0.117
REMARK  Name = 1550473
REMARK  2 active torsions:
REMARK  status: ('A' for Active; 'I' for Inactive)
REMARK    1  A    between atoms: N_1  and  C_4
REMARK    2  A    between atoms: C_4  and  C_5
REMARK                            x       y       z     vdW  Elec       q    Type
REMARK                         _______ _______ _______ _____ _____    ______ ____
ROOT
ATOM      1  N   UNL     1      -6.917  -1.764   3.259  0.00  0.00    -0.354 N 
ATOM      2  N   UNL     1      -8.703  -1.220   4.630  0.00  0.00    -0.372 N 
ATOM      3  N   UNL     1      -8.955  -1.043   2.356  0.00  0.00    -0.372 N 
ATOM      4  C   UNL     1      -8.181  -1.345   3.403  0.00  0.00    +0.166 C 
ATOM      5  H   UNL     1      -6.373  -1.948   4.094  0.00  0.00    +0.163 HD
ATOM      6  H   UNL     1      -9.655  -0.909   4.769  0.00  0.00    +0.159 HD
ATOM      7  H   UNL     1      -8.171  -1.449   5.461  0.00  0.00    +0.159 HD
ATOM      8  H   UNL     1      -8.619  -1.111   1.404  0.00  0.00    +0.159 HD
ATOM      9  H   UNL     1      -9.907  -0.719   2.476  0.00  0.00    +0.159 HD
ENDROOT
BRANCH   1  10
ATOM     10  C   UNL     1      -6.271  -1.986   1.967  0.00  0.00    +0.151 C 
BRANCH  10  11
ATOM     11  C   UNL     1      -5.874  -3.432   1.857  0.00  0.00    -0.028 A 
ATOM     12  C   UNL     1      -4.911  -3.837   0.922  0.00  0.00    +0.005 A 
ATOM     13  C   UNL     1      -6.453  -4.402   2.690  0.00  0.00    +0.005 A 
ATOM     14  C   UNL     1      -4.519  -5.176   0.840  0.00  0.00    +0.000 A 
ATOM     15  C   UNL     1      -6.060  -5.737   2.605  0.00  0.00    +0.000 A 
ATOM     16  C   UNL     1      -5.092  -6.124   1.682  0.00  0.00    +0.000 A 
ENDBRANCH  10  11
ENDBRANCH   1  10
TORSDOF 2
ENDMDL
MODEL 2
REMARK VINA RESULT:    -5.404      1.603      2.228
REMARK INTER + INTRA:          -6.153
REMARK INTER:                  -5.993
REMARK INTRA:                  -0.159
REMARK UNBOUND:                -0.117
REMARK  Name = 1550473
REMARK  2 active torsions:
REMARK  status: ('A' for Active; 'I' for Inactive)
REMARK    1  A    between atoms: N_1  and  C_4
REMARK    2  A    between atoms: C_4  and  C_5
REMARK                            x       y       z     vdW  Elec       q    Type
REMARK                         _______ _______ _______ _____ _____    ______ ____
ROOT
ATOM      1  N   UNL     1      -7.237  -1.861   1.231  0.00  0.00    -0.354 N 
ATOM      2  N   UNL     1      -6.364   0.174   1.910  0.00  0.00    -0.372 N 
ATOM      3  N   UNL     1      -7.688  -1.006   3.366  0.00  0.00    -0.372 N 
ATOM      4  C   UNL     1      -7.104  -0.912   2.167  0.00  0.00    +0.166 C 
ATOM      5  H   UNL     1      -6.793  -1.716   0.331  0.00  0.00    +0.163 HD
ATOM      6  H   UNL     1      -6.243   0.905   2.598  0.00  0.00    +0.159 HD
ATOM      7  H   UNL     1      -5.884   0.295   1.027  0.00  0.00    +0.159 HD
ATOM      8  H   UNL     1      -8.264  -1.797   3.620  0.00  0.00    +0.159 HD
ATOM      9  H   UNL     1      -7.588  -0.279   4.063  0.00  0.00    +0.159 HD
ENDROOT
BRANCH   1  10
ATOM     10  C   UNL     1      -7.976  -3.106   1.429  0.00  0.00    +0.151 C 
BRANCH  10  11
ATOM     11  C   UNL     1      -7.016  -4.262   1.370  0.00  0.00    -0.028 A 
ATOM     12  C   UNL     1      -6.416  -4.751   2.539  0.00  0.00    +0.005 A 
ATOM     13  C   UNL     1      -6.706  -4.877   0.147  0.00  0.00    +0.005 A 
ATOM     14  C   UNL     1      -5.547  -5.844   2.488  0.00  0.00    +0.000 A 
ATOM     15  C   UNL     1      -5.838  -5.968   0.100  0.00  0.00    +0.000 A 
ATOM     16  C   UNL     1      -5.261  -6.452   1.271  0.00  0.00    +0.000 A 
ENDBRANCH  10  11
ENDBRANCH   1  10
TORSDOF 2
ENDMDL
MODEL 3
REMARK VINA RESULT:    -5.308     23.899     24.744
REMARK INTER + INTRA:          -6.046
REMARK INTER:                  -5.937
REMARK INTRA:                  -0.108
REMARK UNBOUND:                -0.117
REMARK  Name = 1550473
REMARK  2 active torsions:
REMARK  status: ('A' for Active; 'I' for Inactive)
REMARK    1  A    between atoms: N_1  and  C_4
REMARK    2  A    between atoms: C_4  and  C_5
REMARK                            x       y       z     vdW  Elec       q    Type
REMARK                         _______ _______ _______ _____ _____    ______ ____
ROOT
ATOM      1  N   UNL     1      12.370  -4.516 -13.786  0.00  0.00    -0.354 N 
ATOM      2  N   UNL     1      13.956  -3.198 -12.731  0.00  0.00    -0.372 N 
ATOM      3  N   UNL     1      13.404  -5.224 -11.806  0.00  0.00    -0.372 N 
ATOM      4  C   UNL     1      13.233  -4.323 -12.779  0.00  0.00    +0.166 C 
ATOM      5  H   UNL     1      12.265  -3.781 -14.477  0.00  0.00    +0.163 HD
ATOM      6  H   UNL     1      14.617  -3.026 -11.986  0.00  0.00    +0.159 HD
ATOM      7  H   UNL     1      13.882  -2.486 -13.447  0.00  0.00    +0.159 HD
ATOM      8  H   UNL     1      12.885  -6.091 -11.781  0.00  0.00    +0.159 HD
ATOM      9  H   UNL     1      14.053  -5.065 -11.045  0.00  0.00    +0.159 HD
ENDROOT
BRANCH   1  10
ATOM     10  C   UNL     1      11.575  -5.730 -13.960  0.00  0.00    +0.151 C 
BRANCH  10  11
ATOM     11  C   UNL     1      10.441  -5.442 -14.906  0.00  0.00    -0.028 A 
ATOM     12  C   UNL     1       9.506  -4.439 -14.612  0.00  0.00    +0.005 A 
ATOM     13  C   UNL     1      10.299  -6.166 -16.099  0.00  0.00    +0.005 A 
ATOM     14  C   UNL     1       8.470  -4.151 -15.504  0.00  0.00    +0.000 A 
ATOM     15  C   UNL     1       9.263  -5.877 -16.987  0.00  0.00    +0.000 A 
ATOM     16  C   UNL     1       8.350  -4.867 -16.690  0.00  0.00    +0.000 A 
ENDBRANCH  10  11
ENDBRANCH   1  10
TORSDOF 2
ENDMDL
MODEL 4
REMARK VINA RESULT:    -5.236     24.643     26.371
REMARK INTER + INTRA:          -5.965
REMARK INTER:                  -5.840
REMARK INTRA:                  -0.125
REMARK UNBOUND:                -0.117
REMARK  Name = 1550473
REMARK  2 active torsions:
REMARK  status: ('A' for Active; 'I' for Inactive)
REMARK    1  A    between atoms: N_1  and  C_4
REMARK    2  A    between atoms: C_4  and  C_5
REMARK                            x       y       z     vdW  Elec       q    Type
REMARK                         _______ _______ _______ _____ _____    ______ ____
ROOT
ATOM      1  N   UNL     1      10.973  -7.564 -18.010  0.00  0.00    -0.354 N 
ATOM      2  N   UNL     1      11.433  -7.908 -20.254  0.00  0.00    -0.372 N 
ATOM      3  N   UNL     1      12.811  -6.535 -19.037  0.00  0.00    -0.372 N 
ATOM      4  C   UNL     1      11.738  -7.331 -19.085  0.00  0.00    +0.166 C 
ATOM      5  H   UNL     1      10.156  -8.154 -18.119  0.00  0.00    +0.163 HD
ATOM      6  H   UNL     1      11.993  -7.754 -21.081  0.00  0.00    +0.159 HD
ATOM      7  H   UNL     1      10.642  -8.533 -20.349  0.00  0.00    +0.159 HD
ATOM      8  H   UNL     1      13.092  -6.065 -18.187  0.00  0.00    +0.159 HD
ATOM      9  H   UNL     1      13.378  -6.359 -19.857  0.00  0.00    +0.159 HD
ENDROOT
BRANCH   1  10
ATOM     10  C   UNL     1      11.250  -7.028 -16.679  0.00  0.00    +0.151 C 
BRANCH  10  11
ATOM     11  C   UNL     1      10.141  -6.091 -16.286  0.00  0.00    -0.028 A 
ATOM     12  C   UNL     1      10.134  -5.487 -15.021  0.00  0.00    +0.005 A 
ATOM     13  C   UNL     1       9.097  -5.799 -17.178  0.00  0.00    +0.005 A 
ATOM     14  C   UNL     1       9.120  -4.593 -14.667  0.00  0.00    +0.000 A 
ATOM     15  C   UNL     1       8.086  -4.907 -16.820  0.00  0.00    +0.000 A 
ATOM     16  C   UNL     1       8.099  -4.302 -15.566  0.00  0.00    +0.000 A 
ENDBRANCH  10  11
ENDBRANCH   1  10
TORSDOF 2
ENDMDL
MODEL 5
REMARK VINA RESULT:    -5.110     18.090     18.810
REMARK INTER + INTRA:          -5.824
REMARK INTER:                  -5.668
REMARK INTRA:                  -0.156
REMARK UNBOUND:                -0.117
REMARK  Name = 1550473
REMARK  2 active torsions:
REMARK  status: ('A' for Active; 'I' for Inactive)
REMARK    1  A    between atoms: N_1  and  C_4
REMARK    2  A    between atoms: C_4  and  C_5
REMARK                            x       y       z     vdW  Elec       q    Type
REMARK                         _______ _______ _______ _____ _____    ______ ____
ROOT
ATOM      1  N   UNL     1       4.797 -18.156  -2.029  0.00  0.00    -0.354 N 
ATOM      2  N   UNL     1       3.165 -18.678  -0.470  0.00  0.00    -0.372 N 
ATOM      3  N   UNL     1       2.687 -17.138  -2.103  0.00  0.00    -0.372 N 
ATOM      4  C   UNL     1       3.559 -17.985  -1.546  0.00  0.00    +0.166 C 
ATOM      5  H   UNL     1       5.420 -18.791  -1.544  0.00  0.00    +0.163 HD
ATOM      6  H   UNL     1       2.236 -18.573  -0.085  0.00  0.00    +0.159 HD
ATOM      7  H   UNL     1       3.775 -19.346  -0.014  0.00  0.00    +0.159 HD
ATOM      8  H   UNL     1       2.924 -16.581  -2.913  0.00  0.00    +0.159 HD
ATOM      9  H   UNL     1       1.757 -17.010  -1.724  0.00  0.00    +0.159 HD
ENDROOT
BRANCH   1  10
ATOM     10  C   UNL     1       5.306 -17.490  -3.227  0.00  0.00    +0.151 C 
BRANCH  10  11
ATOM     11  C   UNL     1       6.207 -16.359  -2.815  0.00  0.00    -0.028 A 
ATOM     12  C   UNL     1       6.358 -15.233  -3.637  0.00  0.00    +0.005 A 
ATOM     13  C   UNL     1       6.909 -16.406  -1.600  0.00  0.00    +0.005 A 
ATOM     14  C   UNL     1       7.172 -14.169  -3.240  0.00  0.00    +0.000 A 
ATOM     15  C   UNL     1       7.722 -15.342  -1.209  0.00  0.00    +0.000 A 
ATOM     16  C   UNL     1       7.851 -14.223  -2.027  0.00  0.00    +0.000 A 
ENDBRANCH  10  11
ENDBRANCH   1  10
TORSDOF 2
ENDMDL
MODEL 6
REMARK VINA RESULT:    -5.095     18.041     19.603
REMARK INTER + INTRA:          -5.808
REMARK INTER:                  -5.683
REMARK INTRA:                  -0.125
REMARK UNBOUND:                -0.117
REMARK  Name = 1550473
REMARK  2 active torsions:
REMARK  status: ('A' for Active; 'I' for Inactive)
REMARK    1  A    between atoms: N_1  and  C_4
REMARK    2  A    between atoms: C_4  and  C_5
REMARK                            x       y       z     vdW  Elec       q    Type
REMARK                         _______ _______ _______ _____ _____    ______ ____
ROOT
ATOM      1  N   UNL     1     -13.852  10.877  14.446  0.00  0.00    -0.354 N 
ATOM      2  N   UNL     1     -12.210  11.071  16.067  0.00  0.00    -0.372 N 
ATOM      3  N   UNL     1     -14.237  12.087  16.415  0.00  0.00    -0.372 N 
ATOM      4  C   UNL     1     -13.446  11.346  15.633  0.00  0.00    +0.166 C 
ATOM      5  H   UNL     1     -13.194  10.346  13.887  0.00  0.00    +0.163 HD
ATOM      6  H   UNL     1     -11.876  11.407  16.960  0.00  0.00    +0.159 HD
ATOM      7  H   UNL     1     -11.570  10.501  15.527  0.00  0.00    +0.159 HD
ATOM      8  H   UNL     1     -15.179  12.335  16.143  0.00  0.00    +0.159 HD
ATOM      9  H   UNL     1     -13.917  12.443  17.308  0.00  0.00    +0.159 HD
ENDROOT
BRANCH   1  10
ATOM     10  C   UNL     1     -15.196  11.074  13.906  0.00  0.00    +0.151 C 
BRANCH  10  11
ATOM     11  C   UNL     1     -15.203  10.689  12.452  0.00  0.00    -0.028 A 
ATOM     12  C   UNL     1     -14.049  10.169  11.848  0.00  0.00    +0.005 A 
ATOM     13  C   UNL     1     -16.361  10.838  11.674  0.00  0.00    +0.005 A 
ATOM     14  C   UNL     1     -14.063   9.783  10.506  0.00  0.00    +0.000 A 
ATOM     15  C   UNL     1     -16.371  10.452  10.334  0.00  0.00    +0.000 A 
ATOM     16  C   UNL     1     -15.223   9.923   9.751  0.00  0.00    +0.000 A 
ENDBRANCH  10  11
ENDBRANCH   1  10
TORSDOF 2
ENDMDL
MODEL 7
REMARK VINA RESULT:    -4.963      9.406     10.342
REMARK INTER + INTRA:          -5.660
REMARK INTER:                  -5.482
REMARK INTRA:                  -0.179
REMARK UNBOUND:                -0.117
REMARK  Name = 1550473
REMARK  2 active torsions:
REMARK  status: ('A' for Active; 'I' for Inactive)
REMARK    1  A    between atoms: N_1  and  C_4
REMARK    2  A    between atoms: C_4  and  C_5
REMARK                            x       y       z     vdW  Elec       q    Type
REMARK                         _______ _______ _______ _____ _____    ______ ____
ROOT
ATOM      1  N   UNL     1     -10.894 -11.215   1.378  0.00  0.00    -0.354 N 
ATOM      2  N   UNL     1     -13.180 -10.846   1.417  0.00  0.00    -0.372 N 
ATOM      3  N   UNL     1     -12.361 -12.606   0.193  0.00  0.00    -0.372 N 
ATOM      4  C   UNL     1     -12.130 -11.560   0.994  0.00  0.00    +0.166 C 
ATOM      5  H   UNL     1     -10.783 -10.393   1.961  0.00  0.00    +0.163 HD
ATOM      6  H   UNL     1     -14.125 -11.084   1.146  0.00  0.00    +0.159 HD
ATOM      7  H   UNL     1     -13.070 -10.053   2.037  0.00  0.00    +0.159 HD
ATOM      8  H   UNL     1     -11.611 -13.182  -0.166  0.00  0.00    +0.159 HD
ATOM      9  H   UNL     1     -13.299 -12.853  -0.098  0.00  0.00    +0.159 HD
ENDROOT
BRANCH   1  10
ATOM     10  C   UNL     1      -9.688 -11.958   1.017  0.00  0.00    +0.151 C 
BRANCH  10  11
ATOM     11  C   UNL     1      -9.238 -12.769   2.201  0.00  0.00    -0.028 A 
ATOM     12  C   UNL     1      -8.723 -12.137   3.342  0.00  0.00    +0.005 A 
ATOM     13  C   UNL     1      -9.330 -14.169   2.190  0.00  0.00    +0.005 A 
ATOM     14  C   UNL     1      -8.332 -12.888   4.454  0.00  0.00    +0.000 A 
ATOM     15  C   UNL     1      -8.938 -14.915   3.301  0.00  0.00    +0.000 A 
ATOM     16  C   UNL     1      -8.442 -14.274   4.434  0.00  0.00    +0.000 A 
ENDBRANCH  10  11
ENDBRANCH   1  10
TORSDOF 2
ENDMDL
MODEL 8
REMARK VINA RESULT:    -4.877     26.015     27.006
REMARK INTER + INTRA:          -5.564
REMARK INTER:                  -5.424
REMARK INTRA:                  -0.140
REMARK UNBOUND:                -0.117
REMARK  Name = 1550473
REMARK  2 active torsions:
REMARK  status: ('A' for Active; 'I' for Inactive)
REMARK    1  A    between atoms: N_1  and  C_4
REMARK    2  A    between atoms: C_4  and  C_5
REMARK                            x       y       z     vdW  Elec       q    Type
REMARK                         _______ _______ _______ _____ _____    ______ ____
ROOT
ATOM      1  N   UNL     1     -11.123  -2.470 -24.930  0.00  0.00    -0.354 N 
ATOM      2  N   UNL     1     -11.562  -0.240 -25.373  0.00  0.00    -0.372 N 
ATOM      3  N   UNL     1     -10.541  -1.511 -26.988  0.00  0.00    -0.372 N 
ATOM      4  C   UNL     1     -11.071  -1.423 -25.763  0.00  0.00    +0.166 C 
ATOM      5  H   UNL     1     -11.510  -2.330 -24.004  0.00  0.00    +0.163 HD
ATOM      6  H   UNL     1     -11.540   0.568 -25.981  0.00  0.00    +0.159 HD
ATOM      7  H   UNL     1     -11.989  -0.114 -24.464  0.00  0.00    +0.159 HD
ATOM      8  H   UNL     1     -10.149  -2.374 -27.340  0.00  0.00    +0.159 HD
ATOM      9  H   UNL     1     -10.500  -0.711 -27.607  0.00  0.00    +0.159 HD
ENDROOT
BRANCH   1  10
ATOM     10  C   UNL     1     -10.665  -3.815 -25.278  0.00  0.00    +0.151 C 
BRANCH  10  11
ATOM     11  C   UNL     1      -9.799  -4.341 -24.167  0.00  0.00    -0.028 A 
ATOM     12  C   UNL     1      -9.528  -5.713 -24.065  0.00  0.00    +0.005 A 
ATOM     13  C   UNL     1      -9.241  -3.471 -23.217  0.00  0.00    +0.005 A 
ATOM     14  C   UNL     1      -8.698  -6.199 -23.051  0.00  0.00    +0.000 A 
ATOM     15  C   UNL     1      -8.414  -3.961 -22.206  0.00  0.00    +0.000 A 
ATOM     16  C   UNL     1      -8.141  -5.324 -22.125  0.00  0.00    +0.000 A 
ENDBRANCH  10  11
ENDBRANCH   1  10
TORSDOF 2
ENDMDL
MODEL 9
REMARK VINA RESULT:    -4.825     19.808     21.572
REMARK INTER + INTRA:          -5.506
REMARK INTER:                  -5.366
REMARK INTRA:                  -0.140
REMARK UNBOUND:                -0.117
REMARK  Name = 1550473
REMARK  2 active torsions:
REMARK  status: ('A' for Active; 'I' for Inactive)
REMARK    1  A    between atoms: N_1  and  C_4
REMARK    2  A    between atoms: C_4  and  C_5
REMARK                            x       y       z     vdW  Elec       q    Type
REMARK                         _______ _______ _______ _____ _____    ______ ____
ROOT
ATOM      1  N   UNL     1       9.174 -15.933  -6.838  0.00  0.00    -0.354 N 
ATOM      2  N   UNL     1      10.569 -17.236  -8.150  0.00  0.00    -0.372 N 
ATOM      3  N   UNL     1       8.385 -17.883  -7.872  0.00  0.00    -0.372 N 
ATOM      4  C   UNL     1       9.365 -17.011  -7.611  0.00  0.00    +0.166 C 
ATOM      5  H   UNL     1       9.965 -15.327  -6.654  0.00  0.00    +0.163 HD
ATOM      6  H   UNL     1      10.742 -18.038  -8.741  0.00  0.00    +0.159 HD
ATOM      7  H   UNL     1      11.346 -16.603  -8.002  0.00  0.00    +0.159 HD
ATOM      8  H   UNL     1       7.455 -17.773  -7.491  0.00  0.00    +0.159 HD
ATOM      9  H   UNL     1       8.542 -18.698  -8.451  0.00  0.00    +0.159 HD
ENDROOT
BRANCH   1  10
ATOM     10  C   UNL     1       7.888 -15.568  -6.247  0.00  0.00    +0.151 C 
BRANCH  10  11
ATOM     11  C   UNL     1       8.086 -15.265  -4.787  0.00  0.00    -0.028 A 
ATOM     12  C   UNL     1       7.181 -14.441  -4.102  0.00  0.00    +0.005 A 
ATOM     13  C   UNL     1       9.173 -15.804  -4.082  0.00  0.00    +0.005 A 
ATOM     14  C   UNL     1       7.348 -14.184  -2.739  0.00  0.00    +0.000 A 
ATOM     15  C   UNL     1       9.337 -15.544  -2.722  0.00  0.00    +0.000 A 
ATOM     16  C   UNL     1       8.423 -14.736  -2.050  0.00  0.00    +0.000 A 
ENDBRANCH  10  11
ENDBRANCH   1  10
TORSDOF 2
ENDMDL
