MODEL 1
REMARK VINA RESULT:    -5.841      0.000      0.000
REMARK INTER + INTRA:          -6.676
REMARK INTER:                  -6.524
REMARK INTRA:                  -0.152
REMARK UNBOUND:                -0.152
REMARK  Name = 1550473
REMARK  2 active torsions:
REMARK  status: ('A' for Active; 'I' for Inactive)
REMARK    1  A    between atoms: N_1  and  C_4
REMARK    2  A    between atoms: C_4  and  C_5
REMARK                            x       y       z     vdW  Elec       q    Type
REMARK                         _______ _______ _______ _____ _____    ______ ____
ROOT
ATOM      1  N   UNL     1       4.939   8.896  15.626  0.00  0.00    -0.354 N 
ATOM      2  N   UNL     1       2.924   7.959  16.276  0.00  0.00    -0.372 N 
ATOM      3  N   UNL     1       3.864   7.300  14.290  0.00  0.00    -0.372 N 
ATOM      4  C   UNL     1       3.922   8.057  15.391  0.00  0.00    +0.166 C 
ATOM      5  H   UNL     1       4.909   9.465  16.465  0.00  0.00    +0.163 HD
ATOM      6  H   UNL     1       2.145   7.331  16.128  0.00  0.00    +0.159 HD
ATOM      7  H   UNL     1       2.919   8.494  17.136  0.00  0.00    +0.159 HD
ATOM      8  H   UNL     1       4.583   7.331  13.580  0.00  0.00    +0.159 HD
ATOM      9  H   UNL     1       3.087   6.674  14.117  0.00  0.00    +0.159 HD
ENDROOT
BRANCH   1  10
ATOM     10  C   UNL     1       6.102   9.038  14.752  0.00  0.00    +0.151 C 
BRANCH  10  11
ATOM     11  C   UNL     1       7.316   8.498  15.457  0.00  0.00    -0.028 A 
ATOM     12  C   UNL     1       8.189   7.620  14.799  0.00  0.00    +0.005 A 
ATOM     13  C   UNL     1       7.601   8.866  16.781  0.00  0.00    +0.005 A 
ATOM     14  C   UNL     1       9.333   7.142  15.444  0.00  0.00    +0.000 A 
ATOM     15  C   UNL     1       8.743   8.386  17.421  0.00  0.00    +0.000 A 
ATOM     16  C   UNL     1       9.610   7.526  16.752  0.00  0.00    +0.000 A 
ENDBRANCH  10  11
ENDBRANCH   1  10
TORSDOF 2
ENDMDL
MODEL 2
REMARK VINA RESULT:    -5.563      3.087      4.195
REMARK INTER + INTRA:          -6.366
REMARK INTER:                  -6.261
REMARK INTRA:                  -0.104
REMARK UNBOUND:                -0.152
REMARK  Name = 1550473
REMARK  2 active torsions:
REMARK  status: ('A' for Active; 'I' for Inactive)
REMARK    1  A    between atoms: N_1  and  C_4
REMARK    2  A    between atoms: C_4  and  C_5
REMARK                            x       y       z     vdW  Elec       q    Type
REMARK                         _______ _______ _______ _____ _____    ______ ____
ROOT
ATOM      1  N   UNL     1       7.936   9.064  13.233  0.00  0.00    -0.354 N 
ATOM      2  N   UNL     1       9.131  10.529  11.894  0.00  0.00    -0.372 N 
ATOM      3  N   UNL     1       6.839  10.641  11.891  0.00  0.00    -0.372 N 
ATOM      4  C   UNL     1       7.958  10.069  12.347  0.00  0.00    +0.166 C 
ATOM      5  H   UNL     1       8.818   8.653  13.517  0.00  0.00    +0.163 HD
ATOM      6  H   UNL     1       9.179  11.289  11.229  0.00  0.00    +0.159 HD
ATOM      7  H   UNL     1      10.012  10.147  12.215  0.00  0.00    +0.159 HD
ATOM      8  H   UNL     1       5.922  10.337  12.189  0.00  0.00    +0.159 HD
ATOM      9  H   UNL     1       6.866  11.395  11.215  0.00  0.00    +0.159 HD
ENDROOT
BRANCH   1  10
ATOM     10  C   UNL     1       6.715   8.526  13.829  0.00  0.00    +0.151 C 
BRANCH  10  11
ATOM     11  C   UNL     1       6.601   9.018  15.245  0.00  0.00    -0.028 A 
ATOM     12  C   UNL     1       7.664   9.707  15.847  0.00  0.00    +0.005 A 
ATOM     13  C   UNL     1       5.430   8.804  15.989  0.00  0.00    +0.005 A 
ATOM     14  C   UNL     1       7.548  10.191  17.152  0.00  0.00    +0.000 A 
ATOM     15  C   UNL     1       5.318   9.288  17.292  0.00  0.00    +0.000 A 
ATOM     16  C   UNL     1       6.376   9.983  17.873  0.00  0.00    +0.000 A 
ENDBRANCH  10  11
ENDBRANCH   1  10
TORSDOF 2
ENDMDL
MODEL 3
REMARK VINA RESULT:    -5.538      2.960      4.569
REMARK INTER + INTRA:          -6.338
REMARK INTER:                  -6.203
REMARK INTRA:                  -0.134
REMARK UNBOUND:                -0.152
REMARK  Name = 1550473
REMARK  2 active torsions:
REMARK  status: ('A' for Active; 'I' for Inactive)
REMARK    1  A    between atoms: N_1  and  C_4
REMARK    2  A    between atoms: C_4  and  C_5
REMARK                            x       y       z     vdW  Elec       q    Type
REMARK                         _______ _______ _______ _____ _____    ______ ____
ROOT
ATOM      1  N   UNL     1       8.114   9.025  13.715  0.00  0.00    -0.354 N 
ATOM      2  N   UNL     1       8.524   9.976  11.644  0.00  0.00    -0.372 N 
ATOM      3  N   UNL     1       8.312  11.347  13.472  0.00  0.00    -0.372 N 
ATOM      4  C   UNL     1       8.314  10.112  12.959  0.00  0.00    +0.166 C 
ATOM      5  H   UNL     1       8.097   8.119  13.261  0.00  0.00    +0.163 HD
ATOM      6  H   UNL     1       8.681  10.778  11.048  0.00  0.00    +0.159 HD
ATOM      7  H   UNL     1       8.552   9.066  11.200  0.00  0.00    +0.159 HD
ATOM      8  H   UNL     1       8.154  11.518  14.456  0.00  0.00    +0.159 HD
ATOM      9  H   UNL     1       8.456  12.163  12.890  0.00  0.00    +0.159 HD
ENDROOT
BRANCH   1  10
ATOM     10  C   UNL     1       7.929   9.060  15.165  0.00  0.00    +0.151 C 
BRANCH  10  11
ATOM     11  C   UNL     1       6.482   8.799  15.482  0.00  0.00    -0.028 A 
ATOM     12  C   UNL     1       5.629   8.251  14.514  0.00  0.00    +0.005 A 
ATOM     13  C   UNL     1       5.961   9.092  16.752  0.00  0.00    +0.005 A 
ATOM     14  C   UNL     1       4.292   7.981  14.817  0.00  0.00    +0.000 A 
ATOM     15  C   UNL     1       4.625   8.822  17.050  0.00  0.00    +0.000 A 
ATOM     16  C   UNL     1       3.792   8.264  16.084  0.00  0.00    +0.000 A 
ENDBRANCH  10  11
ENDBRANCH   1  10
TORSDOF 2
ENDMDL
MODEL 4
REMARK VINA RESULT:    -5.479      2.767      4.144
REMARK INTER + INTRA:          -6.272
REMARK INTER:                  -6.211
REMARK INTRA:                  -0.061
REMARK UNBOUND:                -0.152
REMARK  Name = 1550473
REMARK  2 active torsions:
REMARK  status: ('A' for Active; 'I' for Inactive)
REMARK    1  A    between atoms: N_1  and  C_4
REMARK    2  A    between atoms: C_4  and  C_5
REMARK                            x       y       z     vdW  Elec       q    Type
REMARK                         _______ _______ _______ _____ _____    ______ ____
ROOT
ATOM      1  N   UNL     1       6.673   8.484  15.197  0.00  0.00    -0.354 N 
ATOM      2  N   UNL     1       8.238   9.162  13.630  0.00  0.00    -0.372 N 
ATOM      3  N   UNL     1       6.120  10.041  13.535  0.00  0.00    -0.372 N 
ATOM      4  C   UNL     1       6.998   9.226  14.130  0.00  0.00    +0.166 C 
ATOM      5  H   UNL     1       7.375   7.863  15.583  0.00  0.00    +0.163 HD
ATOM      6  H   UNL     1       8.513   9.713  12.828  0.00  0.00    +0.159 HD
ATOM      7  H   UNL     1       8.951   8.576  14.047  0.00  0.00    +0.159 HD
ATOM      8  H   UNL     1       5.167  10.130  13.859  0.00  0.00    +0.159 HD
ATOM      9  H   UNL     1       6.374  10.591  12.724  0.00  0.00    +0.159 HD
ENDROOT
BRANCH   1  10
ATOM     10  C   UNL     1       5.366   8.520  15.850  0.00  0.00    +0.151 C 
BRANCH  10  11
ATOM     11  C   UNL     1       5.478   9.304  17.129  0.00  0.00    -0.028 A 
ATOM     12  C   UNL     1       6.683   9.931  17.476  0.00  0.00    +0.005 A 
ATOM     13  C   UNL     1       4.381   9.427  17.995  0.00  0.00    +0.005 A 
ATOM     14  C   UNL     1       6.779  10.684  18.649  0.00  0.00    +0.000 A 
ATOM     15  C   UNL     1       4.481  10.179  19.166  0.00  0.00    +0.000 A 
ATOM     16  C   UNL     1       5.679  10.809  19.491  0.00  0.00    +0.000 A 
ENDBRANCH  10  11
ENDBRANCH   1  10
TORSDOF 2
ENDMDL
MODEL 5
REMARK VINA RESULT:    -5.258      2.859      4.034
REMARK INTER + INTRA:          -6.026
REMARK INTER:                  -5.844
REMARK INTRA:                  -0.182
REMARK UNBOUND:                -0.152
REMARK  Name = 1550473
REMARK  2 active torsions:
REMARK  status: ('A' for Active; 'I' for Inactive)
REMARK    1  A    between atoms: N_1  and  C_4
REMARK    2  A    between atoms: C_4  and  C_5
REMARK                            x       y       z     vdW  Elec       q    Type
REMARK                         _______ _______ _______ _____ _____    ______ ____
ROOT
ATOM      1  N   UNL     1       6.008   8.116  13.896  0.00  0.00    -0.354 N 
ATOM      2  N   UNL     1       3.820   8.102  14.654  0.00  0.00    -0.372 N 
ATOM      3  N   UNL     1       5.483   8.784  16.080  0.00  0.00    -0.372 N 
ATOM      4  C   UNL     1       5.119   8.335  14.874  0.00  0.00    +0.166 C 
ATOM      5  H   UNL     1       5.671   7.747  13.014  0.00  0.00    +0.163 HD
ATOM      6  H   UNL     1       3.125   8.261  15.372  0.00  0.00    +0.159 HD
ATOM      7  H   UNL     1       3.481   7.776  13.757  0.00  0.00    +0.159 HD
ATOM      8  H   UNL     1       6.449   8.974  16.311  0.00  0.00    +0.159 HD
ATOM      9  H   UNL     1       4.805   8.938  16.815  0.00  0.00    +0.159 HD
ENDROOT
BRANCH   1  10
ATOM     10  C   UNL     1       7.439   8.390  14.015  0.00  0.00    +0.151 C 
BRANCH  10  11
ATOM     11  C   UNL     1       7.746   9.701  13.347  0.00  0.00    -0.028 A 
ATOM     12  C   UNL     1       8.224  10.787  14.095  0.00  0.00    +0.005 A 
ATOM     13  C   UNL     1       7.566   9.863  11.964  0.00  0.00    +0.005 A 
ATOM     14  C   UNL     1       8.537  11.996  13.470  0.00  0.00    +0.000 A 
ATOM     15  C   UNL     1       7.880  11.073  11.344  0.00  0.00    +0.000 A 
ATOM     16  C   UNL     1       8.368  12.138  12.097  0.00  0.00    +0.000 A 
ENDBRANCH  10  11
ENDBRANCH   1  10
TORSDOF 2
ENDMDL
MODEL 6
REMARK VINA RESULT:    -5.251      5.162      6.174
REMARK INTER + INTRA:          -6.017
REMARK INTER:                  -5.887
REMARK INTRA:                  -0.130
REMARK UNBOUND:                -0.152
REMARK  Name = 1550473
REMARK  2 active torsions:
REMARK  status: ('A' for Active; 'I' for Inactive)
REMARK    1  A    between atoms: N_1  and  C_4
REMARK    2  A    between atoms: C_4  and  C_5
REMARK                            x       y       z     vdW  Elec       q    Type
REMARK                         _______ _______ _______ _____ _____    ______ ____
ROOT
ATOM      1  N   UNL     1       3.934  11.043  21.596  0.00  0.00    -0.354 N 
ATOM      2  N   UNL     1       1.865  10.954  22.632  0.00  0.00    -0.372 N 
ATOM      3  N   UNL     1       2.564  12.940  21.719  0.00  0.00    -0.372 N 
ATOM      4  C   UNL     1       2.801  11.649  21.975  0.00  0.00    +0.166 C 
ATOM      5  H   UNL     1       4.067  10.070  21.847  0.00  0.00    +0.163 HD
ATOM      6  H   UNL     1       0.998  11.384  22.927  0.00  0.00    +0.159 HD
ATOM      7  H   UNL     1       1.980   9.970  22.841  0.00  0.00    +0.159 HD
ATOM      8  H   UNL     1       3.233  13.521  21.232  0.00  0.00    +0.159 HD
ATOM      9  H   UNL     1       1.708  13.391  22.017  0.00  0.00    +0.159 HD
ENDROOT
BRANCH   1  10
ATOM     10  C   UNL     1       4.994  11.696  20.829  0.00  0.00    +0.151 C 
BRANCH  10  11
ATOM     11  C   UNL     1       5.273  10.888  19.592  0.00  0.00    -0.028 A 
ATOM     12  C   UNL     1       4.267  10.102  19.012  0.00  0.00    +0.005 A 
ATOM     13  C   UNL     1       6.541  10.910  18.990  0.00  0.00    +0.005 A 
ATOM     14  C   UNL     1       4.517   9.375  17.846  0.00  0.00    +0.000 A 
ATOM     15  C   UNL     1       6.787  10.182  17.826  0.00  0.00    +0.000 A 
ATOM     16  C   UNL     1       5.774   9.417  17.253  0.00  0.00    +0.000 A 
ENDBRANCH  10  11
ENDBRANCH   1  10
TORSDOF 2
ENDMDL
MODEL 7
REMARK VINA RESULT:    -5.198      1.298      2.432
REMARK INTER + INTRA:          -5.958
REMARK INTER:                  -5.810
REMARK INTRA:                  -0.148
REMARK UNBOUND:                -0.152
REMARK  Name = 1550473
REMARK  2 active torsions:
REMARK  status: ('A' for Active; 'I' for Inactive)
REMARK    1  A    between atoms: N_1  and  C_4
REMARK    2  A    between atoms: C_4  and  C_5
REMARK                            x       y       z     vdW  Elec       q    Type
REMARK                         _______ _______ _______ _____ _____    ______ ____
ROOT
ATOM      1  N   UNL     1       6.374   8.530  15.782  0.00  0.00    -0.354 N 
ATOM      2  N   UNL     1       4.577   7.996  14.423  0.00  0.00    -0.372 N 
ATOM      3  N   UNL     1       6.073   9.583  13.710  0.00  0.00    -0.372 N 
ATOM      4  C   UNL     1       5.688   8.708  14.645  0.00  0.00    +0.166 C 
ATOM      5  H   UNL     1       6.013   7.874  16.464  0.00  0.00    +0.163 HD
ATOM      6  H   UNL     1       4.040   8.106  13.573  0.00  0.00    +0.159 HD
ATOM      7  H   UNL     1       4.243   7.307  15.086  0.00  0.00    +0.159 HD
ATOM      8  H   UNL     1       6.899  10.156  13.820  0.00  0.00    +0.159 HD
ATOM      9  H   UNL     1       5.542   9.716  12.858  0.00  0.00    +0.159 HD
ENDROOT
BRANCH   1  10
ATOM     10  C   UNL     1       7.626   9.217  16.097  0.00  0.00    +0.151 C 
BRANCH  10  11
ATOM     11  C   UNL     1       8.685   8.193  16.399  0.00  0.00    -0.028 A 
ATOM     12  C   UNL     1       9.269   8.127  17.673  0.00  0.00    +0.005 A 
ATOM     13  C   UNL     1       9.106   7.283  15.417  0.00  0.00    +0.005 A 
ATOM     14  C   UNL     1      10.232   7.157  17.962  0.00  0.00    +0.000 A 
ATOM     15  C   UNL     1      10.068   6.317  15.710  0.00  0.00    +0.000 A 
ATOM     16  C   UNL     1      10.629   6.252  16.983  0.00  0.00    +0.000 A 
ENDBRANCH  10  11
ENDBRANCH   1  10
TORSDOF 2
ENDMDL
MODEL 8
REMARK VINA RESULT:    -5.131      3.665      4.922
REMARK INTER + INTRA:          -5.883
REMARK INTER:                  -5.713
REMARK INTRA:                  -0.170
REMARK UNBOUND:                -0.152
REMARK  Name = 1550473
REMARK  2 active torsions:
REMARK  status: ('A' for Active; 'I' for Inactive)
REMARK    1  A    between atoms: N_1  and  C_4
REMARK    2  A    between atoms: C_4  and  C_5
REMARK                            x       y       z     vdW  Elec       q    Type
REMARK                         _______ _______ _______ _____ _____    ______ ____
ROOT
ATOM      1  N   UNL     1       8.191   7.756  13.987  0.00  0.00    -0.354 N 
ATOM      2  N   UNL     1       9.766   6.543  15.176  0.00  0.00    -0.372 N 
ATOM      3  N   UNL     1       8.447   8.048  16.298  0.00  0.00    -0.372 N 
ATOM      4  C   UNL     1       8.790   7.459  15.148  0.00  0.00    +0.166 C 
ATOM      5  H   UNL     1       8.518   7.296  13.145  0.00  0.00    +0.163 HD
ATOM      6  H   UNL     1      10.234   6.296  16.037  0.00  0.00    +0.159 HD
ATOM      7  H   UNL     1      10.060   6.052  14.340  0.00  0.00    +0.159 HD
ATOM      8  H   UNL     1       7.722   8.752  16.344  0.00  0.00    +0.159 HD
ATOM      9  H   UNL     1       8.912   7.823  17.169  0.00  0.00    +0.159 HD
ENDROOT
BRANCH   1  10
ATOM     10  C   UNL     1       7.081   8.698  13.857  0.00  0.00    +0.151 C 
BRANCH  10  11
ATOM     11  C   UNL     1       7.584   9.964  13.220  0.00  0.00    -0.028 A 
ATOM     12  C   UNL     1       7.427  10.179  11.843  0.00  0.00    +0.005 A 
ATOM     13  C   UNL     1       8.213  10.956  13.989  0.00  0.00    +0.005 A 
ATOM     14  C   UNL     1       7.867  11.368  11.256  0.00  0.00    +0.000 A 
ATOM     15  C   UNL     1       8.652  12.141  13.399  0.00  0.00    +0.000 A 
ATOM     16  C   UNL     1       8.476  12.348  12.033  0.00  0.00    +0.000 A 
ENDBRANCH  10  11
ENDBRANCH   1  10
TORSDOF 2
ENDMDL
MODEL 9
REMARK VINA RESULT:    -4.823      3.220      4.097
REMARK INTER + INTRA:          -5.540
REMARK INTER:                  -5.436
REMARK INTRA:                  -0.103
REMARK UNBOUND:                -0.152
REMARK  Name = 1550473
REMARK  2 active torsions:
REMARK  status: ('A' for Active; 'I' for Inactive)
REMARK    1  A    between atoms: N_1  and  C_4
REMARK    2  A    between atoms: C_4  and  C_5
REMARK                            x       y       z     vdW  Elec       q    Type
REMARK                         _______ _______ _______ _____ _____    ______ ____
ROOT
ATOM      1  N   UNL     1       8.087  10.377  13.163  0.00  0.00    -0.354 N 
ATOM      2  N   UNL     1       8.328  12.185  11.736  0.00  0.00    -0.372 N 
ATOM      3  N   UNL     1       7.495  10.217  10.901  0.00  0.00    -0.372 N 
ATOM      4  C   UNL     1       7.968  10.913  11.941  0.00  0.00    +0.166 C 
ATOM      5  H   UNL     1       8.480  10.948  13.902  0.00  0.00    +0.163 HD
ATOM      6  H   UNL     1       8.247  12.618  10.825  0.00  0.00    +0.159 HD
ATOM      7  H   UNL     1       8.679  12.768  12.487  0.00  0.00    +0.159 HD
ATOM      8  H   UNL     1       7.211   9.251  10.989  0.00  0.00    +0.159 HD
ATOM      9  H   UNL     1       7.417  10.629   9.980  0.00  0.00    +0.159 HD
ENDROOT
BRANCH   1  10
ATOM     10  C   UNL     1       7.672   9.018  13.504  0.00  0.00    +0.151 C 
BRANCH  10  11
ATOM     11  C   UNL     1       8.127   8.702  14.902  0.00  0.00    -0.028 A 
ATOM     12  C   UNL     1       7.826   9.569  15.962  0.00  0.00    +0.005 A 
ATOM     13  C   UNL     1       8.854   7.533  15.174  0.00  0.00    +0.005 A 
ATOM     14  C   UNL     1       8.223   9.261  17.266  0.00  0.00    +0.000 A 
ATOM     15  C   UNL     1       9.249   7.229  16.477  0.00  0.00    +0.000 A 
ATOM     16  C   UNL     1       8.931   8.092  17.523  0.00  0.00    +0.000 A 
ENDBRANCH  10  11
ENDBRANCH   1  10
TORSDOF 2
ENDMDL
