MODEL 1
REMARK VINA RESULT:    -5.156      0.000      0.000
REMARK INTER + INTRA:          -5.882
REMARK INTER:                  -5.759
REMARK INTRA:                  -0.123
REMARK UNBOUND:                -0.123
REMARK  Name = 1550473
REMARK  2 active torsions:
REMARK  status: ('A' for Active; 'I' for Inactive)
REMARK    1  A    between atoms: N_1  and  C_4
REMARK    2  A    between atoms: C_4  and  C_5
REMARK                            x       y       z     vdW  Elec       q    Type
REMARK                         _______ _______ _______ _____ _____    ______ ____
ROOT
ATOM      1  N   UNL     1      14.472   9.299  -1.397  0.00  0.00    -0.354 N 
ATOM      2  N   UNL     1      15.282  10.422  -3.253  0.00  0.00    -0.372 N 
ATOM      3  N   UNL     1      13.020  10.088  -3.059  0.00  0.00    -0.372 N 
ATOM      4  C   UNL     1      14.250   9.929  -2.558  0.00  0.00    +0.166 C 
ATOM      5  H   UNL     1      15.430   9.184  -1.087  0.00  0.00    +0.163 HD
ATOM      6  H   UNL     1      15.145  10.906  -4.131  0.00  0.00    +0.159 HD
ATOM      7  H   UNL     1      16.235  10.347  -2.919  0.00  0.00    +0.159 HD
ATOM      8  H   UNL     1      12.200   9.734  -2.586  0.00  0.00    +0.159 HD
ATOM      9  H   UNL     1      12.864  10.559  -3.941  0.00  0.00    +0.159 HD
ENDROOT
BRANCH   1  10
ATOM     10  C   UNL     1      13.413   8.772  -0.537  0.00  0.00    +0.151 C 
BRANCH  10  11
ATOM     11  C   UNL     1      14.028   7.891   0.515  0.00  0.00    -0.028 A 
ATOM     12  C   UNL     1      13.217   7.139   1.377  0.00  0.00    +0.005 A 
ATOM     13  C   UNL     1      15.422   7.801   0.652  0.00  0.00    +0.005 A 
ATOM     14  C   UNL     1      13.788   6.297   2.335  0.00  0.00    +0.000 A 
ATOM     15  C   UNL     1      15.988   6.960   1.610  0.00  0.00    +0.000 A 
ATOM     16  C   UNL     1      15.171   6.207   2.450  0.00  0.00    +0.000 A 
ENDBRANCH  10  11
ENDBRANCH   1  10
TORSDOF 2
ENDMDL
MODEL 2
REMARK VINA RESULT:    -5.020      1.665      1.933
REMARK INTER + INTRA:          -5.730
REMARK INTER:                  -5.547
REMARK INTRA:                  -0.183
REMARK UNBOUND:                -0.123
REMARK  Name = 1550473
REMARK  2 active torsions:
REMARK  status: ('A' for Active; 'I' for Inactive)
REMARK    1  A    between atoms: N_1  and  C_4
REMARK    2  A    between atoms: C_4  and  C_5
REMARK                            x       y       z     vdW  Elec       q    Type
REMARK                         _______ _______ _______ _____ _____    ______ ____
ROOT
ATOM      1  N   UNL     1      14.381   8.549  -1.163  0.00  0.00    -0.354 N 
ATOM      2  N   UNL     1      16.391   8.665  -2.308  0.00  0.00    -0.372 N 
ATOM      3  N   UNL     1      15.812  10.387  -0.906  0.00  0.00    -0.372 N 
ATOM      4  C   UNL     1      15.515   9.202  -1.451  0.00  0.00    +0.166 C 
ATOM      5  H   UNL     1      14.200   7.669  -1.633  0.00  0.00    +0.163 HD
ATOM      6  H   UNL     1      17.257   9.133  -2.542  0.00  0.00    +0.159 HD
ATOM      7  H   UNL     1      16.229   7.763  -2.741  0.00  0.00    +0.159 HD
ATOM      8  H   UNL     1      15.191  10.849  -0.256  0.00  0.00    +0.159 HD
ATOM      9  H   UNL     1      16.668  10.876  -1.137  0.00  0.00    +0.159 HD
ENDROOT
BRANCH   1  10
ATOM     10  C   UNL     1      13.386   9.022  -0.202  0.00  0.00    +0.151 C 
BRANCH  10  11
ATOM     11  C   UNL     1      13.593   8.312   1.107  0.00  0.00    -0.028 A 
ATOM     12  C   UNL     1      13.466   6.917   1.189  0.00  0.00    +0.005 A 
ATOM     13  C   UNL     1      13.921   9.027   2.269  0.00  0.00    +0.005 A 
ATOM     14  C   UNL     1      13.686   6.254   2.398  0.00  0.00    +0.000 A 
ATOM     15  C   UNL     1      14.140   8.361   3.475  0.00  0.00    +0.000 A 
ATOM     16  C   UNL     1      14.025   6.974   3.539  0.00  0.00    +0.000 A 
ENDBRANCH  10  11
ENDBRANCH   1  10
TORSDOF 2
ENDMDL
MODEL 3
REMARK VINA RESULT:    -4.754      4.046      4.805
REMARK INTER + INTRA:          -5.433
REMARK INTER:                  -5.308
REMARK INTRA:                  -0.125
REMARK UNBOUND:                -0.123
REMARK  Name = 1550473
REMARK  2 active torsions:
REMARK  status: ('A' for Active; 'I' for Inactive)
REMARK    1  A    between atoms: N_1  and  C_4
REMARK    2  A    between atoms: C_4  and  C_5
REMARK                            x       y       z     vdW  Elec       q    Type
REMARK                         _______ _______ _______ _____ _____    ______ ____
ROOT
ATOM      1  N   UNL     1      12.308  11.012   2.924  0.00  0.00    -0.354 N 
ATOM      2  N   UNL     1      11.032  12.334   4.334  0.00  0.00    -0.372 N 
ATOM      3  N   UNL     1      13.314  12.580   4.346  0.00  0.00    -0.372 N 
ATOM      4  C   UNL     1      12.229  11.967   3.860  0.00  0.00    +0.166 C 
ATOM      5  H   UNL     1      11.450  10.565   2.619  0.00  0.00    +0.163 HD
ATOM      6  H   UNL     1      10.941  13.055   5.038  0.00  0.00    +0.159 HD
ATOM      7  H   UNL     1      10.174  11.918   3.994  0.00  0.00    +0.159 HD
ATOM      8  H   UNL     1      14.246  12.344   4.034  0.00  0.00    +0.159 HD
ATOM      9  H   UNL     1      13.244  13.295   5.059  0.00  0.00    +0.159 HD
ENDROOT
BRANCH   1  10
ATOM     10  C   UNL     1      13.557  10.577   2.303  0.00  0.00    +0.151 C 
BRANCH  10  11
ATOM     11  C   UNL     1      13.614   9.074   2.313  0.00  0.00    -0.028 A 
ATOM     12  C   UNL     1      13.170   8.338   1.204  0.00  0.00    +0.005 A 
ATOM     13  C   UNL     1      14.115   8.380   3.425  0.00  0.00    +0.005 A 
ATOM     14  C   UNL     1      13.250   6.943   1.201  0.00  0.00    +0.000 A 
ATOM     15  C   UNL     1      14.192   6.988   3.418  0.00  0.00    +0.000 A 
ATOM     16  C   UNL     1      13.762   6.270   2.305  0.00  0.00    +0.000 A 
ENDBRANCH  10  11
ENDBRANCH   1  10
TORSDOF 2
ENDMDL
MODEL 4
REMARK VINA RESULT:    -4.733      2.894      4.015
REMARK INTER + INTRA:          -5.410
REMARK INTER:                  -5.253
REMARK INTRA:                  -0.157
REMARK UNBOUND:                -0.123
REMARK  Name = 1550473
REMARK  2 active torsions:
REMARK  status: ('A' for Active; 'I' for Inactive)
REMARK    1  A    between atoms: N_1  and  C_4
REMARK    2  A    between atoms: C_4  and  C_5
REMARK                            x       y       z     vdW  Elec       q    Type
REMARK                         _______ _______ _______ _____ _____    ______ ____
ROOT
ATOM      1  N   UNL     1      17.451   7.434  -0.695  0.00  0.00    -0.354 N 
ATOM      2  N   UNL     1      18.493   6.083  -2.262  0.00  0.00    -0.372 N 
ATOM      3  N   UNL     1      19.011   5.811  -0.044  0.00  0.00    -0.372 N 
ATOM      4  C   UNL     1      18.313   6.451  -0.988  0.00  0.00    +0.166 C 
ATOM      5  H   UNL     1      16.975   7.900  -1.459  0.00  0.00    +0.163 HD
ATOM      6  H   UNL     1      19.134   5.343  -2.513  0.00  0.00    +0.159 HD
ATOM      7  H   UNL     1      17.981   6.520  -3.020  0.00  0.00    +0.159 HD
ATOM      8  H   UNL     1      18.925   6.045   0.936  0.00  0.00    +0.159 HD
ATOM      9  H   UNL     1      19.666   5.075  -0.276  0.00  0.00    +0.159 HD
ENDROOT
BRANCH   1  10
ATOM     10  C   UNL     1      17.142   7.873   0.664  0.00  0.00    +0.151 C 
BRANCH  10  11
ATOM     11  C   UNL     1      15.730   7.480   0.999  0.00  0.00    -0.028 A 
ATOM     12  C   UNL     1      15.471   6.557   2.023  0.00  0.00    +0.005 A 
ATOM     13  C   UNL     1      14.645   8.030   0.299  0.00  0.00    +0.005 A 
ATOM     14  C   UNL     1      14.158   6.214   2.354  0.00  0.00    +0.000 A 
ATOM     15  C   UNL     1      13.335   7.684   0.632  0.00  0.00    +0.000 A 
ATOM     16  C   UNL     1      13.092   6.778   1.661  0.00  0.00    +0.000 A 
ENDBRANCH  10  11
ENDBRANCH   1  10
TORSDOF 2
ENDMDL
MODEL 5
REMARK VINA RESULT:    -4.434      8.616      9.142
REMARK INTER + INTRA:          -5.076
REMARK INTER:                  -4.947
REMARK INTRA:                  -0.129
REMARK UNBOUND:                -0.123
REMARK  Name = 1550473
REMARK  2 active torsions:
REMARK  status: ('A' for Active; 'I' for Inactive)
REMARK    1  A    between atoms: N_1  and  C_4
REMARK    2  A    between atoms: C_4  and  C_5
REMARK                            x       y       z     vdW  Elec       q    Type
REMARK                         _______ _______ _______ _____ _____    ______ ____
ROOT
ATOM      1  N   UNL     1       8.728  15.909   3.821  0.00  0.00    -0.354 N 
ATOM      2  N   UNL     1       6.622  16.850   3.616  0.00  0.00    -0.372 N 
ATOM      3  N   UNL     1       8.047  16.918   1.819  0.00  0.00    -0.372 N 
ATOM      4  C   UNL     1       7.814  16.553   3.084  0.00  0.00    +0.166 C 
ATOM      5  H   UNL     1       8.501  15.687   4.784  0.00  0.00    +0.163 HD
ATOM      6  H   UNL     1       5.911  17.333   3.083  0.00  0.00    +0.159 HD
ATOM      7  H   UNL     1       6.381  16.587   4.563  0.00  0.00    +0.159 HD
ATOM      8  H   UNL     1       8.929  16.729   1.361  0.00  0.00    +0.159 HD
ATOM      9  H   UNL     1       7.352  17.412   1.273  0.00  0.00    +0.159 HD
ENDROOT
BRANCH   1  10
ATOM     10  C   UNL     1      10.036  15.491   3.320  0.00  0.00    +0.151 C 
BRANCH  10  11
ATOM     11  C   UNL     1      10.474  14.256   4.057  0.00  0.00    -0.028 A 
ATOM     12  C   UNL     1       9.777  13.822   5.194  0.00  0.00    +0.005 A 
ATOM     13  C   UNL     1      11.581  13.513   3.621  0.00  0.00    +0.005 A 
ATOM     14  C   UNL     1      10.165  12.658   5.862  0.00  0.00    +0.000 A 
ATOM     15  C   UNL     1      11.966  12.351   4.291  0.00  0.00    +0.000 A 
ATOM     16  C   UNL     1      11.256  11.923   5.410  0.00  0.00    +0.000 A 
ENDBRANCH  10  11
ENDBRANCH   1  10
TORSDOF 2
ENDMDL
MODEL 6
REMARK VINA RESULT:    -4.368     11.859     12.577
REMARK INTER + INTRA:          -5.002
REMARK INTER:                  -4.853
REMARK INTRA:                  -0.149
REMARK UNBOUND:                -0.123
REMARK  Name = 1550473
REMARK  2 active torsions:
REMARK  status: ('A' for Active; 'I' for Inactive)
REMARK    1  A    between atoms: N_1  and  C_4
REMARK    2  A    between atoms: C_4  and  C_5
REMARK                            x       y       z     vdW  Elec       q    Type
REMARK                         _______ _______ _______ _____ _____    ______ ____
ROOT
ATOM      1  N   UNL     1       5.258   5.002  -7.386  0.00  0.00    -0.354 N 
ATOM      2  N   UNL     1       5.598   2.954  -6.359  0.00  0.00    -0.372 N 
ATOM      3  N   UNL     1       3.449   3.649  -6.763  0.00  0.00    -0.372 N 
ATOM      4  C   UNL     1       4.763   3.882  -6.843  0.00  0.00    +0.166 C 
ATOM      5  H   UNL     1       6.264   5.132  -7.389  0.00  0.00    +0.163 HD
ATOM      6  H   UNL     1       5.254   2.098  -5.946  0.00  0.00    +0.159 HD
ATOM      7  H   UNL     1       6.603   3.066  -6.404  0.00  0.00    +0.159 HD
ATOM      8  H   UNL     1       2.766   4.313  -7.105  0.00  0.00    +0.159 HD
ATOM      9  H   UNL     1       3.085   2.804  -6.343  0.00  0.00    +0.159 HD
ENDROOT
BRANCH   1  10
ATOM     10  C   UNL     1       4.437   6.050  -7.990  0.00  0.00    +0.151 C 
BRANCH  10  11
ATOM     11  C   UNL     1       4.385   7.230  -7.060  0.00  0.00    -0.028 A 
ATOM     12  C   UNL     1       3.580   7.197  -5.912  0.00  0.00    +0.005 A 
ATOM     13  C   UNL     1       5.143   8.383  -7.318  0.00  0.00    +0.005 A 
ATOM     14  C   UNL     1       3.554   8.281  -5.031  0.00  0.00    +0.000 A 
ATOM     15  C   UNL     1       5.114   9.464  -6.437  0.00  0.00    +0.000 A 
ATOM     16  C   UNL     1       4.321   9.412  -5.292  0.00  0.00    +0.000 A 
ENDBRANCH  10  11
ENDBRANCH   1  10
TORSDOF 2
ENDMDL
MODEL 7
REMARK VINA RESULT:    -4.234     18.302     19.273
REMARK INTER + INTRA:          -4.853
REMARK INTER:                  -4.738
REMARK INTRA:                  -0.115
REMARK UNBOUND:                -0.123
REMARK  Name = 1550473
REMARK  2 active torsions:
REMARK  status: ('A' for Active; 'I' for Inactive)
REMARK    1  A    between atoms: N_1  and  C_4
REMARK    2  A    between atoms: C_4  and  C_5
REMARK                            x       y       z     vdW  Elec       q    Type
REMARK                         _______ _______ _______ _____ _____    ______ ____
ROOT
ATOM      1  N   UNL     1       1.855  -4.834  -8.310  0.00  0.00    -0.354 N 
ATOM      2  N   UNL     1       2.440  -6.802  -9.381  0.00  0.00    -0.372 N 
ATOM      3  N   UNL     1       3.285  -6.384  -7.289  0.00  0.00    -0.372 N 
ATOM      4  C   UNL     1       2.524  -5.994  -8.317  0.00  0.00    +0.166 C 
ATOM      5  H   UNL     1       1.320  -4.582  -9.133  0.00  0.00    +0.163 HD
ATOM      6  H   UNL     1       2.931  -7.686  -9.414  0.00  0.00    +0.159 HD
ATOM      7  H   UNL     1       1.868  -6.569 -10.183  0.00  0.00    +0.159 HD
ATOM      8  H   UNL     1       3.395  -5.817  -6.459  0.00  0.00    +0.159 HD
ATOM      9  H   UNL     1       3.794  -7.259  -7.308  0.00  0.00    +0.159 HD
ENDROOT
BRANCH   1  10
ATOM     10  C   UNL     1       1.837  -3.907  -7.179  0.00  0.00    +0.151 C 
BRANCH  10  11
ATOM     11  C   UNL     1       1.707  -2.502  -7.698  0.00  0.00    -0.028 A 
ATOM     12  C   UNL     1       2.739  -1.922  -8.450  0.00  0.00    +0.005 A 
ATOM     13  C   UNL     1       0.551  -1.746  -7.446  0.00  0.00    +0.005 A 
ATOM     14  C   UNL     1       2.606  -0.627  -8.958  0.00  0.00    +0.000 A 
ATOM     15  C   UNL     1       0.423  -0.454  -7.954  0.00  0.00    +0.000 A 
ATOM     16  C   UNL     1       1.450   0.104  -8.712  0.00  0.00    +0.000 A 
ENDBRANCH  10  11
ENDBRANCH   1  10
TORSDOF 2
ENDMDL
MODEL 8
REMARK VINA RESULT:    -4.223     12.257     13.401
REMARK INTER + INTRA:          -4.840
REMARK INTER:                  -4.687
REMARK INTRA:                  -0.153
REMARK UNBOUND:                -0.123
REMARK  Name = 1550473
REMARK  2 active torsions:
REMARK  status: ('A' for Active; 'I' for Inactive)
REMARK    1  A    between atoms: N_1  and  C_4
REMARK    2  A    between atoms: C_4  and  C_5
REMARK                            x       y       z     vdW  Elec       q    Type
REMARK                         _______ _______ _______ _____ _____    ______ ____
ROOT
ATOM      1  N   UNL     1       4.938   5.160  -6.802  0.00  0.00    -0.354 N 
ATOM      2  N   UNL     1       5.580   3.016  -6.206  0.00  0.00    -0.372 N 
ATOM      3  N   UNL     1       3.933   3.282  -7.780  0.00  0.00    -0.372 N 
ATOM      4  C   UNL     1       4.811   3.833  -6.935  0.00  0.00    +0.166 C 
ATOM      5  H   UNL     1       5.601   5.514  -6.122  0.00  0.00    +0.163 HD
ATOM      6  H   UNL     1       5.509   2.010  -6.287  0.00  0.00    +0.159 HD
ATOM      7  H   UNL     1       6.274   3.373  -5.560  0.00  0.00    +0.159 HD
ATOM      8  H   UNL     1       3.318   3.844  -8.355  0.00  0.00    +0.159 HD
ATOM      9  H   UNL     1       3.838   2.278  -7.867  0.00  0.00    +0.159 HD
ENDROOT
BRANCH   1  10
ATOM     10  C   UNL     1       4.186   6.136  -7.587  0.00  0.00    +0.151 C 
BRANCH  10  11
ATOM     11  C   UNL     1       3.241   6.874  -6.680  0.00  0.00    -0.028 A 
ATOM     12  C   UNL     1       1.896   7.046  -7.040  0.00  0.00    +0.005 A 
ATOM     13  C   UNL     1       3.682   7.398  -5.455  0.00  0.00    +0.005 A 
ATOM     14  C   UNL     1       1.011   7.705  -6.184  0.00  0.00    +0.000 A 
ATOM     15  C   UNL     1       2.795   8.056  -4.603  0.00  0.00    +0.000 A 
ATOM     16  C   UNL     1       1.459   8.207  -4.966  0.00  0.00    +0.000 A 
ENDBRANCH  10  11
ENDBRANCH   1  10
TORSDOF 2
ENDMDL
MODEL 9
REMARK VINA RESULT:    -4.185     19.140     20.203
REMARK INTER + INTRA:          -4.798
REMARK INTER:                  -4.624
REMARK INTRA:                  -0.174
REMARK UNBOUND:                -0.123
REMARK  Name = 1550473
REMARK  2 active torsions:
REMARK  status: ('A' for Active; 'I' for Inactive)
REMARK    1  A    between atoms: N_1  and  C_4
REMARK    2  A    between atoms: C_4  and  C_5
REMARK                            x       y       z     vdW  Elec       q    Type
REMARK                         _______ _______ _______ _____ _____    ______ ____
ROOT
ATOM      1  N   UNL     1      -1.998  17.014   4.327  0.00  0.00    -0.354 N 
ATOM      2  N   UNL     1      -0.178  16.714   2.927  0.00  0.00    -0.372 N 
ATOM      3  N   UNL     1      -2.149  17.479   2.036  0.00  0.00    -0.372 N 
ATOM      4  C   UNL     1      -1.456  17.072   3.104  0.00  0.00    +0.166 C 
ATOM      5  H   UNL     1      -1.429  16.668   5.091  0.00  0.00    +0.163 HD
ATOM      6  H   UNL     1       0.259  16.751   2.016  0.00  0.00    +0.159 HD
ATOM      7  H   UNL     1       0.402  16.412   3.700  0.00  0.00    +0.159 HD
ATOM      8  H   UNL     1      -3.120  17.757   2.101  0.00  0.00    +0.159 HD
ATOM      9  H   UNL     1      -1.732  17.512   1.114  0.00  0.00    +0.159 HD
ENDROOT
BRANCH   1  10
ATOM     10  C   UNL     1      -3.365  17.432   4.637  0.00  0.00    +0.151 C 
BRANCH  10  11
ATOM     11  C   UNL     1      -4.217  16.210   4.844  0.00  0.00    -0.028 A 
ATOM     12  C   UNL     1      -4.830  15.576   3.753  0.00  0.00    +0.005 A 
ATOM     13  C   UNL     1      -4.411  15.678   6.128  0.00  0.00    +0.005 A 
ATOM     14  C   UNL     1      -5.597  14.424   3.942  0.00  0.00    +0.000 A 
ATOM     15  C   UNL     1      -5.178  14.528   6.312  0.00  0.00    +0.000 A 
ATOM     16  C   UNL     1      -5.769  13.900   5.218  0.00  0.00    +0.000 A 
ENDBRANCH  10  11
ENDBRANCH   1  10
TORSDOF 2
ENDMDL
