MODEL 1
REMARK VINA RESULT:    -6.120      0.000      0.000
REMARK INTER + INTRA:          -6.957
REMARK INTER:                  -6.835
REMARK INTRA:                  -0.122
REMARK UNBOUND:                -0.122
REMARK  Name = 1550473
REMARK  2 active torsions:
REMARK  status: ('A' for Active; 'I' for Inactive)
REMARK    1  A    between atoms: N_1  and  C_4
REMARK    2  A    between atoms: C_4  and  C_5
REMARK                            x       y       z     vdW  Elec       q    Type
REMARK                         _______ _______ _______ _____ _____    ______ ____
ROOT
ATOM      1  N   UNL     1      -7.326   0.046 -11.732  0.00  0.00    -0.354 N 
ATOM      2  N   UNL     1      -9.253   1.117 -12.443  0.00  0.00    -0.372 N 
ATOM      3  N   UNL     1      -8.849   0.941 -10.191  0.00  0.00    -0.372 N 
ATOM      4  C   UNL     1      -8.464   0.694 -11.448  0.00  0.00    +0.166 C 
ATOM      5  H   UNL     1      -7.106  -0.136 -12.705  0.00  0.00    +0.163 HD
ATOM      6  H   UNL     1     -10.116   1.612 -12.260  0.00  0.00    +0.159 HD
ATOM      7  H   UNL     1      -9.008   0.974 -13.415  0.00  0.00    +0.159 HD
ATOM      8  H   UNL     1      -8.301   0.643  -9.395  0.00  0.00    +0.159 HD
ATOM      9  H   UNL     1      -9.715   1.424  -9.987  0.00  0.00    +0.159 HD
ENDROOT
BRANCH   1  10
ATOM     10  C   UNL     1      -6.371  -0.408 -10.724  0.00  0.00    +0.151 C 
BRANCH  10  11
ATOM     11  C   UNL     1      -5.154  -0.959 -11.414  0.00  0.00    -0.028 A 
ATOM     12  C   UNL     1      -4.905  -0.665 -12.762  0.00  0.00    +0.005 A 
ATOM     13  C   UNL     1      -4.242  -1.772 -10.723  0.00  0.00    +0.005 A 
ATOM     14  C   UNL     1      -3.759  -1.153 -13.396  0.00  0.00    +0.000 A 
ATOM     15  C   UNL     1      -3.100  -2.258 -11.359  0.00  0.00    +0.000 A 
ATOM     16  C   UNL     1      -2.857  -1.946 -12.694  0.00  0.00    +0.000 A 
ENDBRANCH  10  11
ENDBRANCH   1  10
TORSDOF 2
ENDMDL
MODEL 2
REMARK VINA RESULT:    -6.045      3.290      4.352
REMARK INTER + INTRA:          -6.874
REMARK INTER:                  -6.773
REMARK INTRA:                  -0.101
REMARK UNBOUND:                -0.122
REMARK  Name = 1550473
REMARK  2 active torsions:
REMARK  status: ('A' for Active; 'I' for Inactive)
REMARK    1  A    between atoms: N_1  and  C_4
REMARK    2  A    between atoms: C_4  and  C_5
REMARK                            x       y       z     vdW  Elec       q    Type
REMARK                         _______ _______ _______ _____ _____    ______ ____
ROOT
ATOM      1  N   UNL     1      -4.072   0.731 -15.257  0.00  0.00    -0.354 N 
ATOM      2  N   UNL     1      -3.386   2.641 -16.371  0.00  0.00    -0.372 N 
ATOM      3  N   UNL     1      -5.594   2.028 -16.479  0.00  0.00    -0.372 N 
ATOM      4  C   UNL     1      -4.358   1.788 -16.029  0.00  0.00    +0.166 C 
ATOM      5  H   UNL     1      -3.110   0.588 -14.973  0.00  0.00    +0.163 HD
ATOM      6  H   UNL     1      -3.571   3.449 -16.950  0.00  0.00    +0.159 HD
ATOM      7  H   UNL     1      -2.433   2.521 -16.049  0.00  0.00    +0.159 HD
ATOM      8  H   UNL     1      -6.371   1.419 -16.261  0.00  0.00    +0.159 HD
ATOM      9  H   UNL     1      -5.798   2.825 -17.069  0.00  0.00    +0.159 HD
ENDROOT
BRANCH   1  10
ATOM     10  C   UNL     1      -5.068  -0.228 -14.783  0.00  0.00    +0.151 C 
BRANCH  10  11
ATOM     11  C   UNL     1      -4.652  -0.742 -13.432  0.00  0.00    -0.028 A 
ATOM     12  C   UNL     1      -5.432  -0.473 -12.297  0.00  0.00    +0.005 A 
ATOM     13  C   UNL     1      -3.483  -1.502 -13.281  0.00  0.00    +0.005 A 
ATOM     14  C   UNL     1      -5.062  -0.975 -11.047  0.00  0.00    +0.000 A 
ATOM     15  C   UNL     1      -3.116  -2.001 -12.031  0.00  0.00    +0.000 A 
ATOM     16  C   UNL     1      -3.907  -1.739 -10.915  0.00  0.00    +0.000 A 
ENDBRANCH  10  11
ENDBRANCH   1  10
TORSDOF 2
ENDMDL
MODEL 3
REMARK VINA RESULT:    -5.831     34.788     36.228
REMARK INTER + INTRA:          -6.635
REMARK INTER:                  -6.505
REMARK INTRA:                  -0.129
REMARK UNBOUND:                -0.122
REMARK  Name = 1550473
REMARK  2 active torsions:
REMARK  status: ('A' for Active; 'I' for Inactive)
REMARK    1  A    between atoms: N_1  and  C_4
REMARK    2  A    between atoms: C_4  and  C_5
REMARK                            x       y       z     vdW  Elec       q    Type
REMARK                         _______ _______ _______ _____ _____    ______ ____
ROOT
ATOM      1  N   UNL     1      14.106 -14.824  13.540  0.00  0.00    -0.354 N 
ATOM      2  N   UNL     1      13.089 -13.738  15.314  0.00  0.00    -0.372 N 
ATOM      3  N   UNL     1      11.844 -15.182  14.037  0.00  0.00    -0.372 N 
ATOM      4  C   UNL     1      13.017 -14.590  14.284  0.00  0.00    +0.166 C 
ATOM      5  H   UNL     1      14.957 -14.320  13.760  0.00  0.00    +0.163 HD
ATOM      6  H   UNL     1      12.285 -13.543  15.896  0.00  0.00    +0.159 HD
ATOM      7  H   UNL     1      13.953 -13.270  15.560  0.00  0.00    +0.159 HD
ATOM      8  H   UNL     1      11.723 -15.831  13.271  0.00  0.00    +0.159 HD
ATOM      9  H   UNL     1      11.025 -14.992  14.601  0.00  0.00    +0.159 HD
ENDROOT
BRANCH   1  10
ATOM     10  C   UNL     1      14.148 -15.774  12.430  0.00  0.00    +0.151 C 
BRANCH  10  11
ATOM     11  C   UNL     1      15.229 -16.787  12.691  0.00  0.00    -0.028 A 
ATOM     12  C   UNL     1      15.721 -17.588  11.650  0.00  0.00    +0.005 A 
ATOM     13  C   UNL     1      15.769 -16.947  13.977  0.00  0.00    +0.005 A 
ATOM     14  C   UNL     1      16.746 -18.507  11.886  0.00  0.00    +0.000 A 
ATOM     15  C   UNL     1      16.791 -17.867  14.208  0.00  0.00    +0.000 A 
ATOM     16  C   UNL     1      17.281 -18.645  13.162  0.00  0.00    +0.000 A 
ENDBRANCH  10  11
ENDBRANCH   1  10
TORSDOF 2
ENDMDL
MODEL 4
REMARK VINA RESULT:    -5.479     24.144     25.798
REMARK INTER + INTRA:          -6.241
REMARK INTER:                  -6.102
REMARK INTRA:                  -0.139
REMARK UNBOUND:                -0.122
REMARK  Name = 1550473
REMARK  2 active torsions:
REMARK  status: ('A' for Active; 'I' for Inactive)
REMARK    1  A    between atoms: N_1  and  C_4
REMARK    2  A    between atoms: C_4  and  C_5
REMARK                            x       y       z     vdW  Elec       q    Type
REMARK                         _______ _______ _______ _____ _____    ______ ____
ROOT
ATOM      1  N   UNL     1      13.259 -11.594   2.867  0.00  0.00    -0.354 N 
ATOM      2  N   UNL     1      14.361 -10.602   4.646  0.00  0.00    -0.372 N 
ATOM      3  N   UNL     1      15.131 -12.609   3.845  0.00  0.00    -0.372 N 
ATOM      4  C   UNL     1      14.244 -11.611   3.774  0.00  0.00    +0.166 C 
ATOM      5  H   UNL     1      12.601 -10.823   2.885  0.00  0.00    +0.163 HD
ATOM      6  H   UNL     1      15.096 -10.585   5.340  0.00  0.00    +0.159 HD
ATOM      7  H   UNL     1      13.729  -9.810   4.632  0.00  0.00    +0.159 HD
ATOM      8  H   UNL     1      15.095 -13.403   3.220  0.00  0.00    +0.159 HD
ATOM      9  H   UNL     1      15.867 -12.616   4.540  0.00  0.00    +0.159 HD
ENDROOT
BRANCH   1  10
ATOM     10  C   UNL     1      13.077 -12.617   1.839  0.00  0.00    +0.151 C 
BRANCH  10  11
ATOM     11  C   UNL     1      12.797 -11.946   0.522  0.00  0.00    -0.028 A 
ATOM     12  C   UNL     1      13.141 -10.601   0.321  0.00  0.00    +0.005 A 
ATOM     13  C   UNL     1      12.192 -12.651  -0.530  0.00  0.00    +0.005 A 
ATOM     14  C   UNL     1      12.909  -9.986  -0.911  0.00  0.00    +0.000 A 
ATOM     15  C   UNL     1      11.961 -12.033  -1.758  0.00  0.00    +0.000 A 
ATOM     16  C   UNL     1      12.322 -10.701  -1.950  0.00  0.00    +0.000 A 
ENDBRANCH  10  11
ENDBRANCH   1  10
TORSDOF 2
ENDMDL
MODEL 5
REMARK VINA RESULT:    -5.354      9.600     10.355
REMARK INTER + INTRA:          -6.101
REMARK INTER:                  -5.973
REMARK INTRA:                  -0.129
REMARK UNBOUND:                -0.122
REMARK  Name = 1550473
REMARK  2 active torsions:
REMARK  status: ('A' for Active; 'I' for Inactive)
REMARK    1  A    between atoms: N_1  and  C_4
REMARK    2  A    between atoms: C_4  and  C_5
REMARK                            x       y       z     vdW  Elec       q    Type
REMARK                         _______ _______ _______ _____ _____    ______ ____
ROOT
ATOM      1  N   UNL     1     -16.972   1.218 -11.563  0.00  0.00    -0.354 N 
ATOM      2  N   UNL     1     -19.226   0.746 -11.322  0.00  0.00    -0.372 N 
ATOM      3  N   UNL     1     -17.698  -0.928 -10.964  0.00  0.00    -0.372 N 
ATOM      4  C   UNL     1     -17.950   0.346 -11.284  0.00  0.00    +0.166 C 
ATOM      5  H   UNL     1     -17.230   2.162 -11.828  0.00  0.00    +0.163 HD
ATOM      6  H   UNL     1     -19.985   0.111 -11.114  0.00  0.00    +0.159 HD
ATOM      7  H   UNL     1     -19.479   1.701 -11.543  0.00  0.00    +0.159 HD
ATOM      8  H   UNL     1     -16.756  -1.294 -10.924  0.00  0.00    +0.159 HD
ATOM      9  H   UNL     1     -18.445  -1.581 -10.763  0.00  0.00    +0.159 HD
ENDROOT
BRANCH   1  10
ATOM     10  C   UNL     1     -15.547   0.898 -11.497  0.00  0.00    +0.151 C 
BRANCH  10  11
ATOM     11  C   UNL     1     -14.905   1.242 -12.812  0.00  0.00    -0.028 A 
ATOM     12  C   UNL     1     -14.665   2.580 -13.159  0.00  0.00    +0.005 A 
ATOM     13  C   UNL     1     -14.529   0.235 -13.715  0.00  0.00    +0.005 A 
ATOM     14  C   UNL     1     -14.041   2.899 -14.367  0.00  0.00    +0.000 A 
ATOM     15  C   UNL     1     -13.908   0.558 -14.921  0.00  0.00    +0.000 A 
ATOM     16  C   UNL     1     -13.661   1.890 -15.246  0.00  0.00    +0.000 A 
ENDBRANCH  10  11
ENDBRANCH   1  10
TORSDOF 2
ENDMDL
MODEL 6
REMARK VINA RESULT:    -5.307     12.666     13.825
REMARK INTER + INTRA:          -6.050
REMARK INTER:                  -5.894
REMARK INTRA:                  -0.156
REMARK UNBOUND:                -0.122
REMARK  Name = 1550473
REMARK  2 active torsions:
REMARK  status: ('A' for Active; 'I' for Inactive)
REMARK    1  A    between atoms: N_1  and  C_4
REMARK    2  A    between atoms: C_4  and  C_5
REMARK                            x       y       z     vdW  Elec       q    Type
REMARK                         _______ _______ _______ _____ _____    ______ ____
ROOT
ATOM      1  N   UNL     1     -13.026  -6.007  -3.076  0.00  0.00    -0.354 N 
ATOM      2  N   UNL     1     -11.631  -4.321  -3.836  0.00  0.00    -0.372 N 
ATOM      3  N   UNL     1     -12.129  -6.065  -5.241  0.00  0.00    -0.372 N 
ATOM      4  C   UNL     1     -12.271  -5.477  -4.048  0.00  0.00    +0.166 C 
ATOM      5  H   UNL     1     -13.068  -5.527  -2.184  0.00  0.00    +0.163 HD
ATOM      6  H   UNL     1     -11.057  -3.896  -4.551  0.00  0.00    +0.159 HD
ATOM      7  H   UNL     1     -11.712  -3.820  -2.959  0.00  0.00    +0.159 HD
ATOM      8  H   UNL     1     -12.581  -6.942  -5.462  0.00  0.00    +0.159 HD
ATOM      9  H   UNL     1     -11.550  -5.661  -5.966  0.00  0.00    +0.159 HD
ENDROOT
BRANCH   1  10
ATOM     10  C   UNL     1     -13.807  -7.234  -3.224  0.00  0.00    +0.151 C 
BRANCH  10  11
ATOM     11  C   UNL     1     -13.187  -8.315  -2.383  0.00  0.00    -0.028 A 
ATOM     12  C   UNL     1     -12.550  -8.000  -1.174  0.00  0.00    +0.005 A 
ATOM     13  C   UNL     1     -13.237  -9.658  -2.788  0.00  0.00    +0.005 A 
ATOM     14  C   UNL     1     -12.000  -9.007  -0.378  0.00  0.00    +0.000 A 
ATOM     15  C   UNL     1     -12.685 -10.661  -1.990  0.00  0.00    +0.000 A 
ATOM     16  C   UNL     1     -12.070 -10.335  -0.784  0.00  0.00    +0.000 A 
ENDBRANCH  10  11
ENDBRANCH   1  10
TORSDOF 2
ENDMDL
MODEL 7
REMARK VINA RESULT:    -5.242     23.564     24.883
REMARK INTER + INTRA:          -5.977
REMARK INTER:                  -5.845
REMARK INTRA:                  -0.132
REMARK UNBOUND:                -0.122
REMARK  Name = 1550473
REMARK  2 active torsions:
REMARK  status: ('A' for Active; 'I' for Inactive)
REMARK    1  A    between atoms: N_1  and  C_4
REMARK    2  A    between atoms: C_4  and  C_5
REMARK                            x       y       z     vdW  Elec       q    Type
REMARK                         _______ _______ _______ _____ _____    ______ ____
ROOT
ATOM      1  N   UNL     1      13.197 -12.798   0.679  0.00  0.00    -0.354 N 
ATOM      2  N   UNL     1      11.653 -13.992   1.926  0.00  0.00    -0.372 N 
ATOM      3  N   UNL     1      12.807 -12.283   2.932  0.00  0.00    -0.372 N 
ATOM      4  C   UNL     1      12.564 -13.015   1.840  0.00  0.00    +0.166 C 
ATOM      5  H   UNL     1      12.989 -13.407  -0.104  0.00  0.00    +0.163 HD
ATOM      6  H   UNL     1      11.156 -14.177   2.787  0.00  0.00    +0.159 HD
ATOM      7  H   UNL     1      11.414 -14.570   1.129  0.00  0.00    +0.159 HD
ATOM      8  H   UNL     1      13.487 -11.535   2.935  0.00  0.00    +0.159 HD
ATOM      9  H   UNL     1      12.329 -12.461   3.806  0.00  0.00    +0.159 HD
ENDROOT
BRANCH   1  10
ATOM     10  C   UNL     1      14.167 -11.725   0.465  0.00  0.00    +0.151 C 
BRANCH  10  11
ATOM     11  C   UNL     1      13.725 -10.889  -0.704  0.00  0.00    -0.028 A 
ATOM     12  C   UNL     1      12.418 -10.998  -1.203  0.00  0.00    +0.005 A 
ATOM     13  C   UNL     1      14.606  -9.983  -1.314  0.00  0.00    +0.005 A 
ATOM     14  C   UNL     1      11.998 -10.200  -2.271  0.00  0.00    +0.000 A 
ATOM     15  C   UNL     1      14.182  -9.190  -2.380  0.00  0.00    +0.000 A 
ATOM     16  C   UNL     1      12.878  -9.297  -2.857  0.00  0.00    +0.000 A 
ENDBRANCH  10  11
ENDBRANCH   1  10
TORSDOF 2
ENDMDL
MODEL 8
REMARK VINA RESULT:    -5.194     24.730     26.446
REMARK INTER + INTRA:          -5.924
REMARK INTER:                  -5.831
REMARK INTRA:                  -0.092
REMARK UNBOUND:                -0.122
REMARK  Name = 1550473
REMARK  2 active torsions:
REMARK  status: ('A' for Active; 'I' for Inactive)
REMARK    1  A    between atoms: N_1  and  C_4
REMARK    2  A    between atoms: C_4  and  C_5
REMARK                            x       y       z     vdW  Elec       q    Type
REMARK                         _______ _______ _______ _____ _____    ______ ____
ROOT
ATOM      1  N   UNL     1      14.847 -12.277   2.322  0.00  0.00    -0.354 N 
ATOM      2  N   UNL     1      16.715 -13.155   3.372  0.00  0.00    -0.372 N 
ATOM      3  N   UNL     1      15.043 -12.252   4.658  0.00  0.00    -0.372 N 
ATOM      4  C   UNL     1      15.522 -12.554   3.446  0.00  0.00    +0.166 C 
ATOM      5  H   UNL     1      15.278 -12.504   1.434  0.00  0.00    +0.163 HD
ATOM      6  H   UNL     1      17.246 -13.380   4.203  0.00  0.00    +0.159 HD
ATOM      7  H   UNL     1      17.123 -13.423   2.485  0.00  0.00    +0.159 HD
ATOM      8  H   UNL     1      14.151 -11.793   4.781  0.00  0.00    +0.159 HD
ATOM      9  H   UNL     1      15.564 -12.459   5.500  0.00  0.00    +0.159 HD
ENDROOT
BRANCH   1  10
ATOM     10  C   UNL     1      13.516 -11.673   2.296  0.00  0.00    +0.151 C 
BRANCH  10  11
ATOM     11  C   UNL     1      13.024 -11.632   0.875  0.00  0.00    -0.028 A 
ATOM     12  C   UNL     1      12.483 -12.779   0.276  0.00  0.00    +0.005 A 
ATOM     13  C   UNL     1      13.090 -10.448   0.125  0.00  0.00    +0.005 A 
ATOM     14  C   UNL     1      11.998 -12.733  -1.033  0.00  0.00    +0.000 A 
ATOM     15  C   UNL     1      12.606 -10.407  -1.182  0.00  0.00    +0.000 A 
ATOM     16  C   UNL     1      12.057 -11.549  -1.760  0.00  0.00    +0.000 A 
ENDBRANCH  10  11
ENDBRANCH   1  10
TORSDOF 2
ENDMDL
MODEL 9
REMARK VINA RESULT:    -5.104     22.323     23.325
REMARK INTER + INTRA:          -5.822
REMARK INTER:                  -5.689
REMARK INTRA:                  -0.134
REMARK UNBOUND:                -0.122
REMARK  Name = 1550473
REMARK  2 active torsions:
REMARK  status: ('A' for Active; 'I' for Inactive)
REMARK    1  A    between atoms: N_1  and  C_4
REMARK    2  A    between atoms: C_4  and  C_5
REMARK                            x       y       z     vdW  Elec       q    Type
REMARK                         _______ _______ _______ _____ _____    ______ ____
ROOT
ATOM      1  N   UNL     1      12.704 -12.859  -4.890  0.00  0.00    -0.354 N 
ATOM      2  N   UNL     1      12.564 -14.980  -5.810  0.00  0.00    -0.372 N 
ATOM      3  N   UNL     1      11.157 -13.341  -6.584  0.00  0.00    -0.372 N 
ATOM      4  C   UNL     1      12.141 -13.712  -5.757  0.00  0.00    +0.166 C 
ATOM      5  H   UNL     1      13.424 -13.210  -4.269  0.00  0.00    +0.163 HD
ATOM      6  H   UNL     1      12.161 -15.646  -6.456  0.00  0.00    +0.159 HD
ATOM      7  H   UNL     1      13.316 -15.316  -5.220  0.00  0.00    +0.159 HD
ATOM      8  H   UNL     1      10.788 -12.400  -6.589  0.00  0.00    +0.159 HD
ATOM      9  H   UNL     1      10.733 -13.996  -7.229  0.00  0.00    +0.159 HD
ENDROOT
BRANCH   1  10
ATOM     10  C   UNL     1      12.352 -11.444  -4.790  0.00  0.00    +0.151 C 
BRANCH  10  11
ATOM     11  C   UNL     1      12.482 -11.005  -3.358  0.00  0.00    -0.028 A 
ATOM     12  C   UNL     1      12.502 -11.952  -2.323  0.00  0.00    +0.005 A 
ATOM     13  C   UNL     1      12.591  -9.645  -3.029  0.00  0.00    +0.005 A 
ATOM     14  C   UNL     1      12.653 -11.547  -0.994  0.00  0.00    +0.000 A 
ATOM     15  C   UNL     1      12.740  -9.245  -1.701  0.00  0.00    +0.000 A 
ATOM     16  C   UNL     1      12.774 -10.196  -0.684  0.00  0.00    +0.000 A 
ENDBRANCH  10  11
ENDBRANCH   1  10
TORSDOF 2
ENDMDL
