MODEL 1
REMARK VINA RESULT:    -5.604      0.000      0.000
REMARK INTER + INTRA:          -6.380
REMARK INTER:                  -6.259
REMARK INTRA:                  -0.121
REMARK UNBOUND:                -0.121
REMARK  Name = 1550473
REMARK  2 active torsions:
REMARK  status: ('A' for Active; 'I' for Inactive)
REMARK    1  A    between atoms: N_1  and  C_4
REMARK    2  A    between atoms: C_4  and  C_5
REMARK                            x       y       z     vdW  Elec       q    Type
REMARK                         _______ _______ _______ _____ _____    ______ ____
ROOT
ATOM      1  N   UNL     1      -1.915  16.034  12.398  0.00  0.00    -0.354 N 
ATOM      2  N   UNL     1      -2.609  15.176  14.435  0.00  0.00    -0.372 N 
ATOM      3  N   UNL     1      -1.079  16.887  14.415  0.00  0.00    -0.372 N 
ATOM      4  C   UNL     1      -1.861  16.040  13.737  0.00  0.00    +0.166 C 
ATOM      5  H   UNL     1      -2.505  15.347  11.943  0.00  0.00    +0.163 HD
ATOM      6  H   UNL     1      -2.592  15.159  15.445  0.00  0.00    +0.159 HD
ATOM      7  H   UNL     1      -3.232  14.521  13.978  0.00  0.00    +0.159 HD
ATOM      8  H   UNL     1      -0.486  17.559  13.947  0.00  0.00    +0.159 HD
ATOM      9  H   UNL     1      -1.040  16.877  15.426  0.00  0.00    +0.159 HD
ENDROOT
BRANCH   1  10
ATOM     10  C   UNL     1      -1.182  16.969  11.547  0.00  0.00    +0.151 C 
BRANCH  10  11
ATOM     11  C   UNL     1      -1.532  16.702  10.109  0.00  0.00    -0.028 A 
ATOM     12  C   UNL     1      -0.729  17.206   9.075  0.00  0.00    +0.005 A 
ATOM     13  C   UNL     1      -2.663  15.942   9.774  0.00  0.00    +0.005 A 
ATOM     14  C   UNL     1      -1.038  16.933   7.740  0.00  0.00    +0.000 A 
ATOM     15  C   UNL     1      -2.968  15.672   8.440  0.00  0.00    +0.000 A 
ATOM     16  C   UNL     1      -2.154  16.166   7.423  0.00  0.00    +0.000 A 
ENDBRANCH  10  11
ENDBRANCH   1  10
TORSDOF 2
ENDMDL
MODEL 2
REMARK VINA RESULT:    -5.441      6.778      9.279
REMARK INTER + INTRA:          -6.199
REMARK INTER:                  -6.060
REMARK INTRA:                  -0.138
REMARK UNBOUND:                -0.121
REMARK  Name = 1550473
REMARK  2 active torsions:
REMARK  status: ('A' for Active; 'I' for Inactive)
REMARK    1  A    between atoms: N_1  and  C_4
REMARK    2  A    between atoms: C_4  and  C_5
REMARK                            x       y       z     vdW  Elec       q    Type
REMARK                         _______ _______ _______ _____ _____    ______ ____
ROOT
ATOM      1  N   UNL     1      -4.338  19.616  16.004  0.00  0.00    -0.354 N 
ATOM      2  N   UNL     1      -3.768  18.834  13.899  0.00  0.00    -0.372 N 
ATOM      3  N   UNL     1      -3.635  17.403  15.687  0.00  0.00    -0.372 N 
ATOM      4  C   UNL     1      -3.917  18.620  15.212  0.00  0.00    +0.166 C 
ATOM      5  H   UNL     1      -4.506  20.524  15.587  0.00  0.00    +0.163 HD
ATOM      6  H   UNL     1      -3.455  18.102  13.276  0.00  0.00    +0.159 HD
ATOM      7  H   UNL     1      -3.980  19.730  13.478  0.00  0.00    +0.159 HD
ATOM      8  H   UNL     1      -3.721  17.178  16.670  0.00  0.00    +0.159 HD
ATOM      9  H   UNL     1      -3.309  16.660  15.082  0.00  0.00    +0.159 HD
ENDROOT
BRANCH   1  10
ATOM     10  C   UNL     1      -4.584  19.472  17.437  0.00  0.00    +0.151 C 
BRANCH  10  11
ATOM     11  C   UNL     1      -5.931  20.054  17.765  0.00  0.00    -0.028 A 
ATOM     12  C   UNL     1      -7.079  19.622  17.084  0.00  0.00    +0.005 A 
ATOM     13  C   UNL     1      -6.068  21.034  18.761  0.00  0.00    +0.005 A 
ATOM     14  C   UNL     1      -8.334  20.141  17.409  0.00  0.00    +0.000 A 
ATOM     15  C   UNL     1      -7.323  21.550  19.082  0.00  0.00    +0.000 A 
ATOM     16  C   UNL     1      -8.456  21.101  18.408  0.00  0.00    +0.000 A 
ENDBRANCH  10  11
ENDBRANCH   1  10
TORSDOF 2
ENDMDL
MODEL 3
REMARK VINA RESULT:    -5.140     42.492     43.642
REMARK INTER + INTRA:          -5.862
REMARK INTER:                  -5.694
REMARK INTRA:                  -0.168
REMARK UNBOUND:                -0.121
REMARK  Name = 1550473
REMARK  2 active torsions:
REMARK  status: ('A' for Active; 'I' for Inactive)
REMARK    1  A    between atoms: N_1  and  C_4
REMARK    2  A    between atoms: C_4  and  C_5
REMARK                            x       y       z     vdW  Elec       q    Type
REMARK                         _______ _______ _______ _____ _____    ______ ____
ROOT
ATOM      1  N   UNL     1      -0.791 -18.592 -15.855  0.00  0.00    -0.354 N 
ATOM      2  N   UNL     1      -1.396 -19.647 -13.884  0.00  0.00    -0.372 N 
ATOM      3  N   UNL     1      -0.889 -17.410 -13.834  0.00  0.00    -0.372 N 
ATOM      4  C   UNL     1      -1.021 -18.540 -14.537  0.00  0.00    +0.166 C 
ATOM      5  H   UNL     1      -0.879 -19.486 -16.325  0.00  0.00    +0.163 HD
ATOM      6  H   UNL     1      -1.579 -19.638 -12.890  0.00  0.00    +0.159 HD
ATOM      7  H   UNL     1      -1.527 -20.530 -14.364  0.00  0.00    +0.159 HD
ATOM      8  H   UNL     1      -0.604 -16.541 -14.266  0.00  0.00    +0.159 HD
ATOM      9  H   UNL     1      -1.057 -17.383 -12.836  0.00  0.00    +0.159 HD
ENDROOT
BRANCH   1  10
ATOM     10  C   UNL     1      -0.431 -17.432 -16.669  0.00  0.00    +0.151 C 
BRANCH  10  11
ATOM     11  C   UNL     1      -1.615 -17.032 -17.505  0.00  0.00    -0.028 A 
ATOM     12  C   UNL     1      -2.155 -17.921 -18.447  0.00  0.00    +0.005 A 
ATOM     13  C   UNL     1      -2.206 -15.768 -17.358  0.00  0.00    +0.005 A 
ATOM     14  C   UNL     1      -3.273 -17.562 -19.203  0.00  0.00    +0.000 A 
ATOM     15  C   UNL     1      -3.322 -15.412 -18.115  0.00  0.00    +0.000 A 
ATOM     16  C   UNL     1      -3.857 -16.310 -19.035  0.00  0.00    +0.000 A 
ENDBRANCH  10  11
ENDBRANCH   1  10
TORSDOF 2
ENDMDL
MODEL 4
REMARK VINA RESULT:    -5.133     41.575     43.056
REMARK INTER + INTRA:          -5.854
REMARK INTER:                  -5.763
REMARK INTRA:                  -0.091
REMARK UNBOUND:                -0.121
REMARK  Name = 1550473
REMARK  2 active torsions:
REMARK  status: ('A' for Active; 'I' for Inactive)
REMARK    1  A    between atoms: N_1  and  C_4
REMARK    2  A    between atoms: C_4  and  C_5
REMARK                            x       y       z     vdW  Elec       q    Type
REMARK                         _______ _______ _______ _____ _____    ______ ____
ROOT
ATOM      1  N   UNL     1      -2.196 -14.858 -17.141  0.00  0.00    -0.354 N 
ATOM      2  N   UNL     1      -3.724 -13.117 -17.111  0.00  0.00    -0.372 N 
ATOM      3  N   UNL     1      -1.492 -12.630 -17.330  0.00  0.00    -0.372 N 
ATOM      4  C   UNL     1      -2.458 -13.545 -17.194  0.00  0.00    +0.166 C 
ATOM      5  H   UNL     1      -2.970 -15.498 -17.007  0.00  0.00    +0.163 HD
ATOM      6  H   UNL     1      -3.953 -12.133 -17.152  0.00  0.00    +0.159 HD
ATOM      7  H   UNL     1      -4.500 -13.762 -17.023  0.00  0.00    +0.159 HD
ATOM      8  H   UNL     1      -0.516 -12.888 -17.393  0.00  0.00    +0.159 HD
ATOM      9  H   UNL     1      -1.700 -11.640 -17.361  0.00  0.00    +0.159 HD
ENDROOT
BRANCH   1  10
ATOM     10  C   UNL     1      -0.858 -15.430 -17.277  0.00  0.00    +0.151 C 
BRANCH  10  11
ATOM     11  C   UNL     1      -0.929 -16.910 -17.020  0.00  0.00    -0.028 A 
ATOM     12  C   UNL     1      -0.666 -17.425 -15.742  0.00  0.00    +0.005 A 
ATOM     13  C   UNL     1      -1.264 -17.803 -18.049  0.00  0.00    +0.005 A 
ATOM     14  C   UNL     1      -0.761 -18.797 -15.496  0.00  0.00    +0.000 A 
ATOM     15  C   UNL     1      -1.357 -19.172 -17.799  0.00  0.00    +0.000 A 
ATOM     16  C   UNL     1      -1.108 -19.668 -16.522  0.00  0.00    +0.000 A 
ENDBRANCH  10  11
ENDBRANCH   1  10
TORSDOF 2
ENDMDL
MODEL 5
REMARK VINA RESULT:    -5.084     42.759     44.182
REMARK INTER + INTRA:          -5.800
REMARK INTER:                  -5.653
REMARK INTRA:                  -0.147
REMARK UNBOUND:                -0.121
REMARK  Name = 1550473
REMARK  2 active torsions:
REMARK  status: ('A' for Active; 'I' for Inactive)
REMARK    1  A    between atoms: N_1  and  C_4
REMARK    2  A    between atoms: C_4  and  C_5
REMARK                            x       y       z     vdW  Elec       q    Type
REMARK                         _______ _______ _______ _____ _____    ______ ____
ROOT
ATOM      1  N   UNL     1      -0.349 -18.574 -17.359  0.00  0.00    -0.354 N 
ATOM      2  N   UNL     1       0.839 -19.611 -15.662  0.00  0.00    -0.372 N 
ATOM      3  N   UNL     1      -1.159 -20.518 -16.332  0.00  0.00    -0.372 N 
ATOM      4  C   UNL     1      -0.233 -19.562 -16.462  0.00  0.00    +0.166 C 
ATOM      5  H   UNL     1       0.373 -17.863 -17.387  0.00  0.00    +0.163 HD
ATOM      6  H   UNL     1       0.955 -20.346 -14.979  0.00  0.00    +0.159 HD
ATOM      7  H   UNL     1       1.582 -18.924 -15.724  0.00  0.00    +0.159 HD
ATOM      8  H   UNL     1      -1.995 -20.535 -16.901  0.00  0.00    +0.159 HD
ATOM      9  H   UNL     1      -1.067 -21.256 -15.645  0.00  0.00    +0.159 HD
ENDROOT
BRANCH   1  10
ATOM     10  C   UNL     1      -1.450 -18.460 -18.313  0.00  0.00    +0.151 C 
BRANCH  10  11
ATOM     11  C   UNL     1      -2.117 -17.123 -18.137  0.00  0.00    -0.028 A 
ATOM     12  C   UNL     1      -3.315 -16.832 -18.805  0.00  0.00    +0.005 A 
ATOM     13  C   UNL     1      -1.559 -16.147 -17.298  0.00  0.00    +0.005 A 
ATOM     14  C   UNL     1      -3.950 -15.602 -18.618  0.00  0.00    +0.000 A 
ATOM     15  C   UNL     1      -2.196 -14.920 -17.114  0.00  0.00    +0.000 A 
ATOM     16  C   UNL     1      -3.393 -14.648 -17.773  0.00  0.00    +0.000 A 
ENDBRANCH  10  11
ENDBRANCH   1  10
TORSDOF 2
ENDMDL
MODEL 6
REMARK VINA RESULT:    -4.993     20.134     21.324
REMARK INTER + INTRA:          -5.698
REMARK INTER:                  -5.559
REMARK INTRA:                  -0.139
REMARK UNBOUND:                -0.121
REMARK  Name = 1550473
REMARK  2 active torsions:
REMARK  status: ('A' for Active; 'I' for Inactive)
REMARK    1  A    between atoms: N_1  and  C_4
REMARK    2  A    between atoms: C_4  and  C_5
REMARK                            x       y       z     vdW  Elec       q    Type
REMARK                         _______ _______ _______ _____ _____    ______ ____
ROOT
ATOM      1  N   UNL     1      -2.910  -3.450  17.544  0.00  0.00    -0.354 N 
ATOM      2  N   UNL     1      -4.331  -1.626  17.405  0.00  0.00    -0.372 N 
ATOM      3  N   UNL     1      -2.356  -1.408  18.552  0.00  0.00    -0.372 N 
ATOM      4  C   UNL     1      -3.188  -2.172  17.836  0.00  0.00    +0.166 C 
ATOM      5  H   UNL     1      -3.597  -3.984  17.024  0.00  0.00    +0.163 HD
ATOM      6  H   UNL     1      -4.566  -0.663  17.607  0.00  0.00    +0.159 HD
ATOM      7  H   UNL     1      -4.994  -2.149  16.846  0.00  0.00    +0.159 HD
ATOM      8  H   UNL     1      -1.479  -1.762  18.912  0.00  0.00    +0.159 HD
ATOM      9  H   UNL     1      -2.578  -0.446  18.775  0.00  0.00    +0.159 HD
ENDROOT
BRANCH   1  10
ATOM     10  C   UNL     1      -1.669  -4.124  17.920  0.00  0.00    +0.151 C 
BRANCH  10  11
ATOM     11  C   UNL     1      -1.010  -4.666  16.682  0.00  0.00    -0.028 A 
ATOM     12  C   UNL     1      -1.320  -5.952  16.215  0.00  0.00    +0.005 A 
ATOM     13  C   UNL     1      -0.079  -3.897  15.967  0.00  0.00    +0.005 A 
ATOM     14  C   UNL     1      -0.731  -6.444  15.048  0.00  0.00    +0.000 A 
ATOM     15  C   UNL     1       0.508  -4.392  14.803  0.00  0.00    +0.000 A 
ATOM     16  C   UNL     1       0.180  -5.665  14.343  0.00  0.00    +0.000 A 
ENDBRANCH  10  11
ENDBRANCH   1  10
TORSDOF 2
ENDMDL
MODEL 7
REMARK VINA RESULT:    -4.887     15.082     16.675
REMARK INTER + INTRA:          -5.579
REMARK INTER:                  -5.440
REMARK INTRA:                  -0.139
REMARK UNBOUND:                -0.121
REMARK  Name = 1550473
REMARK  2 active torsions:
REMARK  status: ('A' for Active; 'I' for Inactive)
REMARK    1  A    between atoms: N_1  and  C_4
REMARK    2  A    between atoms: C_4  and  C_5
REMARK                            x       y       z     vdW  Elec       q    Type
REMARK                         _______ _______ _______ _____ _____    ______ ____
ROOT
ATOM      1  N   UNL     1      -9.661   6.128   3.079  0.00  0.00    -0.354 N 
ATOM      2  N   UNL     1      -7.793   7.156   3.984  0.00  0.00    -0.372 N 
ATOM      3  N   UNL     1      -9.800   8.269   4.021  0.00  0.00    -0.372 N 
ATOM      4  C   UNL     1      -9.099   7.180   3.689  0.00  0.00    +0.166 C 
ATOM      5  H   UNL     1      -9.069   5.345   2.827  0.00  0.00    +0.163 HD
ATOM      6  H   UNL     1      -7.342   7.934   4.447  0.00  0.00    +0.159 HD
ATOM      7  H   UNL     1      -7.214   6.353   3.772  0.00  0.00    +0.159 HD
ATOM      8  H   UNL     1     -10.787   8.352   3.821  0.00  0.00    +0.159 HD
ATOM      9  H   UNL     1      -9.363   9.062   4.474  0.00  0.00    +0.159 HD
ENDROOT
BRANCH   1  10
ATOM     10  C   UNL     1     -11.085   6.031   2.763  0.00  0.00    +0.151 C 
BRANCH  10  11
ATOM     11  C   UNL     1     -11.581   4.663   3.143  0.00  0.00    -0.028 A 
ATOM     12  C   UNL     1     -10.687   3.684   3.603  0.00  0.00    +0.005 A 
ATOM     13  C   UNL     1     -12.944   4.341   3.052  0.00  0.00    +0.005 A 
ATOM     14  C   UNL     1     -11.151   2.423   3.984  0.00  0.00    +0.000 A 
ATOM     15  C   UNL     1     -13.403   3.081   3.434  0.00  0.00    +0.000 A 
ATOM     16  C   UNL     1     -12.507   2.123   3.902  0.00  0.00    +0.000 A 
ENDBRANCH  10  11
ENDBRANCH   1  10
TORSDOF 2
ENDMDL
MODEL 8
REMARK VINA RESULT:    -4.808     10.100     11.032
REMARK INTER + INTRA:          -5.492
REMARK INTER:                  -5.398
REMARK INTRA:                  -0.094
REMARK UNBOUND:                -0.121
REMARK  Name = 1550473
REMARK  2 active torsions:
REMARK  status: ('A' for Active; 'I' for Inactive)
REMARK    1  A    between atoms: N_1  and  C_4
REMARK    2  A    between atoms: C_4  and  C_5
REMARK                            x       y       z     vdW  Elec       q    Type
REMARK                         _______ _______ _______ _____ _____    ______ ____
ROOT
ATOM      1  N   UNL     1      -7.859  12.167  19.674  0.00  0.00    -0.354 N 
ATOM      2  N   UNL     1      -9.845  12.579  20.791  0.00  0.00    -0.372 N 
ATOM      3  N   UNL     1      -7.975  13.771  21.378  0.00  0.00    -0.372 N 
ATOM      4  C   UNL     1      -8.545  12.838  20.609  0.00  0.00    +0.166 C 
ATOM      5  H   UNL     1      -8.342  11.450  19.144  0.00  0.00    +0.163 HD
ATOM      6  H   UNL     1     -10.390  13.071  21.487  0.00  0.00    +0.159 HD
ATOM      7  H   UNL     1     -10.337  11.894  20.229  0.00  0.00    +0.159 HD
ATOM      8  H   UNL     1      -6.995  14.009  21.294  0.00  0.00    +0.159 HD
ATOM      9  H   UNL     1      -8.500  14.266  22.088  0.00  0.00    +0.159 HD
ENDROOT
BRANCH   1  10
ATOM     10  C   UNL     1      -6.453  12.411  19.359  0.00  0.00    +0.151 C 
BRANCH  10  11
ATOM     11  C   UNL     1      -5.920  11.253  18.560  0.00  0.00    -0.028 A 
ATOM     12  C   UNL     1      -6.306  11.074  17.223  0.00  0.00    +0.005 A 
ATOM     13  C   UNL     1      -5.025  10.336  19.132  0.00  0.00    +0.005 A 
ATOM     14  C   UNL     1      -5.788  10.016  16.472  0.00  0.00    +0.000 A 
ATOM     15  C   UNL     1      -4.511   9.281  18.378  0.00  0.00    +0.000 A 
ATOM     16  C   UNL     1      -4.891   9.123  17.048  0.00  0.00    +0.000 A 
ENDBRANCH  10  11
ENDBRANCH   1  10
TORSDOF 2
ENDMDL
MODEL 9
REMARK VINA RESULT:    -4.657     42.165     43.527
REMARK INTER + INTRA:          -5.323
REMARK INTER:                  -5.154
REMARK INTRA:                  -0.169
REMARK UNBOUND:                -0.121
REMARK  Name = 1550473
REMARK  2 active torsions:
REMARK  status: ('A' for Active; 'I' for Inactive)
REMARK    1  A    between atoms: N_1  and  C_4
REMARK    2  A    between atoms: C_4  and  C_5
REMARK                            x       y       z     vdW  Elec       q    Type
REMARK                         _______ _______ _______ _____ _____    ______ ____
ROOT
ATOM      1  N   UNL     1      -0.337 -17.825 -17.089  0.00  0.00    -0.354 N 
ATOM      2  N   UNL     1      -1.523 -17.608 -19.066  0.00  0.00    -0.372 N 
ATOM      3  N   UNL     1      -1.764 -16.001 -17.446  0.00  0.00    -0.372 N 
ATOM      4  C   UNL     1      -1.201 -17.144 -17.853  0.00  0.00    +0.166 C 
ATOM      5  H   UNL     1       0.032 -18.700 -17.442  0.00  0.00    +0.163 HD
ATOM      6  H   UNL     1      -2.170 -17.114 -19.666  0.00  0.00    +0.159 HD
ATOM      7  H   UNL     1      -1.118 -18.460 -19.435  0.00  0.00    +0.159 HD
ATOM      8  H   UNL     1      -1.567 -15.600 -16.539  0.00  0.00    +0.159 HD
ATOM      9  H   UNL     1      -2.423 -15.498 -18.028  0.00  0.00    +0.159 HD
ENDROOT
BRANCH   1  10
ATOM     10  C   UNL     1       0.121 -17.377 -15.775  0.00  0.00    +0.151 C 
BRANCH  10  11
ATOM     11  C   UNL     1      -0.662 -18.095 -14.711  0.00  0.00    -0.028 A 
ATOM     12  C   UNL     1      -0.892 -19.476 -14.805  0.00  0.00    +0.005 A 
ATOM     13  C   UNL     1      -1.173 -17.402 -13.603  0.00  0.00    +0.005 A 
ATOM     14  C   UNL     1      -1.595 -20.148 -13.802  0.00  0.00    +0.000 A 
ATOM     15  C   UNL     1      -1.875 -18.077 -12.604  0.00  0.00    +0.000 A 
ATOM     16  C   UNL     1      -2.083 -19.450 -12.703  0.00  0.00    +0.000 A 
ENDBRANCH  10  11
ENDBRANCH   1  10
TORSDOF 2
ENDMDL
