MODEL 1
REMARK VINA RESULT:    -6.680      0.000      0.000
REMARK INTER + INTRA:          -7.631
REMARK INTER:                  -7.461
REMARK INTRA:                  -0.170
REMARK UNBOUND:                -0.170
REMARK  Name = 1550473
REMARK  2 active torsions:
REMARK  status: ('A' for Active; 'I' for Inactive)
REMARK    1  A    between atoms: N_1  and  C_4
REMARK    2  A    between atoms: C_4  and  C_5
REMARK                            x       y       z     vdW  Elec       q    Type
REMARK                         _______ _______ _______ _____ _____    ______ ____
ROOT
ATOM      1  N   UNL     1      -0.506   1.395  12.001  0.00  0.00    -0.354 N 
ATOM      2  N   UNL     1       1.076  -0.252  11.617  0.00  0.00    -0.372 N 
ATOM      3  N   UNL     1       1.570   1.914  11.046  0.00  0.00    -0.372 N 
ATOM      4  C   UNL     1       0.704   1.032  11.556  0.00  0.00    +0.166 C 
ATOM      5  H   UNL     1      -1.128   0.673  12.348  0.00  0.00    +0.163 HD
ATOM      6  H   UNL     1       1.984  -0.555  11.292  0.00  0.00    +0.159 HD
ATOM      7  H   UNL     1       0.471  -0.965  12.006  0.00  0.00    +0.159 HD
ATOM      8  H   UNL     1       1.348   2.898  10.967  0.00  0.00    +0.159 HD
ATOM      9  H   UNL     1       2.479   1.629  10.705  0.00  0.00    +0.159 HD
ENDROOT
BRANCH   1  10
ATOM     10  C   UNL     1      -0.987   2.775  12.029  0.00  0.00    +0.151 C 
BRANCH  10  11
ATOM     11  C   UNL     1      -1.783   3.043  10.781  0.00  0.00    -0.028 A 
ATOM     12  C   UNL     1      -2.919   2.276  10.483  0.00  0.00    +0.005 A 
ATOM     13  C   UNL     1      -1.411   4.066   9.897  0.00  0.00    +0.005 A 
ATOM     14  C   UNL     1      -3.676   2.544   9.340  0.00  0.00    +0.000 A 
ATOM     15  C   UNL     1      -2.169   4.330   8.756  0.00  0.00    +0.000 A 
ATOM     16  C   UNL     1      -3.303   3.571   8.479  0.00  0.00    +0.000 A 
ENDBRANCH  10  11
ENDBRANCH   1  10
TORSDOF 2
ENDMDL
MODEL 2
REMARK VINA RESULT:    -6.505      1.447      1.985
REMARK INTER + INTRA:          -7.436
REMARK INTER:                  -7.350
REMARK INTRA:                  -0.085
REMARK UNBOUND:                -0.170
REMARK  Name = 1550473
REMARK  2 active torsions:
REMARK  status: ('A' for Active; 'I' for Inactive)
REMARK    1  A    between atoms: N_1  and  C_4
REMARK    2  A    between atoms: C_4  and  C_5
REMARK                            x       y       z     vdW  Elec       q    Type
REMARK                         _______ _______ _______ _____ _____    ______ ____
ROOT
ATOM      1  N   UNL     1      -0.919   1.603  12.274  0.00  0.00    -0.354 N 
ATOM      2  N   UNL     1      -1.513  -0.239  13.546  0.00  0.00    -0.372 N 
ATOM      3  N   UNL     1      -2.150   1.849  14.253  0.00  0.00    -0.372 N 
ATOM      4  C   UNL     1      -1.524   1.085  13.351  0.00  0.00    +0.166 C 
ATOM      5  H   UNL     1      -0.437   0.973  11.643  0.00  0.00    +0.163 HD
ATOM      6  H   UNL     1      -1.963  -0.659  14.348  0.00  0.00    +0.159 HD
ATOM      7  H   UNL     1      -1.069  -0.870  12.890  0.00  0.00    +0.159 HD
ATOM      8  H   UNL     1      -2.189   2.856  14.167  0.00  0.00    +0.159 HD
ATOM      9  H   UNL     1      -2.597   1.448  15.069  0.00  0.00    +0.159 HD
ENDROOT
BRANCH   1  10
ATOM     10  C   UNL     1      -0.920   3.027  11.941  0.00  0.00    +0.151 C 
BRANCH  10  11
ATOM     11  C   UNL     1      -1.751   3.241  10.706  0.00  0.00    -0.028 A 
ATOM     12  C   UNL     1      -2.944   2.528  10.517  0.00  0.00    +0.005 A 
ATOM     13  C   UNL     1      -1.353   4.161   9.723  0.00  0.00    +0.005 A 
ATOM     14  C   UNL     1      -3.731   2.749   9.384  0.00  0.00    +0.000 A 
ATOM     15  C   UNL     1      -2.142   4.379   8.593  0.00  0.00    +0.000 A 
ATOM     16  C   UNL     1      -3.331   3.674   8.425  0.00  0.00    +0.000 A 
ENDBRANCH  10  11
ENDBRANCH   1  10
TORSDOF 2
ENDMDL
MODEL 3
REMARK VINA RESULT:    -5.906      1.747      2.457
REMARK INTER + INTRA:          -6.767
REMARK INTER:                  -6.599
REMARK INTRA:                  -0.168
REMARK UNBOUND:                -0.170
REMARK  Name = 1550473
REMARK  2 active torsions:
REMARK  status: ('A' for Active; 'I' for Inactive)
REMARK    1  A    between atoms: N_1  and  C_4
REMARK    2  A    between atoms: C_4  and  C_5
REMARK                            x       y       z     vdW  Elec       q    Type
REMARK                         _______ _______ _______ _____ _____    ______ ____
ROOT
ATOM      1  N   UNL     1       0.512   0.133  13.129  0.00  0.00    -0.354 N 
ATOM      2  N   UNL     1       1.353  -1.999  12.794  0.00  0.00    -0.372 N 
ATOM      3  N   UNL     1       2.375  -0.228  11.753  0.00  0.00    -0.372 N 
ATOM      4  C   UNL     1       1.409  -0.683  12.559  0.00  0.00    +0.166 C 
ATOM      5  H   UNL     1      -0.213  -0.277  13.705  0.00  0.00    +0.163 HD
ATOM      6  H   UNL     1       2.018  -2.639  12.381  0.00  0.00    +0.159 HD
ATOM      7  H   UNL     1       0.654  -2.401  13.408  0.00  0.00    +0.159 HD
ATOM      8  H   UNL     1       2.469   0.754  11.531  0.00  0.00    +0.159 HD
ATOM      9  H   UNL     1       3.043  -0.854  11.321  0.00  0.00    +0.159 HD
ENDROOT
BRANCH   1  10
ATOM     10  C   UNL     1       0.519   1.587  12.980  0.00  0.00    +0.151 C 
BRANCH  10  11
ATOM     11  C   UNL     1      -0.672   2.003  12.162  0.00  0.00    -0.028 A 
ATOM     12  C   UNL     1      -0.667   1.851  10.768  0.00  0.00    +0.005 A 
ATOM     13  C   UNL     1      -1.811   2.546  12.777  0.00  0.00    +0.005 A 
ATOM     14  C   UNL     1      -1.785   2.210  10.011  0.00  0.00    +0.000 A 
ATOM     15  C   UNL     1      -2.925   2.903  12.017  0.00  0.00    +0.000 A 
ATOM     16  C   UNL     1      -2.913   2.733  10.635  0.00  0.00    +0.000 A 
ENDBRANCH  10  11
ENDBRANCH   1  10
TORSDOF 2
ENDMDL
MODEL 4
REMARK VINA RESULT:    -5.461     12.035     12.978
REMARK INTER + INTRA:          -6.270
REMARK INTER:                  -6.101
REMARK INTRA:                  -0.169
REMARK UNBOUND:                -0.170
REMARK  Name = 1550473
REMARK  2 active torsions:
REMARK  status: ('A' for Active; 'I' for Inactive)
REMARK    1  A    between atoms: N_1  and  C_4
REMARK    2  A    between atoms: C_4  and  C_5
REMARK                            x       y       z     vdW  Elec       q    Type
REMARK                         _______ _______ _______ _____ _____    ______ ____
ROOT
ATOM      1  N   UNL     1       7.467   7.727   2.317  0.00  0.00    -0.354 N 
ATOM      2  N   UNL     1       6.066   6.053   1.541  0.00  0.00    -0.372 N 
ATOM      3  N   UNL     1       5.288   8.211   1.604  0.00  0.00    -0.372 N 
ATOM      4  C   UNL     1       6.281   7.344   1.826  0.00  0.00    +0.166 C 
ATOM      5  H   UNL     1       8.169   7.016   2.491  0.00  0.00    +0.163 HD
ATOM      6  H   UNL     1       5.183   5.735   1.166  0.00  0.00    +0.159 HD
ATOM      7  H   UNL     1       6.785   5.352   1.672  0.00  0.00    +0.159 HD
ATOM      8  H   UNL     1       5.384   9.198   1.804  0.00  0.00    +0.159 HD
ATOM      9  H   UNL     1       4.393   7.910   1.240  0.00  0.00    +0.159 HD
ENDROOT
BRANCH   1  10
ATOM     10  C   UNL     1       7.821   9.114   2.610  0.00  0.00    +0.151 C 
BRANCH  10  11
ATOM     11  C   UNL     1       7.668   9.359   4.086  0.00  0.00    -0.028 A 
ATOM     12  C   UNL     1       6.474   9.885   4.600  0.00  0.00    +0.005 A 
ATOM     13  C   UNL     1       8.712   9.063   4.976  0.00  0.00    +0.005 A 
ATOM     14  C   UNL     1       6.320  10.084   5.974  0.00  0.00    +0.000 A 
ATOM     15  C   UNL     1       8.555   9.264   6.347  0.00  0.00    +0.000 A 
ATOM     16  C   UNL     1       7.358   9.773   6.846  0.00  0.00    +0.000 A 
ENDBRANCH  10  11
ENDBRANCH   1  10
TORSDOF 2
ENDMDL
MODEL 5
REMARK VINA RESULT:    -5.444      3.156      4.292
REMARK INTER + INTRA:          -6.250
REMARK INTER:                  -6.107
REMARK INTRA:                  -0.143
REMARK UNBOUND:                -0.170
REMARK  Name = 1550473
REMARK  2 active torsions:
REMARK  status: ('A' for Active; 'I' for Inactive)
REMARK    1  A    between atoms: N_1  and  C_4
REMARK    2  A    between atoms: C_4  and  C_5
REMARK                            x       y       z     vdW  Elec       q    Type
REMARK                         _______ _______ _______ _____ _____    ______ ____
ROOT
ATOM      1  N   UNL     1       0.644   0.528  11.867  0.00  0.00    -0.354 N 
ATOM      2  N   UNL     1       1.854  -1.362  12.442  0.00  0.00    -0.372 N 
ATOM      3  N   UNL     1       2.987   0.540  11.839  0.00  0.00    -0.372 N 
ATOM      4  C   UNL     1       1.822  -0.084  12.045  0.00  0.00    +0.166 C 
ATOM      5  H   UNL     1      -0.204  -0.010  12.010  0.00  0.00    +0.163 HD
ATOM      6  H   UNL     1       2.728  -1.849  12.587  0.00  0.00    +0.159 HD
ATOM      7  H   UNL     1       1.005  -1.883  12.628  0.00  0.00    +0.159 HD
ATOM      8  H   UNL     1       3.032   1.503  11.534  0.00  0.00    +0.159 HD
ATOM      9  H   UNL     1       3.872   0.066  11.968  0.00  0.00    +0.159 HD
ENDROOT
BRANCH   1  10
ATOM     10  C   UNL     1       0.501   1.932  11.489  0.00  0.00    +0.151 C 
BRANCH  10  11
ATOM     11  C   UNL     1       0.525   2.780  12.731  0.00  0.00    -0.028 A 
ATOM     12  C   UNL     1      -0.458   2.623  13.719  0.00  0.00    +0.005 A 
ATOM     13  C   UNL     1       1.531   3.739  12.927  0.00  0.00    +0.005 A 
ATOM     14  C   UNL     1      -0.418   3.390  14.886  0.00  0.00    +0.000 A 
ATOM     15  C   UNL     1       1.566   4.503  14.093  0.00  0.00    +0.000 A 
ATOM     16  C   UNL     1       0.593   4.326  15.074  0.00  0.00    +0.000 A 
ENDBRANCH  10  11
ENDBRANCH   1  10
TORSDOF 2
ENDMDL
MODEL 6
REMARK VINA RESULT:    -5.307      2.090      3.081
REMARK INTER + INTRA:          -6.097
REMARK INTER:                  -5.979
REMARK INTRA:                  -0.118
REMARK UNBOUND:                -0.170
REMARK  Name = 1550473
REMARK  2 active torsions:
REMARK  status: ('A' for Active; 'I' for Inactive)
REMARK    1  A    between atoms: N_1  and  C_4
REMARK    2  A    between atoms: C_4  and  C_5
REMARK                            x       y       z     vdW  Elec       q    Type
REMARK                         _______ _______ _______ _____ _____    ______ ____
ROOT
ATOM      1  N   UNL     1       0.328   1.037  13.754  0.00  0.00    -0.354 N 
ATOM      2  N   UNL     1       0.206   0.138  15.885  0.00  0.00    -0.372 N 
ATOM      3  N   UNL     1       0.952  -1.184  14.165  0.00  0.00    -0.372 N 
ATOM      4  C   UNL     1       0.497   0.001  14.586  0.00  0.00    +0.166 C 
ATOM      5  H   UNL     1      -0.050   1.900  14.130  0.00  0.00    +0.163 HD
ATOM      6  H   UNL     1       0.326  -0.625  16.537  0.00  0.00    +0.159 HD
ATOM      7  H   UNL     1      -0.128   1.015  16.267  0.00  0.00    +0.159 HD
ATOM      8  H   UNL     1       1.185  -1.354  13.195  0.00  0.00    +0.159 HD
ATOM      9  H   UNL     1       1.069  -1.963  14.800  0.00  0.00    +0.159 HD
ENDROOT
BRANCH   1  10
ATOM     10  C   UNL     1       0.665   1.008  12.332  0.00  0.00    +0.151 C 
BRANCH  10  11
ATOM     11  C   UNL     1      -0.419   1.703  11.555  0.00  0.00    -0.028 A 
ATOM     12  C   UNL     1      -0.251   3.028  11.127  0.00  0.00    +0.005 A 
ATOM     13  C   UNL     1      -1.614   1.039  11.240  0.00  0.00    +0.005 A 
ATOM     14  C   UNL     1      -1.246   3.663  10.380  0.00  0.00    +0.000 A 
ATOM     15  C   UNL     1      -2.605   1.678  10.494  0.00  0.00    +0.000 A 
ATOM     16  C   UNL     1      -2.420   2.989  10.062  0.00  0.00    +0.000 A 
ENDBRANCH  10  11
ENDBRANCH   1  10
TORSDOF 2
ENDMDL
MODEL 7
REMARK VINA RESULT:    -5.224     33.750     34.639
REMARK INTER + INTRA:          -6.005
REMARK INTER:                  -5.856
REMARK INTRA:                  -0.148
REMARK UNBOUND:                -0.170
REMARK  Name = 1550473
REMARK  2 active torsions:
REMARK  status: ('A' for Active; 'I' for Inactive)
REMARK    1  A    between atoms: N_1  and  C_4
REMARK    2  A    between atoms: C_4  and  C_5
REMARK                            x       y       z     vdW  Elec       q    Type
REMARK                         _______ _______ _______ _____ _____    ______ ____
ROOT
ATOM      1  N   UNL     1     -16.579  -2.232 -20.243  0.00  0.00    -0.354 N 
ATOM      2  N   UNL     1     -18.224  -0.829 -21.073  0.00  0.00    -0.372 N 
ATOM      3  N   UNL     1     -16.878  -0.076 -19.374  0.00  0.00    -0.372 N 
ATOM      4  C   UNL     1     -17.215  -1.053 -20.222  0.00  0.00    +0.166 C 
ATOM      5  H   UNL     1     -16.902  -2.942 -20.890  0.00  0.00    +0.163 HD
ATOM      6  H   UNL     1     -18.721   0.051 -21.082  0.00  0.00    +0.159 HD
ATOM      7  H   UNL     1     -18.515  -1.524 -21.749  0.00  0.00    +0.159 HD
ATOM      8  H   UNL     1     -16.130  -0.185 -18.703  0.00  0.00    +0.159 HD
ATOM      9  H   UNL     1     -17.371   0.808 -19.360  0.00  0.00    +0.159 HD
ENDROOT
BRANCH   1  10
ATOM     10  C   UNL     1     -15.433  -2.557 -19.396  0.00  0.00    +0.151 C 
BRANCH  10  11
ATOM     11  C   UNL     1     -14.263  -2.920 -20.269  0.00  0.00    -0.028 A 
ATOM     12  C   UNL     1     -13.665  -4.184 -20.169  0.00  0.00    +0.005 A 
ATOM     13  C   UNL     1     -13.752  -2.005 -21.203  0.00  0.00    +0.005 A 
ATOM     14  C   UNL     1     -12.598  -4.532 -21.001  0.00  0.00    +0.000 A 
ATOM     15  C   UNL     1     -12.686  -2.356 -22.031  0.00  0.00    +0.000 A 
ATOM     16  C   UNL     1     -12.111  -3.620 -21.931  0.00  0.00    +0.000 A 
ENDBRANCH  10  11
ENDBRANCH   1  10
TORSDOF 2
ENDMDL
MODEL 8
REMARK VINA RESULT:    -5.110      8.857      9.543
REMARK INTER + INTRA:          -5.877
REMARK INTER:                  -5.760
REMARK INTRA:                  -0.117
REMARK UNBOUND:                -0.170
REMARK  Name = 1550473
REMARK  2 active torsions:
REMARK  status: ('A' for Active; 'I' for Inactive)
REMARK    1  A    between atoms: N_1  and  C_4
REMARK    2  A    between atoms: C_4  and  C_5
REMARK                            x       y       z     vdW  Elec       q    Type
REMARK                         _______ _______ _______ _____ _____    ______ ____
ROOT
ATOM      1  N   UNL     1      -6.286  -5.783  10.571  0.00  0.00    -0.354 N 
ATOM      2  N   UNL     1      -5.293  -7.782  11.190  0.00  0.00    -0.372 N 
ATOM      3  N   UNL     1      -6.088  -7.554   9.049  0.00  0.00    -0.372 N 
ATOM      4  C   UNL     1      -5.896  -7.028  10.263  0.00  0.00    +0.166 C 
ATOM      5  H   UNL     1      -6.139  -5.453  11.518  0.00  0.00    +0.163 HD
ATOM      6  H   UNL     1      -4.985  -8.724  10.986  0.00  0.00    +0.159 HD
ATOM      7  H   UNL     1      -5.106  -7.434  12.122  0.00  0.00    +0.159 HD
ATOM      8  H   UNL     1      -6.542  -7.039   8.307  0.00  0.00    +0.159 HD
ATOM      9  H   UNL     1      -5.797  -8.499   8.829  0.00  0.00    +0.159 HD
ENDROOT
BRANCH   1  10
ATOM     10  C   UNL     1      -6.902  -4.861   9.619  0.00  0.00    +0.151 C 
BRANCH  10  11
ATOM     11  C   UNL     1      -7.620  -3.779  10.378  0.00  0.00    -0.028 A 
ATOM     12  C   UNL     1      -7.167  -3.376  11.643  0.00  0.00    +0.005 A 
ATOM     13  C   UNL     1      -8.751  -3.150   9.836  0.00  0.00    +0.005 A 
ATOM     14  C   UNL     1      -7.816  -2.351  12.336  0.00  0.00    +0.000 A 
ATOM     15  C   UNL     1      -9.397  -2.127  10.531  0.00  0.00    +0.000 A 
ATOM     16  C   UNL     1      -8.927  -1.726  11.780  0.00  0.00    +0.000 A 
ENDBRANCH  10  11
ENDBRANCH   1  10
TORSDOF 2
ENDMDL
MODEL 9
REMARK VINA RESULT:    -5.094      2.017      2.635
REMARK INTER + INTRA:          -5.860
REMARK INTER:                  -5.700
REMARK INTRA:                  -0.161
REMARK UNBOUND:                -0.170
REMARK  Name = 1550473
REMARK  2 active torsions:
REMARK  status: ('A' for Active; 'I' for Inactive)
REMARK    1  A    between atoms: N_1  and  C_4
REMARK    2  A    between atoms: C_4  and  C_5
REMARK                            x       y       z     vdW  Elec       q    Type
REMARK                         _______ _______ _______ _____ _____    ______ ____
ROOT
ATOM      1  N   UNL     1       1.724   2.561  13.471  0.00  0.00    -0.354 N 
ATOM      2  N   UNL     1       3.400   1.007  13.097  0.00  0.00    -0.372 N 
ATOM      3  N   UNL     1       1.475   0.331  14.147  0.00  0.00    -0.372 N 
ATOM      4  C   UNL     1       2.187   1.308  13.576  0.00  0.00    +0.166 C 
ATOM      5  H   UNL     1       2.324   3.263  13.055  0.00  0.00    +0.163 HD
ATOM      6  H   UNL     1       3.775   0.070  13.159  0.00  0.00    +0.159 HD
ATOM      7  H   UNL     1       3.980   1.701  12.640  0.00  0.00    +0.159 HD
ATOM      8  H   UNL     1       0.555   0.494  14.533  0.00  0.00    +0.159 HD
ATOM      9  H   UNL     1       1.838  -0.611  14.228  0.00  0.00    +0.159 HD
ENDROOT
BRANCH   1  10
ATOM     10  C   UNL     1       0.394   2.981  13.912  0.00  0.00    +0.151 C 
BRANCH  10  11
ATOM     11  C   UNL     1      -0.544   2.953  12.737  0.00  0.00    -0.028 A 
ATOM     12  C   UNL     1      -1.876   2.546  12.899  0.00  0.00    +0.005 A 
ATOM     13  C   UNL     1      -0.108   3.339  11.460  0.00  0.00    +0.005 A 
ATOM     14  C   UNL     1      -2.756   2.549  11.814  0.00  0.00    +0.000 A 
ATOM     15  C   UNL     1      -0.990   3.340  10.379  0.00  0.00    +0.000 A 
ATOM     16  C   UNL     1      -2.314   2.947  10.557  0.00  0.00    +0.000 A 
ENDBRANCH  10  11
ENDBRANCH   1  10
TORSDOF 2
ENDMDL
