MODEL 1
REMARK VINA RESULT:    -5.121      0.000      0.000
REMARK INTER + INTRA:          -5.836
REMARK INTER:                  -5.720
REMARK INTRA:                  -0.115
REMARK UNBOUND:                -0.115
REMARK  Name = 1550473
REMARK  2 active torsions:
REMARK  status: ('A' for Active; 'I' for Inactive)
REMARK    1  A    between atoms: N_1  and  C_4
REMARK    2  A    between atoms: C_4  and  C_5
REMARK                            x       y       z     vdW  Elec       q    Type
REMARK                         _______ _______ _______ _____ _____    ______ ____
ROOT
ATOM      1  N   UNL     1      16.283  23.709  19.645  0.00  0.00    -0.354 N 
ATOM      2  N   UNL     1      18.292  24.181  20.695  0.00  0.00    -0.372 N 
ATOM      3  N   UNL     1      16.348  24.317  21.907  0.00  0.00    -0.372 N 
ATOM      4  C   UNL     1      16.959  24.067  20.744  0.00  0.00    +0.166 C 
ATOM      5  H   UNL     1      16.802  23.562  18.787  0.00  0.00    +0.163 HD
ATOM      6  H   UNL     1      18.830  24.446  21.510  0.00  0.00    +0.159 HD
ATOM      7  H   UNL     1      18.812  23.990  19.848  0.00  0.00    +0.159 HD
ATOM      8  H   UNL     1      15.344  24.254  22.009  0.00  0.00    +0.159 HD
ATOM      9  H   UNL     1      16.868  24.595  22.730  0.00  0.00    +0.159 HD
ENDROOT
BRANCH   1  10
ATOM     10  C   UNL     1      14.836  23.503  19.606  0.00  0.00    +0.151 C 
BRANCH  10  11
ATOM     11  C   UNL     1      14.549  22.027  19.600  0.00  0.00    -0.028 A 
ATOM     12  C   UNL     1      13.248  21.553  19.824  0.00  0.00    +0.005 A 
ATOM     13  C   UNL     1      15.574  21.097  19.366  0.00  0.00    +0.005 A 
ATOM     14  C   UNL     1      12.976  20.184  19.789  0.00  0.00    +0.000 A 
ATOM     15  C   UNL     1      15.298  19.730  19.333  0.00  0.00    +0.000 A 
ATOM     16  C   UNL     1      13.999  19.274  19.542  0.00  0.00    +0.000 A 
ENDBRANCH  10  11
ENDBRANCH   1  10
TORSDOF 2
ENDMDL
MODEL 2
REMARK VINA RESULT:    -4.931     56.917     58.565
REMARK INTER + INTRA:          -5.622
REMARK INTER:                  -5.522
REMARK INTRA:                  -0.100
REMARK UNBOUND:                -0.115
REMARK  Name = 1550473
REMARK  2 active torsions:
REMARK  status: ('A' for Active; 'I' for Inactive)
REMARK    1  A    between atoms: N_1  and  C_4
REMARK    2  A    between atoms: C_4  and  C_5
REMARK                            x       y       z     vdW  Elec       q    Type
REMARK                         _______ _______ _______ _____ _____    ______ ____
ROOT
ATOM      1  N   UNL     1     -12.229 -14.992 -13.600  0.00  0.00    -0.354 N 
ATOM      2  N   UNL     1     -12.120 -14.576 -11.325  0.00  0.00    -0.372 N 
ATOM      3  N   UNL     1     -14.099 -14.207 -12.426  0.00  0.00    -0.372 N 
ATOM      4  C   UNL     1     -12.819 -14.594 -12.466  0.00  0.00    +0.166 C 
ATOM      5  H   UNL     1     -11.247 -15.244 -13.570  0.00  0.00    +0.163 HD
ATOM      6  H   UNL     1     -12.539 -14.283 -10.452  0.00  0.00    +0.159 HD
ATOM      7  H   UNL     1     -11.152 -14.872 -11.288  0.00  0.00    +0.159 HD
ATOM      8  H   UNL     1     -14.679 -14.192 -13.254  0.00  0.00    +0.159 HD
ATOM      9  H   UNL     1     -14.533 -13.900 -11.565  0.00  0.00    +0.159 HD
ENDROOT
BRANCH   1  10
ATOM     10  C   UNL     1     -12.916 -15.100 -14.886  0.00  0.00    +0.151 C 
BRANCH  10  11
ATOM     11  C   UNL     1     -12.174 -16.073 -15.760  0.00  0.00    -0.028 A 
ATOM     12  C   UNL     1     -10.841 -15.831 -16.123  0.00  0.00    +0.005 A 
ATOM     13  C   UNL     1     -12.797 -17.242 -16.223  0.00  0.00    +0.005 A 
ATOM     14  C   UNL     1     -10.143 -16.750 -16.910  0.00  0.00    +0.000 A 
ATOM     15  C   UNL     1     -12.096 -18.156 -17.010  0.00  0.00    +0.000 A 
ATOM     16  C   UNL     1     -10.768 -17.911 -17.351  0.00  0.00    +0.000 A 
ENDBRANCH  10  11
ENDBRANCH   1  10
TORSDOF 2
ENDMDL
MODEL 3
REMARK VINA RESULT:    -4.892     58.057     59.152
REMARK INTER + INTRA:          -5.579
REMARK INTER:                  -5.437
REMARK INTRA:                  -0.142
REMARK UNBOUND:                -0.115
REMARK  Name = 1550473
REMARK  2 active torsions:
REMARK  status: ('A' for Active; 'I' for Inactive)
REMARK    1  A    between atoms: N_1  and  C_4
REMARK    2  A    between atoms: C_4  and  C_5
REMARK                            x       y       z     vdW  Elec       q    Type
REMARK                         _______ _______ _______ _____ _____    ______ ____
ROOT
ATOM      1  N   UNL     1     -10.061 -17.152 -15.111  0.00  0.00    -0.354 N 
ATOM      2  N   UNL     1      -8.910 -19.114 -14.673  0.00  0.00    -0.372 N 
ATOM      3  N   UNL     1      -9.409 -18.582 -16.849  0.00  0.00    -0.372 N 
ATOM      4  C   UNL     1      -9.468 -18.270 -15.550  0.00  0.00    +0.166 C 
ATOM      5  H   UNL     1     -10.098 -16.988 -14.111  0.00  0.00    +0.163 HD
ATOM      6  H   UNL     1      -8.452 -19.963 -14.976  0.00  0.00    +0.159 HD
ATOM      7  H   UNL     1      -8.909 -18.924 -13.679  0.00  0.00    +0.159 HD
ATOM      8  H   UNL     1      -9.815 -17.990 -17.561  0.00  0.00    +0.159 HD
ATOM      9  H   UNL     1      -8.965 -19.433 -17.170  0.00  0.00    +0.159 HD
ENDROOT
BRANCH   1  10
ATOM     10  C   UNL     1     -10.651 -16.141 -15.986  0.00  0.00    +0.151 C 
BRANCH  10  11
ATOM     11  C   UNL     1     -12.066 -15.880 -15.552  0.00  0.00    -0.028 A 
ATOM     12  C   UNL     1     -12.401 -14.689 -14.891  0.00  0.00    +0.005 A 
ATOM     13  C   UNL     1     -13.080 -16.818 -15.803  0.00  0.00    +0.005 A 
ATOM     14  C   UNL     1     -13.721 -14.433 -14.514  0.00  0.00    +0.000 A 
ATOM     15  C   UNL     1     -14.397 -16.559 -15.424  0.00  0.00    +0.000 A 
ATOM     16  C   UNL     1     -14.718 -15.366 -14.782  0.00  0.00    +0.000 A 
ENDBRANCH  10  11
ENDBRANCH   1  10
TORSDOF 2
ENDMDL
MODEL 4
REMARK VINA RESULT:    -4.786     22.579     23.618
REMARK INTER + INTRA:          -5.461
REMARK INTER:                  -5.333
REMARK INTRA:                  -0.127
REMARK UNBOUND:                -0.115
REMARK  Name = 1550473
REMARK  2 active torsions:
REMARK  status: ('A' for Active; 'I' for Inactive)
REMARK    1  A    between atoms: N_1  and  C_4
REMARK    2  A    between atoms: C_4  and  C_5
REMARK                            x       y       z     vdW  Elec       q    Type
REMARK                         _______ _______ _______ _____ _____    ______ ____
ROOT
ATOM      1  N   UNL     1       1.366  23.696  40.545  0.00  0.00    -0.354 N 
ATOM      2  N   UNL     1      -0.118  23.190  42.250  0.00  0.00    -0.372 N 
ATOM      3  N   UNL     1       1.047  25.165  42.343  0.00  0.00    -0.372 N 
ATOM      4  C   UNL     1       0.776  24.022  41.702  0.00  0.00    +0.166 C 
ATOM      5  H   UNL     1       1.140  22.801  40.125  0.00  0.00    +0.163 HD
ATOM      6  H   UNL     1      -0.582  23.411  43.120  0.00  0.00    +0.159 HD
ATOM      7  H   UNL     1      -0.376  22.318  41.804  0.00  0.00    +0.159 HD
ATOM      8  H   UNL     1       1.716  25.833  41.986  0.00  0.00    +0.159 HD
ATOM      9  H   UNL     1       0.601  25.398  43.221  0.00  0.00    +0.159 HD
ENDROOT
BRANCH   1  10
ATOM     10  C   UNL     1       2.313  24.557  39.839  0.00  0.00    +0.151 C 
BRANCH  10  11
ATOM     11  C   UNL     1       2.350  24.160  38.388  0.00  0.00    -0.028 A 
ATOM     12  C   UNL     1       1.558  23.102  37.919  0.00  0.00    +0.005 A 
ATOM     13  C   UNL     1       3.172  24.842  37.477  0.00  0.00    +0.005 A 
ATOM     14  C   UNL     1       1.570  22.752  36.567  0.00  0.00    +0.000 A 
ATOM     15  C   UNL     1       3.181  24.489  36.128  0.00  0.00    +0.000 A 
ATOM     16  C   UNL     1       2.378  23.446  35.673  0.00  0.00    +0.000 A 
ENDBRANCH  10  11
ENDBRANCH   1  10
TORSDOF 2
ENDMDL
MODEL 5
REMARK VINA RESULT:    -4.755     38.308     39.932
REMARK INTER + INTRA:          -5.426
REMARK INTER:                  -5.314
REMARK INTRA:                  -0.112
REMARK UNBOUND:                -0.115
REMARK  Name = 1550473
REMARK  2 active torsions:
REMARK  status: ('A' for Active; 'I' for Inactive)
REMARK    1  A    between atoms: N_1  and  C_4
REMARK    2  A    between atoms: C_4  and  C_5
REMARK                            x       y       z     vdW  Elec       q    Type
REMARK                         _______ _______ _______ _____ _____    ______ ____
ROOT
ATOM      1  N   UNL     1       5.700  -6.701  -3.731  0.00  0.00    -0.354 N 
ATOM      2  N   UNL     1       5.038  -6.432  -1.528  0.00  0.00    -0.372 N 
ATOM      3  N   UNL     1       6.835  -5.233  -2.299  0.00  0.00    -0.372 N 
ATOM      4  C   UNL     1       5.864  -6.122  -2.534  0.00  0.00    +0.166 C 
ATOM      5  H   UNL     1       4.963  -7.389  -3.835  0.00  0.00    +0.163 HD
ATOM      6  H   UNL     1       5.135  -6.009  -0.614  0.00  0.00    +0.159 HD
ATOM      7  H   UNL     1       4.274  -7.086  -1.648  0.00  0.00    +0.159 HD
ATOM      8  H   UNL     1       7.496  -4.961  -3.015  0.00  0.00    +0.159 HD
ATOM      9  H   UNL     1       6.956  -4.808  -1.389  0.00  0.00    +0.159 HD
ENDROOT
BRANCH   1  10
ATOM     10  C   UNL     1       6.512  -6.392  -4.906  0.00  0.00    +0.151 C 
BRANCH  10  11
ATOM     11  C   UNL     1       5.971  -7.148  -6.089  0.00  0.00    -0.028 A 
ATOM     12  C   UNL     1       5.985  -6.573  -7.368  0.00  0.00    +0.005 A 
ATOM     13  C   UNL     1       5.449  -8.442  -5.938  0.00  0.00    +0.005 A 
ATOM     14  C   UNL     1       5.510  -7.286  -8.472  0.00  0.00    +0.000 A 
ATOM     15  C   UNL     1       4.975  -9.150  -7.042  0.00  0.00    +0.000 A 
ATOM     16  C   UNL     1       5.008  -8.573  -8.309  0.00  0.00    +0.000 A 
ENDBRANCH  10  11
ENDBRANCH   1  10
TORSDOF 2
ENDMDL
MODEL 6
REMARK VINA RESULT:    -4.591     20.268     21.639
REMARK INTER + INTRA:          -5.244
REMARK INTER:                  -5.137
REMARK INTRA:                  -0.106
REMARK UNBOUND:                -0.115
REMARK  Name = 1550473
REMARK  2 active torsions:
REMARK  status: ('A' for Active; 'I' for Inactive)
REMARK    1  A    between atoms: N_1  and  C_4
REMARK    2  A    between atoms: C_4  and  C_5
REMARK                            x       y       z     vdW  Elec       q    Type
REMARK                         _______ _______ _______ _____ _____    ______ ____
ROOT
ATOM      1  N   UNL     1      -4.582  13.744  25.743  0.00  0.00    -0.354 N 
ATOM      2  N   UNL     1      -4.212  11.908  27.105  0.00  0.00    -0.372 N 
ATOM      3  N   UNL     1      -3.243  13.912  27.659  0.00  0.00    -0.372 N 
ATOM      4  C   UNL     1      -4.013  13.202  26.828  0.00  0.00    +0.166 C 
ATOM      5  H   UNL     1      -5.130  13.145  25.136  0.00  0.00    +0.163 HD
ATOM      6  H   UNL     1      -3.799  11.472  27.918  0.00  0.00    +0.159 HD
ATOM      7  H   UNL     1      -4.798  11.322  26.522  0.00  0.00    +0.159 HD
ATOM      8  H   UNL     1      -3.049  14.892  27.503  0.00  0.00    +0.159 HD
ATOM      9  H   UNL     1      -2.811  13.491  28.472  0.00  0.00    +0.159 HD
ENDROOT
BRANCH   1  10
ATOM     10  C   UNL     1      -4.471  15.156  25.381  0.00  0.00    +0.151 C 
BRANCH  10  11
ATOM     11  C   UNL     1      -4.340  15.272  23.887  0.00  0.00    -0.028 A 
ATOM     12  C   UNL     1      -5.397  14.888  23.048  0.00  0.00    +0.005 A 
ATOM     13  C   UNL     1      -3.165  15.770  23.305  0.00  0.00    +0.005 A 
ATOM     14  C   UNL     1      -5.287  15.023  21.662  0.00  0.00    +0.000 A 
ATOM     15  C   UNL     1      -3.059  15.902  21.920  0.00  0.00    +0.000 A 
ATOM     16  C   UNL     1      -4.121  15.531  21.100  0.00  0.00    +0.000 A 
ENDBRANCH  10  11
ENDBRANCH   1  10
TORSDOF 2
ENDMDL
MODEL 7
REMARK VINA RESULT:    -4.499     23.077     24.390
REMARK INTER + INTRA:          -5.141
REMARK INTER:                  -5.002
REMARK INTRA:                  -0.139
REMARK UNBOUND:                -0.115
REMARK  Name = 1550473
REMARK  2 active torsions:
REMARK  status: ('A' for Active; 'I' for Inactive)
REMARK    1  A    between atoms: N_1  and  C_4
REMARK    2  A    between atoms: C_4  and  C_5
REMARK                            x       y       z     vdW  Elec       q    Type
REMARK                         _______ _______ _______ _____ _____    ______ ____
ROOT
ATOM      1  N   UNL     1      -5.064  11.161  13.918  0.00  0.00    -0.354 N 
ATOM      2  N   UNL     1      -4.411  13.123  14.961  0.00  0.00    -0.372 N 
ATOM      3  N   UNL     1      -5.370  11.463  16.222  0.00  0.00    -0.372 N 
ATOM      4  C   UNL     1      -4.954  11.901  15.029  0.00  0.00    +0.166 C 
ATOM      5  H   UNL     1      -4.758  11.562  13.039  0.00  0.00    +0.163 HD
ATOM      6  H   UNL     1      -4.312  13.704  15.783  0.00  0.00    +0.159 HD
ATOM      7  H   UNL     1      -4.064  13.504  14.089  0.00  0.00    +0.159 HD
ATOM      8  H   UNL     1      -5.794  10.552  16.340  0.00  0.00    +0.159 HD
ATOM      9  H   UNL     1      -5.290  12.034  17.054  0.00  0.00    +0.159 HD
ENDROOT
BRANCH   1  10
ATOM     10  C   UNL     1      -5.591   9.797  13.893  0.00  0.00    +0.151 C 
BRANCH  10  11
ATOM     11  C   UNL     1      -4.711   8.946  13.020  0.00  0.00    -0.028 A 
ATOM     12  C   UNL     1      -4.965   7.575  12.874  0.00  0.00    +0.005 A 
ATOM     13  C   UNL     1      -3.625   9.507  12.331  0.00  0.00    +0.005 A 
ATOM     14  C   UNL     1      -4.166   6.790  12.039  0.00  0.00    +0.000 A 
ATOM     15  C   UNL     1      -2.829   8.720  11.499  0.00  0.00    +0.000 A 
ATOM     16  C   UNL     1      -3.101   7.362  11.352  0.00  0.00    +0.000 A 
ENDBRANCH  10  11
ENDBRANCH   1  10
TORSDOF 2
ENDMDL
MODEL 8
REMARK VINA RESULT:    -4.438      2.765      4.804
REMARK INTER + INTRA:          -5.072
REMARK INTER:                  -4.958
REMARK INTRA:                  -0.114
REMARK UNBOUND:                -0.115
REMARK  Name = 1550473
REMARK  2 active torsions:
REMARK  status: ('A' for Active; 'I' for Inactive)
REMARK    1  A    between atoms: N_1  and  C_4
REMARK    2  A    between atoms: C_4  and  C_5
REMARK                            x       y       z     vdW  Elec       q    Type
REMARK                         _______ _______ _______ _____ _____    ______ ____
ROOT
ATOM      1  N   UNL     1      15.745  20.268  19.151  0.00  0.00    -0.354 N 
ATOM      2  N   UNL     1      14.465  18.837  20.447  0.00  0.00    -0.372 N 
ATOM      3  N   UNL     1      13.403  20.348  19.085  0.00  0.00    -0.372 N 
ATOM      4  C   UNL     1      14.544  19.828  19.551  0.00  0.00    +0.166 C 
ATOM      5  H   UNL     1      16.571  19.853  19.565  0.00  0.00    +0.163 HD
ATOM      6  H   UNL     1      13.573  18.482  20.765  0.00  0.00    +0.159 HD
ATOM      7  H   UNL     1      15.293  18.393  20.825  0.00  0.00    +0.159 HD
ATOM      8  H   UNL     1      13.394  21.102  18.411  0.00  0.00    +0.159 HD
ATOM      9  H   UNL     1      12.501  20.014  19.400  0.00  0.00    +0.159 HD
ENDROOT
BRANCH   1  10
ATOM     10  C   UNL     1      15.940  21.305  18.140  0.00  0.00    +0.151 C 
BRANCH  10  11
ATOM     11  C   UNL     1      16.624  22.485  18.774  0.00  0.00    -0.028 A 
ATOM     12  C   UNL     1      16.337  22.848  20.098  0.00  0.00    +0.005 A 
ATOM     13  C   UNL     1      17.565  23.241  18.057  0.00  0.00    +0.005 A 
ATOM     14  C   UNL     1      16.995  23.926  20.696  0.00  0.00    +0.000 A 
ATOM     15  C   UNL     1      18.219  24.316  18.658  0.00  0.00    +0.000 A 
ATOM     16  C   UNL     1      17.935  24.657  19.978  0.00  0.00    +0.000 A 
ENDBRANCH  10  11
ENDBRANCH   1  10
TORSDOF 2
ENDMDL
MODEL 9
REMARK VINA RESULT:    -4.280     58.499     59.518
REMARK INTER + INTRA:          -4.896
REMARK INTER:                  -4.715
REMARK INTRA:                  -0.182
REMARK UNBOUND:                -0.115
REMARK  Name = 1550473
REMARK  2 active torsions:
REMARK  status: ('A' for Active; 'I' for Inactive)
REMARK    1  A    between atoms: N_1  and  C_4
REMARK    2  A    between atoms: C_4  and  C_5
REMARK                            x       y       z     vdW  Elec       q    Type
REMARK                         _______ _______ _______ _____ _____    ______ ____
ROOT
ATOM      1  N   UNL     1     -13.429 -16.242 -13.447  0.00  0.00    -0.354 N 
ATOM      2  N   UNL     1     -13.375 -17.450 -11.471  0.00  0.00    -0.372 N 
ATOM      3  N   UNL     1     -14.511 -18.313 -13.268  0.00  0.00    -0.372 N 
ATOM      4  C   UNL     1     -13.774 -17.328 -12.743  0.00  0.00    +0.166 C 
ATOM      5  H   UNL     1     -12.894 -15.517 -12.982  0.00  0.00    +0.163 HD
ATOM      6  H   UNL     1     -13.617 -18.260 -10.916  0.00  0.00    +0.159 HD
ATOM      7  H   UNL     1     -12.801 -16.745 -11.023  0.00  0.00    +0.159 HD
ATOM      8  H   UNL     1     -14.849 -18.279 -14.221  0.00  0.00    +0.159 HD
ATOM      9  H   UNL     1     -14.773 -19.126 -12.725  0.00  0.00    +0.159 HD
ENDROOT
BRANCH   1  10
ATOM     10  C   UNL     1     -13.767 -16.038 -14.854  0.00  0.00    +0.151 C 
BRANCH  10  11
ATOM     11  C   UNL     1     -12.605 -16.470 -15.706  0.00  0.00    -0.028 A 
ATOM     12  C   UNL     1     -11.433 -15.701 -15.756  0.00  0.00    +0.005 A 
ATOM     13  C   UNL     1     -12.667 -17.652 -16.460  0.00  0.00    +0.005 A 
ATOM     14  C   UNL     1     -10.343 -16.118 -16.523  0.00  0.00    +0.000 A 
ATOM     15  C   UNL     1     -11.577 -18.064 -17.226  0.00  0.00    +0.000 A 
ATOM     16  C   UNL     1     -10.414 -17.298 -17.255  0.00  0.00    +0.000 A 
ENDBRANCH  10  11
ENDBRANCH   1  10
TORSDOF 2
ENDMDL
