MODEL 1
REMARK VINA RESULT:    -7.147      0.000      0.000
REMARK INTER + INTRA:          -8.130
REMARK INTER:                  -7.983
REMARK INTRA:                  -0.147
REMARK UNBOUND:                -0.147
REMARK  Name = 1550473
REMARK  2 active torsions:
REMARK  status: ('A' for Active; 'I' for Inactive)
REMARK    1  A    between atoms: N_1  and  C_4
REMARK    2  A    between atoms: C_4  and  C_5
REMARK                            x       y       z     vdW  Elec       q    Type
REMARK                         _______ _______ _______ _____ _____    ______ ____
ROOT
ATOM      1  N   UNL     1       5.947   4.654  -9.608  0.00  0.00    -0.354 N 
ATOM      2  N   UNL     1       7.445   4.683 -11.374  0.00  0.00    -0.372 N 
ATOM      3  N   UNL     1       5.900   2.990 -11.258  0.00  0.00    -0.372 N 
ATOM      4  C   UNL     1       6.420   4.106 -10.736  0.00  0.00    +0.166 C 
ATOM      5  H   UNL     1       6.404   5.484  -9.248  0.00  0.00    +0.163 HD
ATOM      6  H   UNL     1       7.821   4.294 -12.229  0.00  0.00    +0.159 HD
ATOM      7  H   UNL     1       7.870   5.538 -11.037  0.00  0.00    +0.159 HD
ATOM      8  H   UNL     1       5.129   2.503 -10.821  0.00  0.00    +0.159 HD
ATOM      9  H   UNL     1       6.270   2.579 -12.106  0.00  0.00    +0.159 HD
ENDROOT
BRANCH   1  10
ATOM     10  C   UNL     1       4.800   4.135  -8.866  0.00  0.00    +0.151 C 
BRANCH  10  11
ATOM     11  C   UNL     1       5.220   3.845  -7.451  0.00  0.00    -0.028 A 
ATOM     12  C   UNL     1       6.485   4.239  -6.990  0.00  0.00    +0.005 A 
ATOM     13  C   UNL     1       4.357   3.182  -6.566  0.00  0.00    +0.005 A 
ATOM     14  C   UNL     1       6.865   3.996  -5.668  0.00  0.00    +0.000 A 
ATOM     15  C   UNL     1       4.740   2.941  -5.247  0.00  0.00    +0.000 A 
ATOM     16  C   UNL     1       5.993   3.350  -4.797  0.00  0.00    +0.000 A 
ENDBRANCH  10  11
ENDBRANCH   1  10
TORSDOF 2
ENDMDL
MODEL 2
REMARK VINA RESULT:    -6.783      3.382      5.044
REMARK INTER + INTRA:          -7.723
REMARK INTER:                  -7.591
REMARK INTRA:                  -0.132
REMARK UNBOUND:                -0.147
REMARK  Name = 1550473
REMARK  2 active torsions:
REMARK  status: ('A' for Active; 'I' for Inactive)
REMARK    1  A    between atoms: N_1  and  C_4
REMARK    2  A    between atoms: C_4  and  C_5
REMARK                            x       y       z     vdW  Elec       q    Type
REMARK                         _______ _______ _______ _____ _____    ______ ____
ROOT
ATOM      1  N   UNL     1       5.698   2.168  -5.601  0.00  0.00    -0.354 N 
ATOM      2  N   UNL     1       4.716   0.503  -4.325  0.00  0.00    -0.372 N 
ATOM      3  N   UNL     1       5.602   2.335  -3.266  0.00  0.00    -0.372 N 
ATOM      4  C   UNL     1       5.346   1.681  -4.404  0.00  0.00    +0.166 C 
ATOM      5  H   UNL     1       5.502   1.609  -6.424  0.00  0.00    +0.163 HD
ATOM      6  H   UNL     1       4.435   0.112  -3.436  0.00  0.00    +0.159 HD
ATOM      7  H   UNL     1       4.480  -0.031  -5.153  0.00  0.00    +0.159 HD
ATOM      8  H   UNL     1       6.080   3.226  -3.256  0.00  0.00    +0.159 HD
ATOM      9  H   UNL     1       5.339   1.954  -2.365  0.00  0.00    +0.159 HD
ENDROOT
BRANCH   1  10
ATOM     10  C   UNL     1       6.340   3.466  -5.800  0.00  0.00    +0.151 C 
BRANCH  10  11
ATOM     11  C   UNL     1       5.875   4.049  -7.106  0.00  0.00    -0.028 A 
ATOM     12  C   UNL     1       6.635   5.031  -7.757  0.00  0.00    +0.005 A 
ATOM     13  C   UNL     1       4.678   3.619  -7.700  0.00  0.00    +0.005 A 
ATOM     14  C   UNL     1       6.219   5.552  -8.985  0.00  0.00    +0.000 A 
ATOM     15  C   UNL     1       4.266   4.142  -8.925  0.00  0.00    +0.000 A 
ATOM     16  C   UNL     1       5.038   5.106  -9.569  0.00  0.00    +0.000 A 
ENDBRANCH  10  11
ENDBRANCH   1  10
TORSDOF 2
ENDMDL
MODEL 3
REMARK VINA RESULT:    -5.952     17.232     17.832
REMARK INTER + INTRA:          -6.795
REMARK INTER:                  -6.686
REMARK INTRA:                  -0.109
REMARK UNBOUND:                -0.147
REMARK  Name = 1550473
REMARK  2 active torsions:
REMARK  status: ('A' for Active; 'I' for Inactive)
REMARK    1  A    between atoms: N_1  and  C_4
REMARK    2  A    between atoms: C_4  and  C_5
REMARK                            x       y       z     vdW  Elec       q    Type
REMARK                         _______ _______ _______ _____ _____    ______ ____
ROOT
ATOM      1  N   UNL     1       3.051   2.206   9.325  0.00  0.00    -0.354 N 
ATOM      2  N   UNL     1       1.983   0.464   8.234  0.00  0.00    -0.372 N 
ATOM      3  N   UNL     1       0.731   1.917   9.493  0.00  0.00    -0.372 N 
ATOM      4  C   UNL     1       1.926   1.541   9.026  0.00  0.00    +0.166 C 
ATOM      5  H   UNL     1       3.929   1.852   8.964  0.00  0.00    +0.163 HD
ATOM      6  H   UNL     1       1.151  -0.056   7.988  0.00  0.00    +0.159 HD
ATOM      7  H   UNL     1       2.857   0.140   7.837  0.00  0.00    +0.159 HD
ATOM      8  H   UNL     1       0.621   2.718  10.100  0.00  0.00    +0.159 HD
ATOM      9  H   UNL     1      -0.112   1.403   9.268  0.00  0.00    +0.159 HD
ENDROOT
BRANCH   1  10
ATOM     10  C   UNL     1       3.091   3.422  10.135  0.00  0.00    +0.151 C 
BRANCH  10  11
ATOM     11  C   UNL     1       4.243   4.276   9.682  0.00  0.00    -0.028 A 
ATOM     12  C   UNL     1       5.520   3.720   9.519  0.00  0.00    +0.005 A 
ATOM     13  C   UNL     1       4.062   5.640   9.408  0.00  0.00    +0.005 A 
ATOM     14  C   UNL     1       6.584   4.506   9.069  0.00  0.00    +0.000 A 
ATOM     15  C   UNL     1       5.127   6.422   8.961  0.00  0.00    +0.000 A 
ATOM     16  C   UNL     1       6.387   5.854   8.789  0.00  0.00    +0.000 A 
ENDBRANCH  10  11
ENDBRANCH   1  10
TORSDOF 2
ENDMDL
MODEL 4
REMARK VINA RESULT:    -5.772     20.640     22.317
REMARK INTER + INTRA:          -6.594
REMARK INTER:                  -6.452
REMARK INTRA:                  -0.143
REMARK UNBOUND:                -0.147
REMARK  Name = 1550473
REMARK  2 active torsions:
REMARK  status: ('A' for Active; 'I' for Inactive)
REMARK    1  A    between atoms: N_1  and  C_4
REMARK    2  A    between atoms: C_4  and  C_5
REMARK                            x       y       z     vdW  Elec       q    Type
REMARK                         _______ _______ _______ _____ _____    ______ ____
ROOT
ATOM      1  N   UNL     1      -3.514   3.001  11.576  0.00  0.00    -0.354 N 
ATOM      2  N   UNL     1      -2.113   1.234  11.048  0.00  0.00    -0.372 N 
ATOM      3  N   UNL     1      -2.662   2.742   9.408  0.00  0.00    -0.372 N 
ATOM      4  C   UNL     1      -2.772   2.339  10.678  0.00  0.00    +0.166 C 
ATOM      5  H   UNL     1      -3.581   2.627  12.515  0.00  0.00    +0.163 HD
ATOM      6  H   UNL     1      -1.543   0.715  10.394  0.00  0.00    +0.159 HD
ATOM      7  H   UNL     1      -2.145   0.888  11.999  0.00  0.00    +0.159 HD
ATOM      8  H   UNL     1      -3.139   3.565   9.064  0.00  0.00    +0.159 HD
ATOM      9  H   UNL     1      -2.105   2.229   8.735  0.00  0.00    +0.159 HD
ENDROOT
BRANCH   1  10
ATOM     10  C   UNL     1      -4.228   4.244  11.288  0.00  0.00    +0.151 C 
BRANCH  10  11
ATOM     11  C   UNL     1      -3.843   5.279  12.310  0.00  0.00    -0.028 A 
ATOM     12  C   UNL     1      -2.517   5.725  12.406  0.00  0.00    +0.005 A 
ATOM     13  C   UNL     1      -4.801   5.821  13.180  0.00  0.00    +0.005 A 
ATOM     14  C   UNL     1      -2.165   6.708  13.335  0.00  0.00    +0.000 A 
ATOM     15  C   UNL     1      -4.446   6.802  14.106  0.00  0.00    +0.000 A 
ATOM     16  C   UNL     1      -3.128   7.247  14.181  0.00  0.00    +0.000 A 
ENDBRANCH  10  11
ENDBRANCH   1  10
TORSDOF 2
ENDMDL
MODEL 5
REMARK VINA RESULT:    -5.567     17.108     18.003
REMARK INTER + INTRA:          -6.365
REMARK INTER:                  -6.302
REMARK INTRA:                  -0.064
REMARK UNBOUND:                -0.147
REMARK  Name = 1550473
REMARK  2 active torsions:
REMARK  status: ('A' for Active; 'I' for Inactive)
REMARK    1  A    between atoms: N_1  and  C_4
REMARK    2  A    between atoms: C_4  and  C_5
REMARK                            x       y       z     vdW  Elec       q    Type
REMARK                         _______ _______ _______ _____ _____    ______ ____
ROOT
ATOM      1  N   UNL     1       3.101  10.139   8.148  0.00  0.00    -0.354 N 
ATOM      2  N   UNL     1       0.906  10.399   8.840  0.00  0.00    -0.372 N 
ATOM      3  N   UNL     1       2.598  10.888  10.311  0.00  0.00    -0.372 N 
ATOM      4  C   UNL     1       2.217  10.474   9.098  0.00  0.00    +0.166 C 
ATOM      5  H   UNL     1       2.748   9.804   7.259  0.00  0.00    +0.163 HD
ATOM      6  H   UNL     1       0.216  10.649   9.536  0.00  0.00    +0.159 HD
ATOM      7  H   UNL     1       0.556  10.109   7.935  0.00  0.00    +0.159 HD
ATOM      8  H   UNL     1       3.573  10.960  10.570  0.00  0.00    +0.159 HD
ATOM      9  H   UNL     1       1.922  11.131  11.024  0.00  0.00    +0.159 HD
ENDROOT
BRANCH   1  10
ATOM     10  C   UNL     1       4.550  10.237   8.308  0.00  0.00    +0.151 C 
BRANCH  10  11
ATOM     11  C   UNL     1       5.127   8.852   8.410  0.00  0.00    -0.028 A 
ATOM     12  C   UNL     1       4.328   7.776   8.824  0.00  0.00    +0.005 A 
ATOM     13  C   UNL     1       6.471   8.607   8.087  0.00  0.00    +0.005 A 
ATOM     14  C   UNL     1       4.856   6.484   8.889  0.00  0.00    +0.000 A 
ATOM     15  C   UNL     1       6.995   7.316   8.155  0.00  0.00    +0.000 A 
ATOM     16  C   UNL     1       6.186   6.255   8.553  0.00  0.00    +0.000 A 
ENDBRANCH  10  11
ENDBRANCH   1  10
TORSDOF 2
ENDMDL
MODEL 6
REMARK VINA RESULT:    -5.537     16.275     17.818
REMARK INTER + INTRA:          -6.331
REMARK INTER:                  -6.235
REMARK INTRA:                  -0.096
REMARK UNBOUND:                -0.147
REMARK  Name = 1550473
REMARK  2 active torsions:
REMARK  status: ('A' for Active; 'I' for Inactive)
REMARK    1  A    between atoms: N_1  and  C_4
REMARK    2  A    between atoms: C_4  and  C_5
REMARK                            x       y       z     vdW  Elec       q    Type
REMARK                         _______ _______ _______ _____ _____    ______ ____
ROOT
ATOM      1  N   UNL     1       4.564  12.186   6.603  0.00  0.00    -0.354 N 
ATOM      2  N   UNL     1       5.084  13.804   5.028  0.00  0.00    -0.372 N 
ATOM      3  N   UNL     1       5.561  11.608   4.562  0.00  0.00    -0.372 N 
ATOM      4  C   UNL     1       5.067  12.520   5.407  0.00  0.00    +0.166 C 
ATOM      5  H   UNL     1       4.233  12.928   7.209  0.00  0.00    +0.163 HD
ATOM      6  H   UNL     1       5.454  14.085   4.130  0.00  0.00    +0.159 HD
ATOM      7  H   UNL     1       4.711  14.538   5.618  0.00  0.00    +0.159 HD
ATOM      8  H   UNL     1       5.583  10.623   4.790  0.00  0.00    +0.159 HD
ATOM      9  H   UNL     1       5.946  11.872   3.664  0.00  0.00    +0.159 HD
ENDROOT
BRANCH   1  10
ATOM     10  C   UNL     1       4.450  10.812   7.087  0.00  0.00    +0.151 C 
BRANCH  10  11
ATOM     11  C   UNL     1       3.767  10.819   8.427  0.00  0.00    -0.028 A 
ATOM     12  C   UNL     1       4.395  11.389   9.544  0.00  0.00    +0.005 A 
ATOM     13  C   UNL     1       2.488  10.262   8.584  0.00  0.00    +0.005 A 
ATOM     14  C   UNL     1       3.748  11.422  10.781  0.00  0.00    +0.000 A 
ATOM     15  C   UNL     1       1.846  10.296   9.822  0.00  0.00    +0.000 A 
ATOM     16  C   UNL     1       2.475  10.879  10.920  0.00  0.00    +0.000 A 
ENDBRANCH  10  11
ENDBRANCH   1  10
TORSDOF 2
ENDMDL
MODEL 7
REMARK VINA RESULT:    -5.222     16.188     16.659
REMARK INTER + INTRA:          -5.980
REMARK INTER:                  -5.861
REMARK INTRA:                  -0.120
REMARK UNBOUND:                -0.147
REMARK  Name = 1550473
REMARK  2 active torsions:
REMARK  status: ('A' for Active; 'I' for Inactive)
REMARK    1  A    between atoms: N_1  and  C_4
REMARK    2  A    between atoms: C_4  and  C_5
REMARK                            x       y       z     vdW  Elec       q    Type
REMARK                         _______ _______ _______ _____ _____    ______ ____
ROOT
ATOM      1  N   UNL     1       5.043  10.645   6.863  0.00  0.00    -0.354 N 
ATOM      2  N   UNL     1       3.803  12.119   5.577  0.00  0.00    -0.372 N 
ATOM      3  N   UNL     1       6.093  12.205   5.465  0.00  0.00    -0.372 N 
ATOM      4  C   UNL     1       4.990  11.647   5.976  0.00  0.00    +0.166 C 
ATOM      5  H   UNL     1       4.171  10.286   7.236  0.00  0.00    +0.163 HD
ATOM      6  H   UNL     1       3.731  12.872   4.906  0.00  0.00    +0.159 HD
ATOM      7  H   UNL     1       2.932  11.727   5.916  0.00  0.00    +0.159 HD
ATOM      8  H   UNL     1       7.020  11.899   5.730  0.00  0.00    +0.159 HD
ATOM      9  H   UNL     1       6.042  12.968   4.801  0.00  0.00    +0.159 HD
ENDROOT
BRANCH   1  10
ATOM     10  C   UNL     1       6.284  10.024   7.323  0.00  0.00    +0.151 C 
BRANCH  10  11
ATOM     11  C   UNL     1       5.970   8.676   7.912  0.00  0.00    -0.028 A 
ATOM     12  C   UNL     1       4.695   8.406   8.431  0.00  0.00    +0.005 A 
ATOM     13  C   UNL     1       6.941   7.664   7.949  0.00  0.00    +0.005 A 
ATOM     14  C   UNL     1       4.394   7.145   8.951  0.00  0.00    +0.000 A 
ATOM     15  C   UNL     1       6.636   6.406   8.470  0.00  0.00    +0.000 A 
ATOM     16  C   UNL     1       5.362   6.147   8.969  0.00  0.00    +0.000 A 
ENDBRANCH  10  11
ENDBRANCH   1  10
TORSDOF 2
ENDMDL
MODEL 8
REMARK VINA RESULT:    -5.189     16.876     17.303
REMARK INTER + INTRA:          -5.943
REMARK INTER:                  -5.820
REMARK INTRA:                  -0.123
REMARK UNBOUND:                -0.147
REMARK  Name = 1550473
REMARK  2 active torsions:
REMARK  status: ('A' for Active; 'I' for Inactive)
REMARK    1  A    between atoms: N_1  and  C_4
REMARK    2  A    between atoms: C_4  and  C_5
REMARK                            x       y       z     vdW  Elec       q    Type
REMARK                         _______ _______ _______ _____ _____    ______ ____
ROOT
ATOM      1  N   UNL     1       4.846   9.579   8.224  0.00  0.00    -0.354 N 
ATOM      2  N   UNL     1       4.496  11.828   7.796  0.00  0.00    -0.372 N 
ATOM      3  N   UNL     1       2.681  10.472   8.157  0.00  0.00    -0.372 N 
ATOM      4  C   UNL     1       4.007  10.611   8.062  0.00  0.00    +0.166 C 
ATOM      5  H   UNL     1       5.840   9.744   8.110  0.00  0.00    +0.163 HD
ATOM      6  H   UNL     1       3.888  12.626   7.672  0.00  0.00    +0.159 HD
ATOM      7  H   UNL     1       5.492  11.999   7.727  0.00  0.00    +0.159 HD
ATOM      8  H   UNL     1       2.248   9.578   8.350  0.00  0.00    +0.159 HD
ATOM      9  H   UNL     1       2.055  11.257   8.024  0.00  0.00    +0.159 HD
ENDROOT
BRANCH   1  10
ATOM     10  C   UNL     1       4.419   8.224   8.570  0.00  0.00    +0.151 C 
BRANCH  10  11
ATOM     11  C   UNL     1       5.607   7.304   8.508  0.00  0.00    -0.028 A 
ATOM     12  C   UNL     1       5.502   5.976   8.947  0.00  0.00    +0.005 A 
ATOM     13  C   UNL     1       6.839   7.752   8.007  0.00  0.00    +0.005 A 
ATOM     14  C   UNL     1       6.597   5.112   8.862  0.00  0.00    +0.000 A 
ATOM     15  C   UNL     1       7.929   6.887   7.925  0.00  0.00    +0.000 A 
ATOM     16  C   UNL     1       7.807   5.566   8.350  0.00  0.00    +0.000 A 
ENDBRANCH  10  11
ENDBRANCH   1  10
TORSDOF 2
ENDMDL
MODEL 9
REMARK VINA RESULT:    -4.911     16.340     17.374
REMARK INTER + INTRA:          -5.632
REMARK INTER:                  -5.488
REMARK INTRA:                  -0.144
REMARK UNBOUND:                -0.147
REMARK  Name = 1550473
REMARK  2 active torsions:
REMARK  status: ('A' for Active; 'I' for Inactive)
REMARK    1  A    between atoms: N_1  and  C_4
REMARK    2  A    between atoms: C_4  and  C_5
REMARK                            x       y       z     vdW  Elec       q    Type
REMARK                         _______ _______ _______ _____ _____    ______ ____
ROOT
ATOM      1  N   UNL     1       6.652   3.936   8.546  0.00  0.00    -0.354 N 
ATOM      2  N   UNL     1       6.192   2.711  10.457  0.00  0.00    -0.372 N 
ATOM      3  N   UNL     1       8.229   3.750  10.270  0.00  0.00    -0.372 N 
ATOM      4  C   UNL     1       7.030   3.475   9.746  0.00  0.00    +0.166 C 
ATOM      5  H   UNL     1       5.741   3.666   8.192  0.00  0.00    +0.163 HD
ATOM      6  H   UNL     1       6.449   2.351  11.367  0.00  0.00    +0.159 HD
ATOM      7  H   UNL     1       5.265   2.481  10.121  0.00  0.00    +0.159 HD
ATOM      8  H   UNL     1       8.910   4.316   9.780  0.00  0.00    +0.159 HD
ATOM      9  H   UNL     1       8.509   3.390  11.173  0.00  0.00    +0.159 HD
ENDROOT
BRANCH   1  10
ATOM     10  C   UNL     1       7.468   4.819   7.715  0.00  0.00    +0.151 C 
BRANCH  10  11
ATOM     11  C   UNL     1       7.042   6.243   7.946  0.00  0.00    -0.028 A 
ATOM     12  C   UNL     1       7.966   7.291   7.824  0.00  0.00    +0.005 A 
ATOM     13  C   UNL     1       5.715   6.551   8.281  0.00  0.00    +0.005 A 
ATOM     14  C   UNL     1       7.564   8.616   8.009  0.00  0.00    +0.000 A 
ATOM     15  C   UNL     1       5.318   7.875   8.465  0.00  0.00    +0.000 A 
ATOM     16  C   UNL     1       6.242   8.908   8.327  0.00  0.00    +0.000 A 
ENDBRANCH  10  11
ENDBRANCH   1  10
TORSDOF 2
ENDMDL
