MODEL 1
REMARK VINA RESULT:    -6.108      0.000      0.000
REMARK INTER + INTRA:          -6.920
REMARK INTER:                  -6.822
REMARK INTRA:                  -0.098
REMARK UNBOUND:                -0.098
REMARK  Name = 1550473
REMARK  2 active torsions:
REMARK  status: ('A' for Active; 'I' for Inactive)
REMARK    1  A    between atoms: N_1  and  C_4
REMARK    2  A    between atoms: C_4  and  C_5
REMARK                            x       y       z     vdW  Elec       q    Type
REMARK                         _______ _______ _______ _____ _____    ______ ____
ROOT
ATOM      1  N   UNL     1      13.317   5.419   6.552  0.00  0.00    -0.354 N 
ATOM      2  N   UNL     1      13.256   7.206   8.023  0.00  0.00    -0.372 N 
ATOM      3  N   UNL     1      14.823   5.561   8.342  0.00  0.00    -0.372 N 
ATOM      4  C   UNL     1      13.801   6.049   7.631  0.00  0.00    +0.166 C 
ATOM      5  H   UNL     1      12.521   5.825   6.074  0.00  0.00    +0.163 HD
ATOM      6  H   UNL     1      13.602   7.706   8.831  0.00  0.00    +0.159 HD
ATOM      7  H   UNL     1      12.490   7.634   7.517  0.00  0.00    +0.159 HD
ATOM      8  H   UNL     1      15.275   4.689   8.101  0.00  0.00    +0.159 HD
ATOM      9  H   UNL     1      15.176   6.041   9.160  0.00  0.00    +0.159 HD
ENDROOT
BRANCH   1  10
ATOM     10  C   UNL     1      13.874   4.181   6.010  0.00  0.00    +0.151 C 
BRANCH  10  11
ATOM     11  C   UNL     1      13.198   3.869   4.703  0.00  0.00    -0.028 A 
ATOM     12  C   UNL     1      11.822   3.599   4.659  0.00  0.00    +0.005 A 
ATOM     13  C   UNL     1      13.927   3.849   3.504  0.00  0.00    +0.005 A 
ATOM     14  C   UNL     1      11.189   3.340   3.441  0.00  0.00    +0.000 A 
ATOM     15  C   UNL     1      13.291   3.589   2.290  0.00  0.00    +0.000 A 
ATOM     16  C   UNL     1      11.921   3.336   2.259  0.00  0.00    +0.000 A 
ENDBRANCH  10  11
ENDBRANCH   1  10
TORSDOF 2
ENDMDL
MODEL 2
REMARK VINA RESULT:    -5.732      7.066      8.859
REMARK INTER + INTRA:          -6.500
REMARK INTER:                  -6.330
REMARK INTRA:                  -0.170
REMARK UNBOUND:                -0.098
REMARK  Name = 1550473
REMARK  2 active torsions:
REMARK  status: ('A' for Active; 'I' for Inactive)
REMARK    1  A    between atoms: N_1  and  C_4
REMARK    2  A    between atoms: C_4  and  C_5
REMARK                            x       y       z     vdW  Elec       q    Type
REMARK                         _______ _______ _______ _____ _____    ______ ____
ROOT
ATOM      1  N   UNL     1       7.755   1.177  -1.378  0.00  0.00    -0.354 N 
ATOM      2  N   UNL     1       5.498   0.663  -1.321  0.00  0.00    -0.372 N 
ATOM      3  N   UNL     1       6.145   2.735  -2.065  0.00  0.00    -0.372 N 
ATOM      4  C   UNL     1       6.481   1.531  -1.589  0.00  0.00    +0.166 C 
ATOM      5  H   UNL     1       7.942   0.261  -0.987  0.00  0.00    +0.163 HD
ATOM      6  H   UNL     1       4.527   0.901  -1.473  0.00  0.00    +0.159 HD
ATOM      7  H   UNL     1       5.690  -0.268  -0.973  0.00  0.00    +0.159 HD
ATOM      8  H   UNL     1       6.839   3.438  -2.281  0.00  0.00    +0.159 HD
ATOM      9  H   UNL     1       5.178   2.996  -2.213  0.00  0.00    +0.159 HD
ENDROOT
BRANCH   1  10
ATOM     10  C   UNL     1       8.903   2.029  -1.687  0.00  0.00    +0.151 C 
BRANCH  10  11
ATOM     11  C   UNL     1       9.570   2.440  -0.404  0.00  0.00    -0.028 A 
ATOM     12  C   UNL     1      10.727   1.784   0.040  0.00  0.00    +0.005 A 
ATOM     13  C   UNL     1       9.052   3.490   0.370  0.00  0.00    +0.005 A 
ATOM     14  C   UNL     1      11.364   2.185   1.216  0.00  0.00    +0.000 A 
ATOM     15  C   UNL     1       9.691   3.888   1.545  0.00  0.00    +0.000 A 
ATOM     16  C   UNL     1      10.848   3.237   1.966  0.00  0.00    +0.000 A 
ENDBRANCH  10  11
ENDBRANCH   1  10
TORSDOF 2
ENDMDL
MODEL 3
REMARK VINA RESULT:    -5.706     10.012     11.684
REMARK INTER + INTRA:          -6.470
REMARK INTER:                  -6.288
REMARK INTRA:                  -0.183
REMARK UNBOUND:                -0.098
REMARK  Name = 1550473
REMARK  2 active torsions:
REMARK  status: ('A' for Active; 'I' for Inactive)
REMARK    1  A    between atoms: N_1  and  C_4
REMARK    2  A    between atoms: C_4  and  C_5
REMARK                            x       y       z     vdW  Elec       q    Type
REMARK                         _______ _______ _______ _____ _____    ______ ____
ROOT
ATOM      1  N   UNL     1      11.775  17.444   7.372  0.00  0.00    -0.354 N 
ATOM      2  N   UNL     1      12.579  19.364   6.357  0.00  0.00    -0.372 N 
ATOM      3  N   UNL     1      13.802  18.408   8.046  0.00  0.00    -0.372 N 
ATOM      4  C   UNL     1      12.716  18.392   7.267  0.00  0.00    +0.166 C 
ATOM      5  H   UNL     1      10.961  17.505   6.773  0.00  0.00    +0.163 HD
ATOM      6  H   UNL     1      13.274  20.091   6.252  0.00  0.00    +0.159 HD
ATOM      7  H   UNL     1      11.786  19.397   5.727  0.00  0.00    +0.159 HD
ATOM      8  H   UNL     1      13.962  17.706   8.757  0.00  0.00    +0.159 HD
ATOM      9  H   UNL     1      14.503  19.134   7.964  0.00  0.00    +0.159 HD
ENDROOT
BRANCH   1  10
ATOM     10  C   UNL     1      11.855  16.312   8.294  0.00  0.00    +0.151 C 
BRANCH  10  11
ATOM     11  C   UNL     1      12.331  15.099   7.543  0.00  0.00    -0.028 A 
ATOM     12  C   UNL     1      11.575  14.576   6.484  0.00  0.00    +0.005 A 
ATOM     13  C   UNL     1      13.539  14.472   7.882  0.00  0.00    +0.005 A 
ATOM     14  C   UNL     1      12.031  13.467   5.767  0.00  0.00    +0.000 A 
ATOM     15  C   UNL     1      13.991  13.365   7.164  0.00  0.00    +0.000 A 
ATOM     16  C   UNL     1      13.238  12.864   6.105  0.00  0.00    +0.000 A 
ENDBRANCH  10  11
ENDBRANCH   1  10
TORSDOF 2
ENDMDL
MODEL 4
REMARK VINA RESULT:    -5.578      3.714      4.706
REMARK INTER + INTRA:          -6.328
REMARK INTER:                  -6.155
REMARK INTRA:                  -0.173
REMARK UNBOUND:                -0.098
REMARK  Name = 1550473
REMARK  2 active torsions:
REMARK  status: ('A' for Active; 'I' for Inactive)
REMARK    1  A    between atoms: N_1  and  C_4
REMARK    2  A    between atoms: C_4  and  C_5
REMARK                            x       y       z     vdW  Elec       q    Type
REMARK                         _______ _______ _______ _____ _____    ______ ____
ROOT
ATOM      1  N   UNL     1      15.553   1.033   2.903  0.00  0.00    -0.354 N 
ATOM      2  N   UNL     1      16.382  -0.398   4.525  0.00  0.00    -0.372 N 
ATOM      3  N   UNL     1      17.115   1.776   4.485  0.00  0.00    -0.372 N 
ATOM      4  C   UNL     1      16.346   0.815   3.961  0.00  0.00    +0.166 C 
ATOM      5  H   UNL     1      15.018   0.255   2.535  0.00  0.00    +0.163 HD
ATOM      6  H   UNL     1      16.968  -0.591   5.326  0.00  0.00    +0.159 HD
ATOM      7  H   UNL     1      15.811  -1.161   4.183  0.00  0.00    +0.159 HD
ATOM      8  H   UNL     1      17.138   2.712   4.102  0.00  0.00    +0.159 HD
ATOM      9  H   UNL     1      17.717   1.599   5.279  0.00  0.00    +0.159 HD
ENDROOT
BRANCH   1  10
ATOM     10  C   UNL     1      15.401   2.331   2.249  0.00  0.00    +0.151 C 
BRANCH  10  11
ATOM     11  C   UNL     1      14.043   2.889   2.574  0.00  0.00    -0.028 A 
ATOM     12  C   UNL     1      13.873   3.763   3.658  0.00  0.00    +0.005 A 
ATOM     13  C   UNL     1      12.923   2.552   1.798  0.00  0.00    +0.005 A 
ATOM     14  C   UNL     1      12.617   4.304   3.942  0.00  0.00    +0.000 A 
ATOM     15  C   UNL     1      11.670   3.094   2.086  0.00  0.00    +0.000 A 
ATOM     16  C   UNL     1      11.518   3.972   3.156  0.00  0.00    +0.000 A 
ENDBRANCH  10  11
ENDBRANCH   1  10
TORSDOF 2
ENDMDL
MODEL 5
REMARK VINA RESULT:    -5.372      9.381     10.687
REMARK INTER + INTRA:          -6.098
REMARK INTER:                  -5.947
REMARK INTRA:                  -0.151
REMARK UNBOUND:                -0.098
REMARK  Name = 1550473
REMARK  2 active torsions:
REMARK  status: ('A' for Active; 'I' for Inactive)
REMARK    1  A    between atoms: N_1  and  C_4
REMARK    2  A    between atoms: C_4  and  C_5
REMARK                            x       y       z     vdW  Elec       q    Type
REMARK                         _______ _______ _______ _____ _____    ______ ____
ROOT
ATOM      1  N   UNL     1      10.864  15.698   8.787  0.00  0.00    -0.354 N 
ATOM      2  N   UNL     1      10.214  15.282  10.971  0.00  0.00    -0.372 N 
ATOM      3  N   UNL     1      12.402  15.828  10.550  0.00  0.00    -0.372 N 
ATOM      4  C   UNL     1      11.167  15.606  10.089  0.00  0.00    +0.166 C 
ATOM      5  H   UNL     1       9.915  15.488   8.498  0.00  0.00    +0.163 HD
ATOM      6  H   UNL     1      10.412  15.209  11.960  0.00  0.00    +0.159 HD
ATOM      7  H   UNL     1       9.256  15.118  10.685  0.00  0.00    +0.159 HD
ATOM      8  H   UNL     1      13.168  16.070   9.935  0.00  0.00    +0.159 HD
ATOM      9  H   UNL     1      12.623  15.748  11.535  0.00  0.00    +0.159 HD
ENDROOT
BRANCH   1  10
ATOM     10  C   UNL     1      11.816  16.096   7.752  0.00  0.00    +0.151 C 
BRANCH  10  11
ATOM     11  C   UNL     1      12.429  14.862   7.148  0.00  0.00    -0.028 A 
ATOM     12  C   UNL     1      11.716  14.099   6.212  0.00  0.00    +0.005 A 
ATOM     13  C   UNL     1      13.724  14.456   7.503  0.00  0.00    +0.005 A 
ATOM     14  C   UNL     1      12.296  12.970   5.628  0.00  0.00    +0.000 A 
ATOM     15  C   UNL     1      14.299  13.327   6.919  0.00  0.00    +0.000 A 
ATOM     16  C   UNL     1      13.586  12.586   5.980  0.00  0.00    +0.000 A 
ENDBRANCH  10  11
ENDBRANCH   1  10
TORSDOF 2
ENDMDL
MODEL 6
REMARK VINA RESULT:    -5.367      8.226     10.646
REMARK INTER + INTRA:          -6.092
REMARK INTER:                  -5.975
REMARK INTRA:                  -0.117
REMARK UNBOUND:                -0.098
REMARK  Name = 1550473
REMARK  2 active torsions:
REMARK  status: ('A' for Active; 'I' for Inactive)
REMARK    1  A    between atoms: N_1  and  C_4
REMARK    2  A    between atoms: C_4  and  C_5
REMARK                            x       y       z     vdW  Elec       q    Type
REMARK                         _______ _______ _______ _____ _____    ______ ____
ROOT
ATOM      1  N   UNL     1      12.099  12.683   5.458  0.00  0.00    -0.354 N 
ATOM      2  N   UNL     1      12.899  10.525   5.722  0.00  0.00    -0.372 N 
ATOM      3  N   UNL     1      14.381  12.275   5.803  0.00  0.00    -0.372 N 
ATOM      4  C   UNL     1      13.123  11.843   5.659  0.00  0.00    +0.166 C 
ATOM      5  H   UNL     1      11.174  12.290   5.327  0.00  0.00    +0.163 HD
ATOM      6  H   UNL     1      13.651   9.867   5.876  0.00  0.00    +0.159 HD
ATOM      7  H   UNL     1      11.967  10.139   5.636  0.00  0.00    +0.159 HD
ATOM      8  H   UNL     1      14.618  13.257   5.761  0.00  0.00    +0.159 HD
ATOM      9  H   UNL     1      15.149  11.631   5.947  0.00  0.00    +0.159 HD
ENDROOT
BRANCH   1  10
ATOM     10  C   UNL     1      12.229  14.138   5.428  0.00  0.00    +0.151 C 
BRANCH  10  11
ATOM     11  C   UNL     1      11.895  14.690   6.786  0.00  0.00    -0.028 A 
ATOM     12  C   UNL     1      12.883  14.791   7.777  0.00  0.00    +0.005 A 
ATOM     13  C   UNL     1      10.593  15.118   7.088  0.00  0.00    +0.005 A 
ATOM     14  C   UNL     1      12.580  15.331   9.029  0.00  0.00    +0.000 A 
ATOM     15  C   UNL     1      10.294  15.656   8.340  0.00  0.00    +0.000 A 
ATOM     16  C   UNL     1      11.288  15.765   9.309  0.00  0.00    +0.000 A 
ENDBRANCH  10  11
ENDBRANCH   1  10
TORSDOF 2
ENDMDL
MODEL 7
REMARK VINA RESULT:    -5.216      6.005      7.526
REMARK INTER + INTRA:          -5.924
REMARK INTER:                  -5.769
REMARK INTRA:                  -0.154
REMARK UNBOUND:                -0.098
REMARK  Name = 1550473
REMARK  2 active torsions:
REMARK  status: ('A' for Active; 'I' for Inactive)
REMARK    1  A    between atoms: N_1  and  C_4
REMARK    2  A    between atoms: C_4  and  C_5
REMARK                            x       y       z     vdW  Elec       q    Type
REMARK                         _______ _______ _______ _____ _____    ______ ____
ROOT
ATOM      1  N   UNL     1       9.572   2.969  -1.433  0.00  0.00    -0.354 N 
ATOM      2  N   UNL     1       8.147   4.467  -2.477  0.00  0.00    -0.372 N 
ATOM      3  N   UNL     1       7.254   2.864  -1.099  0.00  0.00    -0.372 N 
ATOM      4  C   UNL     1       8.332   3.422  -1.662  0.00  0.00    +0.166 C 
ATOM      5  H   UNL     1      10.344   3.417  -1.914  0.00  0.00    +0.163 HD
ATOM      6  H   UNL     1       7.223   4.833  -2.666  0.00  0.00    +0.159 HD
ATOM      7  H   UNL     1       8.924   4.941  -2.921  0.00  0.00    +0.159 HD
ATOM      8  H   UNL     1       7.326   2.069  -0.478  0.00  0.00    +0.159 HD
ATOM      9  H   UNL     1       6.321   3.209  -1.285  0.00  0.00    +0.159 HD
ENDROOT
BRANCH   1  10
ATOM     10  C   UNL     1       9.886   1.872  -0.520  0.00  0.00    +0.151 C 
BRANCH  10  11
ATOM     11  C   UNL     1      10.710   2.403   0.621  0.00  0.00    -0.028 A 
ATOM     12  C   UNL     1      10.146   3.280   1.558  0.00  0.00    +0.005 A 
ATOM     13  C   UNL     1      12.054   2.027   0.773  0.00  0.00    +0.005 A 
ATOM     14  C   UNL     1      10.902   3.750   2.635  0.00  0.00    +0.000 A 
ATOM     15  C   UNL     1      12.805   2.499   1.848  0.00  0.00    +0.000 A 
ATOM     16  C   UNL     1      12.229   3.358   2.781  0.00  0.00    +0.000 A 
ENDBRANCH  10  11
ENDBRANCH   1  10
TORSDOF 2
ENDMDL
MODEL 8
REMARK VINA RESULT:    -5.173      7.177      8.922
REMARK INTER + INTRA:          -5.876
REMARK INTER:                  -5.698
REMARK INTRA:                  -0.178
REMARK UNBOUND:                -0.098
REMARK  Name = 1550473
REMARK  2 active torsions:
REMARK  status: ('A' for Active; 'I' for Inactive)
REMARK    1  A    between atoms: N_1  and  C_4
REMARK    2  A    between atoms: C_4  and  C_5
REMARK                            x       y       z     vdW  Elec       q    Type
REMARK                         _______ _______ _______ _____ _____    ______ ____
ROOT
ATOM      1  N   UNL     1       8.536   4.171  -2.719  0.00  0.00    -0.354 N 
ATOM      2  N   UNL     1       9.504   4.705  -4.754  0.00  0.00    -0.372 N 
ATOM      3  N   UNL     1       9.219   2.495  -4.208  0.00  0.00    -0.372 N 
ATOM      4  C   UNL     1       9.080   3.784  -3.880  0.00  0.00    +0.166 C 
ATOM      5  H   UNL     1       8.487   5.163  -2.517  0.00  0.00    +0.163 HD
ATOM      6  H   UNL     1       9.916   4.444  -5.640  0.00  0.00    +0.159 HD
ATOM      7  H   UNL     1       9.412   5.697  -4.569  0.00  0.00    +0.159 HD
ATOM      8  H   UNL     1       8.924   1.751  -3.590  0.00  0.00    +0.159 HD
ATOM      9  H   UNL     1       9.639   2.213  -5.085  0.00  0.00    +0.159 HD
ENDROOT
BRANCH   1  10
ATOM     10  C   UNL     1       7.994   3.249  -1.723  0.00  0.00    +0.151 C 
BRANCH  10  11
ATOM     11  C   UNL     1       8.985   3.100  -0.601  0.00  0.00    -0.028 A 
ATOM     12  C   UNL     1       8.980   3.997   0.477  0.00  0.00    +0.005 A 
ATOM     13  C   UNL     1       9.927   2.060  -0.607  0.00  0.00    +0.005 A 
ATOM     14  C   UNL     1       9.880   3.841   1.533  0.00  0.00    +0.000 A 
ATOM     15  C   UNL     1      10.824   1.908   0.449  0.00  0.00    +0.000 A 
ATOM     16  C   UNL     1      10.799   2.798   1.520  0.00  0.00    +0.000 A 
ENDBRANCH  10  11
ENDBRANCH   1  10
TORSDOF 2
ENDMDL
MODEL 9
REMARK VINA RESULT:    -5.038      9.269     10.035
REMARK INTER + INTRA:          -5.724
REMARK INTER:                  -5.615
REMARK INTRA:                  -0.110
REMARK UNBOUND:                -0.098
REMARK  Name = 1550473
REMARK  2 active torsions:
REMARK  status: ('A' for Active; 'I' for Inactive)
REMARK    1  A    between atoms: N_1  and  C_4
REMARK    2  A    between atoms: C_4  and  C_5
REMARK                            x       y       z     vdW  Elec       q    Type
REMARK                         _______ _______ _______ _____ _____    ______ ____
ROOT
ATOM      1  N   UNL     1      10.582   4.290  -3.872  0.00  0.00    -0.354 N 
ATOM      2  N   UNL     1      11.451   6.276  -4.687  0.00  0.00    -0.372 N 
ATOM      3  N   UNL     1      12.176   4.295  -5.590  0.00  0.00    -0.372 N 
ATOM      4  C   UNL     1      11.399   4.939  -4.712  0.00  0.00    +0.166 C 
ATOM      5  H   UNL     1      10.041   4.834  -3.210  0.00  0.00    +0.163 HD
ATOM      6  H   UNL     1      12.055   6.794  -5.311  0.00  0.00    +0.159 HD
ATOM      7  H   UNL     1      10.875   6.820  -4.055  0.00  0.00    +0.159 HD
ATOM      8  H   UNL     1      12.187   3.286  -5.656  0.00  0.00    +0.159 HD
ATOM      9  H   UNL     1      12.796   4.795  -6.215  0.00  0.00    +0.159 HD
ENDROOT
BRANCH   1  10
ATOM     10  C   UNL     1      10.411   2.838  -3.856  0.00  0.00    +0.151 C 
BRANCH  10  11
ATOM     11  C   UNL     1       9.215   2.493  -3.012  0.00  0.00    -0.028 A 
ATOM     12  C   UNL     1       9.312   1.525  -2.002  0.00  0.00    +0.005 A 
ATOM     13  C   UNL     1       7.984   3.136  -3.213  0.00  0.00    +0.005 A 
ATOM     14  C   UNL     1       8.210   1.226  -1.197  0.00  0.00    +0.000 A 
ATOM     15  C   UNL     1       6.886   2.834  -2.408  0.00  0.00    +0.000 A 
ATOM     16  C   UNL     1       7.000   1.881  -1.399  0.00  0.00    +0.000 A 
ENDBRANCH  10  11
ENDBRANCH   1  10
TORSDOF 2
ENDMDL
