MODEL 1
REMARK VINA RESULT:    -5.889      0.000      0.000
REMARK INTER + INTRA:          -6.703
REMARK INTER:                  -6.578
REMARK INTRA:                  -0.125
REMARK UNBOUND:                -0.125
REMARK  Name = 1550473
REMARK  2 active torsions:
REMARK  status: ('A' for Active; 'I' for Inactive)
REMARK    1  A    between atoms: N_1  and  C_4
REMARK    2  A    between atoms: C_4  and  C_5
REMARK                            x       y       z     vdW  Elec       q    Type
REMARK                         _______ _______ _______ _____ _____    ______ ____
ROOT
ATOM      1  N   UNL     1       5.260  -1.860  -2.057  0.00  0.00    -0.354 N 
ATOM      2  N   UNL     1       6.785  -0.489  -0.981  0.00  0.00    -0.372 N 
ATOM      3  N   UNL     1       6.368  -2.575  -0.120  0.00  0.00    -0.372 N 
ATOM      4  C   UNL     1       6.128  -1.652  -1.058  0.00  0.00    +0.166 C 
ATOM      5  H   UNL     1       5.099  -1.109  -2.719  0.00  0.00    +0.163 HD
ATOM      6  H   UNL     1       7.449  -0.305  -0.240  0.00  0.00    +0.159 HD
ATOM      7  H   UNL     1       6.657   0.242  -1.670  0.00  0.00    +0.159 HD
ATOM      8  H   UNL     1       5.900  -3.471  -0.118  0.00  0.00    +0.159 HD
ATOM      9  H   UNL     1       7.020  -2.405   0.636  0.00  0.00    +0.159 HD
ENDROOT
BRANCH   1  10
ATOM     10  C   UNL     1       4.533  -3.111  -2.262  0.00  0.00    +0.151 C 
BRANCH  10  11
ATOM     11  C   UNL     1       4.208  -3.257  -3.723  0.00  0.00    -0.028 A 
ATOM     12  C   UNL     1       3.808  -4.497  -4.243  0.00  0.00    +0.005 A 
ATOM     13  C   UNL     1       4.293  -2.158  -4.592  0.00  0.00    +0.005 A 
ATOM     14  C   UNL     1       3.478  -4.626  -5.595  0.00  0.00    +0.000 A 
ATOM     15  C   UNL     1       3.963  -2.291  -5.940  0.00  0.00    +0.000 A 
ATOM     16  C   UNL     1       3.553  -3.525  -6.441  0.00  0.00    +0.000 A 
ENDBRANCH  10  11
ENDBRANCH   1  10
TORSDOF 2
ENDMDL
MODEL 2
REMARK VINA RESULT:    -5.620      1.376      2.255
REMARK INTER + INTRA:          -6.402
REMARK INTER:                  -6.222
REMARK INTRA:                  -0.180
REMARK UNBOUND:                -0.125
REMARK  Name = 1550473
REMARK  2 active torsions:
REMARK  status: ('A' for Active; 'I' for Inactive)
REMARK    1  A    between atoms: N_1  and  C_4
REMARK    2  A    between atoms: C_4  and  C_5
REMARK                            x       y       z     vdW  Elec       q    Type
REMARK                         _______ _______ _______ _____ _____    ______ ____
ROOT
ATOM      1  N   UNL     1       3.836  -2.378  -2.813  0.00  0.00    -0.354 N 
ATOM      2  N   UNL     1       5.857  -1.880  -1.797  0.00  0.00    -0.372 N 
ATOM      3  N   UNL     1       4.927  -3.951  -1.462  0.00  0.00    -0.372 N 
ATOM      4  C   UNL     1       4.859  -2.742  -2.030  0.00  0.00    +0.166 C 
ATOM      5  H   UNL     1       3.828  -1.437  -3.189  0.00  0.00    +0.163 HD
ATOM      6  H   UNL     1       6.644  -2.128  -1.213  0.00  0.00    +0.159 HD
ATOM      7  H   UNL     1       5.869  -0.956  -2.211  0.00  0.00    +0.159 HD
ATOM      8  H   UNL     1       4.204  -4.646  -1.594  0.00  0.00    +0.159 HD
ATOM      9  H   UNL     1       5.701  -4.214  -0.865  0.00  0.00    +0.159 HD
ENDROOT
BRANCH   1  10
ATOM     10  C   UNL     1       2.727  -3.260  -3.173  0.00  0.00    +0.151 C 
BRANCH  10  11
ATOM     11  C   UNL     1       2.987  -3.847  -4.533  0.00  0.00    -0.028 A 
ATOM     12  C   UNL     1       3.228  -3.012  -5.634  0.00  0.00    +0.005 A 
ATOM     13  C   UNL     1       3.000  -5.237  -4.726  0.00  0.00    +0.005 A 
ATOM     14  C   UNL     1       3.499  -3.557  -6.891  0.00  0.00    +0.000 A 
ATOM     15  C   UNL     1       3.270  -5.777  -5.983  0.00  0.00    +0.000 A 
ATOM     16  C   UNL     1       3.522  -4.937  -7.065  0.00  0.00    +0.000 A 
ENDBRANCH  10  11
ENDBRANCH   1  10
TORSDOF 2
ENDMDL
MODEL 3
REMARK VINA RESULT:    -5.491      4.551      6.358
REMARK INTER + INTRA:          -6.259
REMARK INTER:                  -6.145
REMARK INTRA:                  -0.114
REMARK UNBOUND:                -0.125
REMARK  Name = 1550473
REMARK  2 active torsions:
REMARK  status: ('A' for Active; 'I' for Inactive)
REMARK    1  A    between atoms: N_1  and  C_4
REMARK    2  A    between atoms: C_4  and  C_5
REMARK                            x       y       z     vdW  Elec       q    Type
REMARK                         _______ _______ _______ _____ _____    ______ ____
ROOT
ATOM      1  N   UNL     1       1.807  -6.333  -6.111  0.00  0.00    -0.354 N 
ATOM      2  N   UNL     1       0.019  -7.760  -5.750  0.00  0.00    -0.372 N 
ATOM      3  N   UNL     1       0.588  -7.218  -7.906  0.00  0.00    -0.372 N 
ATOM      4  C   UNL     1       0.816  -7.094  -6.594  0.00  0.00    +0.166 C 
ATOM      5  H   UNL     1       1.909  -6.256  -5.105  0.00  0.00    +0.163 HD
ATOM      6  H   UNL     1      -0.735  -8.345  -6.085  0.00  0.00    +0.159 HD
ATOM      7  H   UNL     1       0.152  -7.718  -4.747  0.00  0.00    +0.159 HD
ATOM      8  H   UNL     1       1.150  -6.737  -8.595  0.00  0.00    +0.159 HD
ATOM      9  H   UNL     1      -0.169  -7.789  -8.260  0.00  0.00    +0.159 HD
ENDROOT
BRANCH   1  10
ATOM     10  C   UNL     1       2.764  -5.610  -6.946  0.00  0.00    +0.151 C 
BRANCH  10  11
ATOM     11  C   UNL     1       3.296  -4.432  -6.176  0.00  0.00    -0.028 A 
ATOM     12  C   UNL     1       3.534  -3.209  -6.821  0.00  0.00    +0.005 A 
ATOM     13  C   UNL     1       3.558  -4.531  -4.801  0.00  0.00    +0.005 A 
ATOM     14  C   UNL     1       3.999  -2.106  -6.101  0.00  0.00    +0.000 A 
ATOM     15  C   UNL     1       4.023  -3.427  -4.086  0.00  0.00    +0.000 A 
ATOM     16  C   UNL     1       4.242  -2.215  -4.736  0.00  0.00    +0.000 A 
ENDBRANCH  10  11
ENDBRANCH   1  10
TORSDOF 2
ENDMDL
MODEL 4
REMARK VINA RESULT:    -4.966      7.756      9.620
REMARK INTER + INTRA:          -5.672
REMARK INTER:                  -5.542
REMARK INTRA:                  -0.130
REMARK UNBOUND:                -0.125
REMARK  Name = 1550473
REMARK  2 active torsions:
REMARK  status: ('A' for Active; 'I' for Inactive)
REMARK    1  A    between atoms: N_1  and  C_4
REMARK    2  A    between atoms: C_4  and  C_5
REMARK                            x       y       z     vdW  Elec       q    Type
REMARK                         _______ _______ _______ _____ _____    ______ ____
ROOT
ATOM      1  N   UNL     1       2.772   3.793  -2.085  0.00  0.00    -0.354 N 
ATOM      2  N   UNL     1       1.303   2.053  -1.662  0.00  0.00    -0.372 N 
ATOM      3  N   UNL     1       0.746   3.613  -3.249  0.00  0.00    -0.372 N 
ATOM      4  C   UNL     1       1.615   3.166  -2.337  0.00  0.00    +0.166 C 
ATOM      5  H   UNL     1       3.373   3.420  -1.359  0.00  0.00    +0.163 HD
ATOM      6  H   UNL     1       0.439   1.556  -1.833  0.00  0.00    +0.159 HD
ATOM      7  H   UNL     1       1.927   1.657  -0.970  0.00  0.00    +0.159 HD
ATOM      8  H   UNL     1       0.919   4.451  -3.788  0.00  0.00    +0.159 HD
ATOM      9  H   UNL     1      -0.129   3.137  -3.426  0.00  0.00    +0.159 HD
ENDROOT
BRANCH   1  10
ATOM     10  C   UNL     1       3.230   4.981  -2.802  0.00  0.00    +0.151 C 
BRANCH  10  11
ATOM     11  C   UNL     1       3.939   5.893  -1.838  0.00  0.00    -0.028 A 
ATOM     12  C   UNL     1       3.395   6.153  -0.572  0.00  0.00    +0.005 A 
ATOM     13  C   UNL     1       5.159   6.496  -2.183  0.00  0.00    +0.005 A 
ATOM     14  C   UNL     1       4.067   6.975   0.335  0.00  0.00    +0.000 A 
ATOM     15  C   UNL     1       5.827   7.317  -1.276  0.00  0.00    +0.000 A 
ATOM     16  C   UNL     1       5.282   7.555  -0.016  0.00  0.00    +0.000 A 
ENDBRANCH  10  11
ENDBRANCH   1  10
TORSDOF 2
ENDMDL
MODEL 5
REMARK VINA RESULT:    -4.783      3.177      4.625
REMARK INTER + INTRA:          -5.467
REMARK INTER:                  -5.364
REMARK INTRA:                  -0.103
REMARK UNBOUND:                -0.125
REMARK  Name = 1550473
REMARK  2 active torsions:
REMARK  status: ('A' for Active; 'I' for Inactive)
REMARK    1  A    between atoms: N_1  and  C_4
REMARK    2  A    between atoms: C_4  and  C_5
REMARK                            x       y       z     vdW  Elec       q    Type
REMARK                         _______ _______ _______ _____ _____    ______ ____
ROOT
ATOM      1  N   UNL     1       2.743  -3.935  -4.734  0.00  0.00    -0.354 N 
ATOM      2  N   UNL     1       2.826  -1.828  -3.777  0.00  0.00    -0.372 N 
ATOM      3  N   UNL     1       3.424  -3.645  -2.510  0.00  0.00    -0.372 N 
ATOM      4  C   UNL     1       2.998  -3.152  -3.678  0.00  0.00    +0.166 C 
ATOM      5  H   UNL     1       2.393  -3.503  -5.581  0.00  0.00    +0.163 HD
ATOM      6  H   UNL     1       3.014  -1.211  -2.998  0.00  0.00    +0.159 HD
ATOM      7  H   UNL     1       2.521  -1.393  -4.640  0.00  0.00    +0.159 HD
ATOM      8  H   UNL     1       3.567  -4.636  -2.368  0.00  0.00    +0.159 HD
ATOM      9  H   UNL     1       3.606  -3.045  -1.716  0.00  0.00    +0.159 HD
ENDROOT
BRANCH   1  10
ATOM     10  C   UNL     1       2.948  -5.383  -4.746  0.00  0.00    +0.151 C 
BRANCH  10  11
ATOM     11  C   UNL     1       2.019  -6.002  -5.753  0.00  0.00    -0.028 A 
ATOM     12  C   UNL     1       2.039  -5.584  -7.092  0.00  0.00    +0.005 A 
ATOM     13  C   UNL     1       1.120  -7.011  -5.376  0.00  0.00    +0.005 A 
ATOM     14  C   UNL     1       1.197  -6.181  -8.034  0.00  0.00    +0.000 A 
ATOM     15  C   UNL     1       0.280  -7.603  -6.319  0.00  0.00    +0.000 A 
ATOM     16  C   UNL     1       0.321  -7.189  -7.649  0.00  0.00    +0.000 A 
ENDBRANCH  10  11
ENDBRANCH   1  10
TORSDOF 2
ENDMDL
MODEL 6
REMARK VINA RESULT:    -4.649     14.982     16.603
REMARK INTER + INTRA:          -5.318
REMARK INTER:                  -5.143
REMARK INTRA:                  -0.175
REMARK UNBOUND:                -0.125
REMARK  Name = 1550473
REMARK  2 active torsions:
REMARK  status: ('A' for Active; 'I' for Inactive)
REMARK    1  A    between atoms: N_1  and  C_4
REMARK    2  A    between atoms: C_4  and  C_5
REMARK                            x       y       z     vdW  Elec       q    Type
REMARK                         _______ _______ _______ _____ _____    ______ ____
ROOT
ATOM      1  N   UNL     1      -3.361   3.435 -14.656  0.00  0.00    -0.354 N 
ATOM      2  N   UNL     1      -2.154   2.786 -12.789  0.00  0.00    -0.372 N 
ATOM      3  N   UNL     1      -2.852   1.180 -14.272  0.00  0.00    -0.372 N 
ATOM      4  C   UNL     1      -2.798   2.469 -13.919  0.00  0.00    +0.166 C 
ATOM      5  H   UNL     1      -3.311   4.390 -14.318  0.00  0.00    +0.163 HD
ATOM      6  H   UNL     1      -1.716   2.079 -12.214  0.00  0.00    +0.159 HD
ATOM      7  H   UNL     1      -2.066   3.746 -12.477  0.00  0.00    +0.159 HD
ATOM      8  H   UNL     1      -3.327   0.874 -15.111  0.00  0.00    +0.159 HD
ATOM      9  H   UNL     1      -2.430   0.457 -13.704  0.00  0.00    +0.159 HD
ENDROOT
BRANCH   1  10
ATOM     10  C   UNL     1      -4.038   3.202 -15.931  0.00  0.00    +0.151 C 
BRANCH  10  11
ATOM     11  C   UNL     1      -5.520   3.368 -15.737  0.00  0.00    -0.028 A 
ATOM     12  C   UNL     1      -6.139   4.598 -16.004  0.00  0.00    +0.005 A 
ATOM     13  C   UNL     1      -6.312   2.298 -15.293  0.00  0.00    +0.005 A 
ATOM     14  C   UNL     1      -7.520   4.745 -15.853  0.00  0.00    +0.000 A 
ATOM     15  C   UNL     1      -7.690   2.449 -15.143  0.00  0.00    +0.000 A 
ATOM     16  C   UNL     1      -8.294   3.671 -15.426  0.00  0.00    +0.000 A 
ENDBRANCH  10  11
ENDBRANCH   1  10
TORSDOF 2
ENDMDL
MODEL 7
REMARK VINA RESULT:    -4.523      7.019      8.227
REMARK INTER + INTRA:          -5.177
REMARK INTER:                  -5.150
REMARK INTRA:                  -0.028
REMARK UNBOUND:                -0.125
REMARK  Name = 1550473
REMARK  2 active torsions:
REMARK  status: ('A' for Active; 'I' for Inactive)
REMARK    1  A    between atoms: N_1  and  C_4
REMARK    2  A    between atoms: C_4  and  C_5
REMARK                            x       y       z     vdW  Elec       q    Type
REMARK                         _______ _______ _______ _____ _____    ______ ____
ROOT
ATOM      1  N   UNL     1       4.278   6.494  -0.776  0.00  0.00    -0.354 N 
ATOM      2  N   UNL     1       4.476   8.580  -1.762  0.00  0.00    -0.372 N 
ATOM      3  N   UNL     1       6.131   7.029  -2.107  0.00  0.00    -0.372 N 
ATOM      4  C   UNL     1       4.963   7.353  -1.543  0.00  0.00    +0.166 C 
ATOM      5  H   UNL     1       3.414   6.811  -0.352  0.00  0.00    +0.163 HD
ATOM      6  H   UNL     1       4.968   9.249  -2.339  0.00  0.00    +0.159 HD
ATOM      7  H   UNL     1       3.589   8.879  -1.374  0.00  0.00    +0.159 HD
ATOM      8  H   UNL     1       6.555   6.121  -1.976  0.00  0.00    +0.159 HD
ATOM      9  H   UNL     1       6.644   7.689  -2.679  0.00  0.00    +0.159 HD
ENDROOT
BRANCH   1  10
ATOM     10  C   UNL     1       4.694   5.117  -0.519  0.00  0.00    +0.151 C 
BRANCH  10  11
ATOM     11  C   UNL     1       3.844   4.186  -1.338  0.00  0.00    -0.028 A 
ATOM     12  C   UNL     1       3.715   2.836  -0.978  0.00  0.00    +0.005 A 
ATOM     13  C   UNL     1       3.160   4.648  -2.473  0.00  0.00    +0.005 A 
ATOM     14  C   UNL     1       2.902   1.978  -1.722  0.00  0.00    +0.000 A 
ATOM     15  C   UNL     1       2.349   3.788  -3.213  0.00  0.00    +0.000 A 
ATOM     16  C   UNL     1       2.218   2.453  -2.836  0.00  0.00    +0.000 A 
ENDBRANCH  10  11
ENDBRANCH   1  10
TORSDOF 2
ENDMDL
MODEL 8
REMARK VINA RESULT:    -4.430     19.406     20.664
REMARK INTER + INTRA:          -5.073
REMARK INTER:                  -4.937
REMARK INTRA:                  -0.136
REMARK UNBOUND:                -0.125
REMARK  Name = 1550473
REMARK  2 active torsions:
REMARK  status: ('A' for Active; 'I' for Inactive)
REMARK    1  A    between atoms: N_1  and  C_4
REMARK    2  A    between atoms: C_4  and  C_5
REMARK                            x       y       z     vdW  Elec       q    Type
REMARK                         _______ _______ _______ _____ _____    ______ ____
ROOT
ATOM      1  N   UNL     1      -9.473  -4.307   9.363  0.00  0.00    -0.354 N 
ATOM      2  N   UNL     1     -10.254  -6.224   8.325  0.00  0.00    -0.372 N 
ATOM      3  N   UNL     1      -8.027  -6.082   8.861  0.00  0.00    -0.372 N 
ATOM      4  C   UNL     1      -9.243  -5.526   8.857  0.00  0.00    +0.166 C 
ATOM      5  H   UNL     1     -10.411  -3.929   9.302  0.00  0.00    +0.163 HD
ATOM      6  H   UNL     1     -10.112  -7.148   7.938  0.00  0.00    +0.159 HD
ATOM      7  H   UNL     1     -11.200  -5.863   8.307  0.00  0.00    +0.159 HD
ATOM      8  H   UNL     1      -7.222  -5.604   9.242  0.00  0.00    +0.159 HD
ATOM      9  H   UNL     1      -7.863  -7.000   8.468  0.00  0.00    +0.159 HD
ENDROOT
BRANCH   1  10
ATOM     10  C   UNL     1      -8.452  -3.486  10.013  0.00  0.00    +0.151 C 
BRANCH  10  11
ATOM     11  C   UNL     1      -9.050  -2.830  11.227  0.00  0.00    -0.028 A 
ATOM     12  C   UNL     1      -8.246  -2.082  12.100  0.00  0.00    +0.005 A 
ATOM     13  C   UNL     1     -10.420  -2.947  11.507  0.00  0.00    +0.005 A 
ATOM     14  C   UNL     1      -8.806  -1.447  13.211  0.00  0.00    +0.000 A 
ATOM     15  C   UNL     1     -10.975  -2.312  12.618  0.00  0.00    +0.000 A 
ATOM     16  C   UNL     1     -10.168  -1.560  13.468  0.00  0.00    +0.000 A 
ENDBRANCH  10  11
ENDBRANCH   1  10
TORSDOF 2
ENDMDL
MODEL 9
REMARK VINA RESULT:    -4.420     10.391     13.845
REMARK INTER + INTRA:          -5.062
REMARK INTER:                  -4.938
REMARK INTRA:                  -0.124
REMARK UNBOUND:                -0.125
REMARK  Name = 1550473
REMARK  2 active torsions:
REMARK  status: ('A' for Active; 'I' for Inactive)
REMARK    1  A    between atoms: N_1  and  C_4
REMARK    2  A    between atoms: C_4  and  C_5
REMARK                            x       y       z     vdW  Elec       q    Type
REMARK                         _______ _______ _______ _____ _____    ______ ____
ROOT
ATOM      1  N   UNL     1      10.647  -1.694   6.241  0.00  0.00    -0.354 N 
ATOM      2  N   UNL     1       9.880  -2.477   4.201  0.00  0.00    -0.372 N 
ATOM      3  N   UNL     1      10.255  -0.227   4.456  0.00  0.00    -0.372 N 
ATOM      4  C   UNL     1      10.265  -1.458   4.979  0.00  0.00    +0.166 C 
ATOM      5  H   UNL     1      10.604  -2.646   6.587  0.00  0.00    +0.163 HD
ATOM      6  H   UNL     1       9.590  -2.330   3.243  0.00  0.00    +0.159 HD
ATOM      7  H   UNL     1       9.881  -3.433   4.535  0.00  0.00    +0.159 HD
ATOM      8  H   UNL     1      10.528   0.585   4.993  0.00  0.00    +0.159 HD
ATOM      9  H   UNL     1       9.957  -0.059   3.504  0.00  0.00    +0.159 HD
ENDROOT
BRANCH   1  10
ATOM     10  C   UNL     1      11.135  -0.663   7.154  0.00  0.00    +0.151 C 
BRANCH  10  11
ATOM     11  C   UNL     1      11.686  -1.321   8.390  0.00  0.00    -0.028 A 
ATOM     12  C   UNL     1      11.734  -2.719   8.490  0.00  0.00    +0.005 A 
ATOM     13  C   UNL     1      12.166  -0.551   9.460  0.00  0.00    +0.005 A 
ATOM     14  C   UNL     1      12.273  -3.330   9.625  0.00  0.00    +0.000 A 
ATOM     15  C   UNL     1      12.703  -1.166  10.592  0.00  0.00    +0.000 A 
ATOM     16  C   UNL     1      12.758  -2.555  10.673  0.00  0.00    +0.000 A 
ENDBRANCH  10  11
ENDBRANCH   1  10
TORSDOF 2
ENDMDL
