MODEL 1
REMARK VINA RESULT:    -5.082      0.000      0.000
REMARK INTER + INTRA:          -5.790
REMARK INTER:                  -5.676
REMARK INTRA:                  -0.115
REMARK UNBOUND:                -0.115
REMARK  Name = 1550473
REMARK  2 active torsions:
REMARK  status: ('A' for Active; 'I' for Inactive)
REMARK    1  A    between atoms: N_1  and  C_4
REMARK    2  A    between atoms: C_4  and  C_5
REMARK                            x       y       z     vdW  Elec       q    Type
REMARK                         _______ _______ _______ _____ _____    ______ ____
ROOT
ATOM      1  N   UNL     1      -0.763 -11.247   8.227  0.00  0.00    -0.354 N 
ATOM      2  N   UNL     1       0.605 -12.645   6.986  0.00  0.00    -0.372 N 
ATOM      3  N   UNL     1       1.447 -10.644   7.729  0.00  0.00    -0.372 N 
ATOM      4  C   UNL     1       0.422 -11.501   7.656  0.00  0.00    +0.166 C 
ATOM      5  H   UNL     1      -1.508 -11.923   8.109  0.00  0.00    +0.163 HD
ATOM      6  H   UNL     1       1.489 -12.866   6.548  0.00  0.00    +0.159 HD
ATOM      7  H   UNL     1      -0.128 -13.340   6.909  0.00  0.00    +0.159 HD
ATOM      8  H   UNL     1       1.372  -9.760   8.215  0.00  0.00    +0.159 HD
ATOM      9  H   UNL     1       2.336 -10.842   7.287  0.00  0.00    +0.159 HD
ENDROOT
BRANCH   1  10
ATOM     10  C   UNL     1      -1.048 -10.055   9.024  0.00  0.00    +0.151 C 
BRANCH  10  11
ATOM     11  C   UNL     1      -2.516  -9.744   8.934  0.00  0.00    -0.028 A 
ATOM     12  C   UNL     1      -3.302  -9.677  10.094  0.00  0.00    +0.005 A 
ATOM     13  C   UNL     1      -3.127  -9.510   7.693  0.00  0.00    +0.005 A 
ATOM     14  C   UNL     1      -4.660  -9.359  10.014  0.00  0.00    +0.000 A 
ATOM     15  C   UNL     1      -4.484  -9.194   7.617  0.00  0.00    +0.000 A 
ATOM     16  C   UNL     1      -5.249  -9.116   8.778  0.00  0.00    +0.000 A 
ENDBRANCH  10  11
ENDBRANCH   1  10
TORSDOF 2
ENDMDL
MODEL 2
REMARK VINA RESULT:    -4.952     18.671     19.197
REMARK INTER + INTRA:          -5.646
REMARK INTER:                  -5.518
REMARK INTRA:                  -0.128
REMARK UNBOUND:                -0.115
REMARK  Name = 1550473
REMARK  2 active torsions:
REMARK  status: ('A' for Active; 'I' for Inactive)
REMARK    1  A    between atoms: N_1  and  C_4
REMARK    2  A    between atoms: C_4  and  C_5
REMARK                            x       y       z     vdW  Elec       q    Type
REMARK                         _______ _______ _______ _____ _____    ______ ____
ROOT
ATOM      1  N   UNL     1      12.453  -4.316  -2.386  0.00  0.00    -0.354 N 
ATOM      2  N   UNL     1      12.973  -6.544  -2.025  0.00  0.00    -0.372 N 
ATOM      3  N   UNL     1      11.168  -6.026  -3.344  0.00  0.00    -0.372 N 
ATOM      4  C   UNL     1      12.192  -5.614  -2.589  0.00  0.00    +0.166 C 
ATOM      5  H   UNL     1      13.226  -4.070  -1.779  0.00  0.00    +0.163 HD
ATOM      6  H   UNL     1      12.803  -7.531  -2.163  0.00  0.00    +0.159 HD
ATOM      7  H   UNL     1      13.772  -6.294  -1.456  0.00  0.00    +0.159 HD
ATOM      8  H   UNL     1      10.538  -5.375  -3.793  0.00  0.00    +0.159 HD
ATOM      9  H   UNL     1      10.974  -7.010  -3.484  0.00  0.00    +0.159 HD
ENDROOT
BRANCH   1  10
ATOM     10  C   UNL     1      11.696  -3.225  -2.998  0.00  0.00    +0.151 C 
BRANCH  10  11
ATOM     11  C   UNL     1      11.807  -2.003  -2.128  0.00  0.00    -0.028 A 
ATOM     12  C   UNL     1      12.130  -2.123  -0.769  0.00  0.00    +0.005 A 
ATOM     13  C   UNL     1      11.594  -0.721  -2.659  0.00  0.00    +0.005 A 
ATOM     14  C   UNL     1      12.263  -0.987   0.033  0.00  0.00    +0.000 A 
ATOM     15  C   UNL     1      11.727   0.411  -1.855  0.00  0.00    +0.000 A 
ATOM     16  C   UNL     1      12.063   0.278  -0.510  0.00  0.00    +0.000 A 
ENDBRANCH  10  11
ENDBRANCH   1  10
TORSDOF 2
ENDMDL
MODEL 3
REMARK VINA RESULT:    -4.219      3.617      5.184
REMARK INTER + INTRA:          -4.827
REMARK INTER:                  -4.706
REMARK INTRA:                  -0.121
REMARK UNBOUND:                -0.115
REMARK  Name = 1550473
REMARK  2 active torsions:
REMARK  status: ('A' for Active; 'I' for Inactive)
REMARK    1  A    between atoms: N_1  and  C_4
REMARK    2  A    between atoms: C_4  and  C_5
REMARK                            x       y       z     vdW  Elec       q    Type
REMARK                         _______ _______ _______ _____ _____    ______ ____
ROOT
ATOM      1  N   UNL     1      -5.861  -9.986   8.443  0.00  0.00    -0.354 N 
ATOM      2  N   UNL     1      -7.750 -11.311   8.246  0.00  0.00    -0.372 N 
ATOM      3  N   UNL     1      -6.617 -10.703   6.345  0.00  0.00    -0.372 N 
ATOM      4  C   UNL     1      -6.730 -10.657   7.676  0.00  0.00    +0.166 C 
ATOM      5  H   UNL     1      -6.019  -9.965   9.444  0.00  0.00    +0.163 HD
ATOM      6  H   UNL     1      -8.420 -11.829   7.693  0.00  0.00    +0.159 HD
ATOM      7  H   UNL     1      -7.879 -11.326   9.250  0.00  0.00    +0.159 HD
ATOM      8  H   UNL     1      -5.873 -10.226   5.853  0.00  0.00    +0.159 HD
ATOM      9  H   UNL     1      -7.284 -11.207   5.773  0.00  0.00    +0.159 HD
ENDROOT
BRANCH   1  10
ATOM     10  C   UNL     1      -4.686  -9.286   7.927  0.00  0.00    +0.151 C 
BRANCH  10  11
ATOM     11  C   UNL     1      -3.513  -9.565   8.827  0.00  0.00    -0.028 A 
ATOM     12  C   UNL     1      -2.243  -9.812   8.286  0.00  0.00    +0.005 A 
ATOM     13  C   UNL     1      -3.665  -9.578  10.222  0.00  0.00    +0.005 A 
ATOM     14  C   UNL     1      -1.148 -10.041   9.122  0.00  0.00    +0.000 A 
ATOM     15  C   UNL     1      -2.569  -9.809  11.054  0.00  0.00    +0.000 A 
ATOM     16  C   UNL     1      -1.311 -10.038  10.504  0.00  0.00    +0.000 A 
ENDBRANCH  10  11
ENDBRANCH   1  10
TORSDOF 2
ENDMDL
MODEL 4
REMARK VINA RESULT:    -4.182     18.826     20.042
REMARK INTER + INTRA:          -4.785
REMARK INTER:                  -4.619
REMARK INTRA:                  -0.166
REMARK UNBOUND:                -0.115
REMARK  Name = 1550473
REMARK  2 active torsions:
REMARK  status: ('A' for Active; 'I' for Inactive)
REMARK    1  A    between atoms: N_1  and  C_4
REMARK    2  A    between atoms: C_4  and  C_5
REMARK                            x       y       z     vdW  Elec       q    Type
REMARK                         _______ _______ _______ _____ _____    ______ ____
ROOT
ATOM      1  N   UNL     1      11.844  -0.936  -1.144  0.00  0.00    -0.354 N 
ATOM      2  N   UNL     1      13.003  -0.270   0.747  0.00  0.00    -0.372 N 
ATOM      3  N   UNL     1      13.983   0.007  -1.309  0.00  0.00    -0.372 N 
ATOM      4  C   UNL     1      12.938  -0.403  -0.583  0.00  0.00    +0.166 C 
ATOM      5  H   UNL     1      11.098  -1.256  -0.537  0.00  0.00    +0.163 HD
ATOM      6  H   UNL     1      13.814   0.132   1.199  0.00  0.00    +0.159 HD
ATOM      7  H   UNL     1      12.237  -0.547   1.349  0.00  0.00    +0.159 HD
ATOM      8  H   UNL     1      13.999  -0.072  -2.317  0.00  0.00    +0.159 HD
ATOM      9  H   UNL     1      14.808   0.401  -0.874  0.00  0.00    +0.159 HD
ENDROOT
BRANCH   1  10
ATOM     10  C   UNL     1      11.651  -1.077  -2.586  0.00  0.00    +0.151 C 
BRANCH  10  11
ATOM     11  C   UNL     1      11.860  -2.515  -2.972  0.00  0.00    -0.028 A 
ATOM     12  C   UNL     1      12.554  -2.844  -4.145  0.00  0.00    +0.005 A 
ATOM     13  C   UNL     1      11.370  -3.554  -2.165  0.00  0.00    +0.005 A 
ATOM     14  C   UNL     1      12.774  -4.180  -4.488  0.00  0.00    +0.000 A 
ATOM     15  C   UNL     1      11.591  -4.887  -2.512  0.00  0.00    +0.000 A 
ATOM     16  C   UNL     1      12.296  -5.200  -3.672  0.00  0.00    +0.000 A 
ENDBRANCH  10  11
ENDBRANCH   1  10
TORSDOF 2
ENDMDL
MODEL 5
REMARK VINA RESULT:    -4.147     19.052     19.640
REMARK INTER + INTRA:          -4.747
REMARK INTER:                  -4.625
REMARK INTRA:                  -0.121
REMARK UNBOUND:                -0.115
REMARK  Name = 1550473
REMARK  2 active torsions:
REMARK  status: ('A' for Active; 'I' for Inactive)
REMARK    1  A    between atoms: N_1  and  C_4
REMARK    2  A    between atoms: C_4  and  C_5
REMARK                            x       y       z     vdW  Elec       q    Type
REMARK                         _______ _______ _______ _____ _____    ______ ____
ROOT
ATOM      1  N   UNL     1      12.327  -2.053  -0.490  0.00  0.00    -0.354 N 
ATOM      2  N   UNL     1      12.430  -0.334   1.059  0.00  0.00    -0.372 N 
ATOM      3  N   UNL     1      11.630   0.115  -1.045  0.00  0.00    -0.372 N 
ATOM      4  C   UNL     1      12.128  -0.767  -0.171  0.00  0.00    +0.166 C 
ATOM      5  H   UNL     1      12.736  -2.664   0.208  0.00  0.00    +0.163 HD
ATOM      6  H   UNL     1      12.287   0.630   1.329  0.00  0.00    +0.159 HD
ATOM      7  H   UNL     1      12.795  -0.957   1.768  0.00  0.00    +0.159 HD
ATOM      8  H   UNL     1      11.387  -0.148  -1.991  0.00  0.00    +0.159 HD
ATOM      9  H   UNL     1      11.491   1.086  -0.796  0.00  0.00    +0.159 HD
ENDROOT
BRANCH   1  10
ATOM     10  C   UNL     1      11.981  -2.638  -1.784  0.00  0.00    +0.151 C 
BRANCH  10  11
ATOM     11  C   UNL     1      12.660  -3.972  -1.918  0.00  0.00    -0.028 A 
ATOM     12  C   UNL     1      12.123  -4.965  -2.750  0.00  0.00    +0.005 A 
ATOM     13  C   UNL     1      13.846  -4.249  -1.220  0.00  0.00    +0.005 A 
ATOM     14  C   UNL     1      12.770  -6.194  -2.898  0.00  0.00    +0.000 A 
ATOM     15  C   UNL     1      14.489  -5.477  -1.370  0.00  0.00    +0.000 A 
ATOM     16  C   UNL     1      13.952  -6.449  -2.211  0.00  0.00    +0.000 A 
ENDBRANCH  10  11
ENDBRANCH   1  10
TORSDOF 2
ENDMDL
MODEL 6
REMARK VINA RESULT:    -4.121     19.301     19.975
REMARK INTER + INTRA:          -4.717
REMARK INTER:                  -4.595
REMARK INTRA:                  -0.122
REMARK UNBOUND:                -0.115
REMARK  Name = 1550473
REMARK  2 active torsions:
REMARK  status: ('A' for Active; 'I' for Inactive)
REMARK    1  A    between atoms: N_1  and  C_4
REMARK    2  A    between atoms: C_4  and  C_5
REMARK                            x       y       z     vdW  Elec       q    Type
REMARK                         _______ _______ _______ _____ _____    ______ ____
ROOT
ATOM      1  N   UNL     1      12.699   0.021  -0.358  0.00  0.00    -0.354 N 
ATOM      2  N   UNL     1      11.753   1.669   0.967  0.00  0.00    -0.372 N 
ATOM      3  N   UNL     1      13.783   0.786   1.574  0.00  0.00    -0.372 N 
ATOM      4  C   UNL     1      12.753   0.814   0.721  0.00  0.00    +0.166 C 
ATOM      5  H   UNL     1      11.877   0.069  -0.949  0.00  0.00    +0.163 HD
ATOM      6  H   UNL     1      11.768   2.282   1.771  0.00  0.00    +0.159 HD
ATOM      7  H   UNL     1      10.955   1.747   0.349  0.00  0.00    +0.159 HD
ATOM      8  H   UNL     1      14.566   0.160   1.448  0.00  0.00    +0.159 HD
ATOM      9  H   UNL     1      13.810   1.384   2.391  0.00  0.00    +0.159 HD
ENDROOT
BRANCH   1  10
ATOM     10  C   UNL     1      13.761  -0.906  -0.745  0.00  0.00    +0.151 C 
BRANCH  10  11
ATOM     11  C   UNL     1      13.142  -2.143  -1.335  0.00  0.00    -0.028 A 
ATOM     12  C   UNL     1      11.946  -2.062  -2.063  0.00  0.00    +0.005 A 
ATOM     13  C   UNL     1      13.749  -3.397  -1.175  0.00  0.00    +0.005 A 
ATOM     14  C   UNL     1      11.386  -3.206  -2.637  0.00  0.00    +0.000 A 
ATOM     15  C   UNL     1      13.187  -4.538  -1.749  0.00  0.00    +0.000 A 
ATOM     16  C   UNL     1      12.006  -4.441  -2.482  0.00  0.00    +0.000 A 
ENDBRANCH  10  11
ENDBRANCH   1  10
TORSDOF 2
ENDMDL
MODEL 7
REMARK VINA RESULT:    -4.090     21.603     22.613
REMARK INTER + INTRA:          -4.683
REMARK INTER:                  -4.550
REMARK INTRA:                  -0.133
REMARK UNBOUND:                -0.115
REMARK  Name = 1550473
REMARK  2 active torsions:
REMARK  status: ('A' for Active; 'I' for Inactive)
REMARK    1  A    between atoms: N_1  and  C_4
REMARK    2  A    between atoms: C_4  and  C_5
REMARK                            x       y       z     vdW  Elec       q    Type
REMARK                         _______ _______ _______ _____ _____    ______ ____
ROOT
ATOM      1  N   UNL     1       0.604  -3.517 -12.162  0.00  0.00    -0.354 N 
ATOM      2  N   UNL     1       0.175  -2.443 -10.156  0.00  0.00    -0.372 N 
ATOM      3  N   UNL     1      -1.083  -1.900 -11.996  0.00  0.00    -0.372 N 
ATOM      4  C   UNL     1      -0.100  -2.626 -11.453  0.00  0.00    +0.166 C 
ATOM      5  H   UNL     1       1.357  -4.014 -11.699  0.00  0.00    +0.163 HD
ATOM      6  H   UNL     1      -0.342  -1.779  -9.595  0.00  0.00    +0.159 HD
ATOM      7  H   UNL     1       0.897  -2.974  -9.685  0.00  0.00    +0.159 HD
ATOM      8  H   UNL     1      -1.337  -1.986 -12.971  0.00  0.00    +0.159 HD
ATOM      9  H   UNL     1      -1.604  -1.222 -11.454  0.00  0.00    +0.159 HD
ENDROOT
BRANCH   1  10
ATOM     10  C   UNL     1       0.348  -3.831 -13.567  0.00  0.00    +0.151 C 
BRANCH  10  11
ATOM     11  C   UNL     1       0.303  -5.324 -13.737  0.00  0.00    -0.028 A 
ATOM     12  C   UNL     1       1.309  -5.990 -14.451  0.00  0.00    +0.005 A 
ATOM     13  C   UNL     1      -0.741  -6.080 -13.181  0.00  0.00    +0.005 A 
ATOM     14  C   UNL     1       1.284  -7.381 -14.584  0.00  0.00    +0.000 A 
ATOM     15  C   UNL     1      -0.763  -7.468 -13.316  0.00  0.00    +0.000 A 
ATOM     16  C   UNL     1       0.251  -8.118 -14.015  0.00  0.00    +0.000 A 
ENDBRANCH  10  11
ENDBRANCH   1  10
TORSDOF 2
ENDMDL
MODEL 8
REMARK VINA RESULT:    -4.086     20.787     21.454
REMARK INTER + INTRA:          -4.678
REMARK INTER:                  -4.497
REMARK INTRA:                  -0.181
REMARK UNBOUND:                -0.115
REMARK  Name = 1550473
REMARK  2 active torsions:
REMARK  status: ('A' for Active; 'I' for Inactive)
REMARK    1  A    between atoms: N_1  and  C_4
REMARK    2  A    between atoms: C_4  and  C_5
REMARK                            x       y       z     vdW  Elec       q    Type
REMARK                         _______ _______ _______ _____ _____    ______ ____
ROOT
ATOM      1  N   UNL     1      -3.985  11.160   7.239  0.00  0.00    -0.354 N 
ATOM      2  N   UNL     1      -2.886   9.910   5.628  0.00  0.00    -0.372 N 
ATOM      3  N   UNL     1      -4.762  11.088   5.029  0.00  0.00    -0.372 N 
ATOM      4  C   UNL     1      -3.887  10.728   5.974  0.00  0.00    +0.166 C 
ATOM      5  H   UNL     1      -3.308  10.827   7.915  0.00  0.00    +0.163 HD
ATOM      6  H   UNL     1      -2.785   9.570   4.681  0.00  0.00    +0.159 HD
ATOM      7  H   UNL     1      -2.184   9.615   6.296  0.00  0.00    +0.159 HD
ATOM      8  H   UNL     1      -5.543  11.699   5.227  0.00  0.00    +0.159 HD
ATOM      9  H   UNL     1      -4.684  10.749   4.078  0.00  0.00    +0.159 HD
ENDROOT
BRANCH   1  10
ATOM     10  C   UNL     1      -5.006  12.096   7.706  0.00  0.00    +0.151 C 
BRANCH  10  11
ATOM     11  C   UNL     1      -6.087  11.330   8.417  0.00  0.00    -0.028 A 
ATOM     12  C   UNL     1      -5.862  10.805   9.698  0.00  0.00    +0.005 A 
ATOM     13  C   UNL     1      -7.339  11.130   7.817  0.00  0.00    +0.005 A 
ATOM     14  C   UNL     1      -6.876  10.119  10.371  0.00  0.00    +0.000 A 
ATOM     15  C   UNL     1      -8.349  10.444   8.492  0.00  0.00    +0.000 A 
ATOM     16  C   UNL     1      -8.117   9.940   9.770  0.00  0.00    +0.000 A 
ENDBRANCH  10  11
ENDBRANCH   1  10
TORSDOF 2
ENDMDL
MODEL 9
REMARK VINA RESULT:    -4.031      4.239      5.961
REMARK INTER + INTRA:          -4.617
REMARK INTER:                  -4.506
REMARK INTRA:                  -0.112
REMARK UNBOUND:                -0.115
REMARK  Name = 1550473
REMARK  2 active torsions:
REMARK  status: ('A' for Active; 'I' for Inactive)
REMARK    1  A    between atoms: N_1  and  C_4
REMARK    2  A    between atoms: C_4  and  C_5
REMARK                            x       y       z     vdW  Elec       q    Type
REMARK                         _______ _______ _______ _____ _____    ______ ____
ROOT
ATOM      1  N   UNL     1      -6.755  -9.809   9.738  0.00  0.00    -0.354 N 
ATOM      2  N   UNL     1      -8.825 -10.499  10.515  0.00  0.00    -0.372 N 
ATOM      3  N   UNL     1      -8.706  -8.634   9.184  0.00  0.00    -0.372 N 
ATOM      4  C   UNL     1      -8.083  -9.640   9.806  0.00  0.00    +0.166 C 
ATOM      5  H   UNL     1      -6.340 -10.574  10.257  0.00  0.00    +0.163 HD
ATOM      6  H   UNL     1      -9.829 -10.400  10.582  0.00  0.00    +0.159 HD
ATOM      7  H   UNL     1      -8.412 -11.290  10.995  0.00  0.00    +0.159 HD
ATOM      8  H   UNL     1      -8.203  -7.948   8.638  0.00  0.00    +0.159 HD
ATOM      9  H   UNL     1      -9.709  -8.511   9.249  0.00  0.00    +0.159 HD
ENDROOT
BRANCH   1  10
ATOM     10  C   UNL     1      -5.863  -8.961   8.949  0.00  0.00    +0.151 C 
BRANCH  10  11
ATOM     11  C   UNL     1      -4.438  -9.320   9.264  0.00  0.00    -0.028 A 
ATOM     12  C   UNL     1      -4.030  -9.518  10.592  0.00  0.00    +0.005 A 
ATOM     13  C   UNL     1      -3.491  -9.471   8.240  0.00  0.00    +0.005 A 
ATOM     14  C   UNL     1      -2.713  -9.881  10.883  0.00  0.00    +0.000 A 
ATOM     15  C   UNL     1      -2.176  -9.833   8.535  0.00  0.00    +0.000 A 
ATOM     16  C   UNL     1      -1.789 -10.041   9.856  0.00  0.00    +0.000 A 
ENDBRANCH  10  11
ENDBRANCH   1  10
TORSDOF 2
ENDMDL
