MODEL 1
REMARK VINA RESULT:    -4.728      0.000      0.000
REMARK INTER + INTRA:          -5.389
REMARK INTER:                  -5.281
REMARK INTRA:                  -0.108
REMARK UNBOUND:                -0.108
REMARK  Name = 1550473
REMARK  2 active torsions:
REMARK  status: ('A' for Active; 'I' for Inactive)
REMARK    1  A    between atoms: N_1  and  C_4
REMARK    2  A    between atoms: C_4  and  C_5
REMARK                            x       y       z     vdW  Elec       q    Type
REMARK                         _______ _______ _______ _____ _____    ______ ____
ROOT
ATOM      1  N   UNL     1      -6.497   6.937   8.754  0.00  0.00    -0.354 N 
ATOM      2  N   UNL     1      -6.369   9.188   8.225  0.00  0.00    -0.372 N 
ATOM      3  N   UNL     1      -8.293   8.381   9.179  0.00  0.00    -0.372 N 
ATOM      4  C   UNL     1      -7.057   8.154   8.724  0.00  0.00    +0.166 C 
ATOM      5  H   UNL     1      -5.568   6.825   8.366  0.00  0.00    +0.163 HD
ATOM      6  H   UNL     1      -6.763  10.118   8.192  0.00  0.00    +0.159 HD
ATOM      7  H   UNL     1      -5.422   9.082   7.880  0.00  0.00    +0.159 HD
ATOM      8  H   UNL     1      -8.867   7.642   9.562  0.00  0.00    +0.159 HD
ATOM      9  H   UNL     1      -8.710   9.303   9.144  0.00  0.00    +0.159 HD
ENDROOT
BRANCH   1  10
ATOM     10  C   UNL     1      -7.141   5.755   9.325  0.00  0.00    +0.151 C 
BRANCH  10  11
ATOM     11  C   UNL     1      -6.352   5.296  10.520  0.00  0.00    -0.028 A 
ATOM     12  C   UNL     1      -5.336   6.101  11.056  0.00  0.00    +0.005 A 
ATOM     13  C   UNL     1      -6.619   4.058  11.125  0.00  0.00    +0.005 A 
ATOM     14  C   UNL     1      -4.623   5.688  12.184  0.00  0.00    +0.000 A 
ATOM     15  C   UNL     1      -5.904   3.649  12.251  0.00  0.00    +0.000 A 
ATOM     16  C   UNL     1      -4.908   4.465  12.781  0.00  0.00    +0.000 A 
ENDBRANCH  10  11
ENDBRANCH   1  10
TORSDOF 2
ENDMDL
MODEL 2
REMARK VINA RESULT:    -4.452     13.088     14.226
REMARK INTER + INTRA:          -5.081
REMARK INTER:                  -4.954
REMARK INTRA:                  -0.127
REMARK UNBOUND:                -0.108
REMARK  Name = 1550473
REMARK  2 active torsions:
REMARK  status: ('A' for Active; 'I' for Inactive)
REMARK    1  A    between atoms: N_1  and  C_4
REMARK    2  A    between atoms: C_4  and  C_5
REMARK                            x       y       z     vdW  Elec       q    Type
REMARK                         _______ _______ _______ _____ _____    ______ ____
ROOT
ATOM      1  N   UNL     1       2.775   6.320  -0.335  0.00  0.00    -0.354 N 
ATOM      2  N   UNL     1       4.722   5.768   0.790  0.00  0.00    -0.372 N 
ATOM      3  N   UNL     1       2.720   4.976   1.584  0.00  0.00    -0.372 N 
ATOM      4  C   UNL     1       3.391   5.690   0.674  0.00  0.00    +0.166 C 
ATOM      5  H   UNL     1       3.337   6.870  -0.974  0.00  0.00    +0.163 HD
ATOM      6  H   UNL     1       5.215   5.300   1.539  0.00  0.00    +0.159 HD
ATOM      7  H   UNL     1       5.287   6.280   0.124  0.00  0.00    +0.159 HD
ATOM      8  H   UNL     1       1.714   4.883   1.556  0.00  0.00    +0.159 HD
ATOM      9  H   UNL     1       3.195   4.510   2.347  0.00  0.00    +0.159 HD
ENDROOT
BRANCH   1  10
ATOM     10  C   UNL     1       1.336   6.255  -0.582  0.00  0.00    +0.151 C 
BRANCH  10  11
ATOM     11  C   UNL     1       0.824   7.639  -0.872  0.00  0.00    -0.028 A 
ATOM     12  C   UNL     1       0.497   8.017  -2.183  0.00  0.00    +0.005 A 
ATOM     13  C   UNL     1       0.659   8.575   0.160  0.00  0.00    +0.005 A 
ATOM     14  C   UNL     1      -0.007   9.292  -2.449  0.00  0.00    +0.000 A 
ATOM     15  C   UNL     1       0.157   9.848  -0.110  0.00  0.00    +0.000 A 
ATOM     16  C   UNL     1      -0.179  10.206  -1.414  0.00  0.00    +0.000 A 
ENDBRANCH  10  11
ENDBRANCH   1  10
TORSDOF 2
ENDMDL
MODEL 3
REMARK VINA RESULT:    -4.376     13.680     14.700
REMARK INTER + INTRA:          -4.996
REMARK INTER:                  -4.834
REMARK INTRA:                  -0.162
REMARK UNBOUND:                -0.108
REMARK  Name = 1550473
REMARK  2 active torsions:
REMARK  status: ('A' for Active; 'I' for Inactive)
REMARK    1  A    between atoms: N_1  and  C_4
REMARK    2  A    between atoms: C_4  and  C_5
REMARK                            x       y       z     vdW  Elec       q    Type
REMARK                         _______ _______ _______ _____ _____    ______ ____
ROOT
ATOM      1  N   UNL     1       3.425   7.046  -0.174  0.00  0.00    -0.354 N 
ATOM      2  N   UNL     1       5.580   6.403   0.378  0.00  0.00    -0.372 N 
ATOM      3  N   UNL     1       3.847   5.749   1.731  0.00  0.00    -0.372 N 
ATOM      4  C   UNL     1       4.268   6.403   0.643  0.00  0.00    +0.166 C 
ATOM      5  H   UNL     1       3.811   7.549  -0.966  0.00  0.00    +0.163 HD
ATOM      6  H   UNL     1       6.240   5.923   0.975  0.00  0.00    +0.159 HD
ATOM      7  H   UNL     1       5.958   6.867  -0.439  0.00  0.00    +0.159 HD
ATOM      8  H   UNL     1       2.870   5.715   1.990  0.00  0.00    +0.159 HD
ATOM      9  H   UNL     1       4.493   5.272   2.347  0.00  0.00    +0.159 HD
ENDROOT
BRANCH   1  10
ATOM     10  C   UNL     1       1.973   7.062  -0.004  0.00  0.00    +0.151 C 
BRANCH  10  11
ATOM     11  C   UNL     1       1.345   6.202  -1.066  0.00  0.00    -0.028 A 
ATOM     12  C   UNL     1       1.349   4.804  -0.944  0.00  0.00    +0.005 A 
ATOM     13  C   UNL     1       0.739   6.778  -2.193  0.00  0.00    +0.005 A 
ATOM     14  C   UNL     1       0.739   4.006  -1.915  0.00  0.00    +0.000 A 
ATOM     15  C   UNL     1       0.133   5.978  -3.161  0.00  0.00    +0.000 A 
ATOM     16  C   UNL     1       0.130   4.592  -3.020  0.00  0.00    +0.000 A 
ENDBRANCH  10  11
ENDBRANCH   1  10
TORSDOF 2
ENDMDL
MODEL 4
REMARK VINA RESULT:    -4.297     23.404     23.807
REMARK INTER + INTRA:          -4.908
REMARK INTER:                  -4.740
REMARK INTRA:                  -0.168
REMARK UNBOUND:                -0.108
REMARK  Name = 1550473
REMARK  2 active torsions:
REMARK  status: ('A' for Active; 'I' for Inactive)
REMARK    1  A    between atoms: N_1  and  C_4
REMARK    2  A    between atoms: C_4  and  C_5
REMARK                            x       y       z     vdW  Elec       q    Type
REMARK                         _______ _______ _______ _____ _____    ______ ____
ROOT
ATOM      1  N   UNL     1       7.329  -1.824  -5.838  0.00  0.00    -0.354 N 
ATOM      2  N   UNL     1       5.721  -1.804  -4.171  0.00  0.00    -0.372 N 
ATOM      3  N   UNL     1       6.766   0.162  -4.728  0.00  0.00    -0.372 N 
ATOM      4  C   UNL     1       6.617  -1.153  -4.923  0.00  0.00    +0.166 C 
ATOM      5  H   UNL     1       7.191  -2.825  -5.916  0.00  0.00    +0.163 HD
ATOM      6  H   UNL     1       5.167  -1.323  -3.475  0.00  0.00    +0.159 HD
ATOM      7  H   UNL     1       5.552  -2.796  -4.283  0.00  0.00    +0.159 HD
ATOM      8  H   UNL     1       7.430   0.710  -5.259  0.00  0.00    +0.159 HD
ATOM      9  H   UNL     1       6.229   0.658  -4.029  0.00  0.00    +0.159 HD
ENDROOT
BRANCH   1  10
ATOM     10  C   UNL     1       8.291  -1.200  -6.745  0.00  0.00    +0.151 C 
BRANCH  10  11
ATOM     11  C   UNL     1       9.672  -1.690  -6.409  0.00  0.00    -0.028 A 
ATOM     12  C   UNL     1      10.426  -1.064  -5.405  0.00  0.00    +0.005 A 
ATOM     13  C   UNL     1      10.232  -2.784  -7.087  0.00  0.00    +0.005 A 
ATOM     14  C   UNL     1      11.697  -1.538  -5.072  0.00  0.00    +0.000 A 
ATOM     15  C   UNL     1      11.502  -3.254  -6.752  0.00  0.00    +0.000 A 
ATOM     16  C   UNL     1      12.233  -2.632  -5.743  0.00  0.00    +0.000 A 
ENDBRANCH  10  11
ENDBRANCH   1  10
TORSDOF 2
ENDMDL
MODEL 5
REMARK VINA RESULT:    -4.237     12.679     13.275
REMARK INTER + INTRA:          -4.840
REMARK INTER:                  -4.728
REMARK INTRA:                  -0.112
REMARK UNBOUND:                -0.108
REMARK  Name = 1550473
REMARK  2 active torsions:
REMARK  status: ('A' for Active; 'I' for Inactive)
REMARK    1  A    between atoms: N_1  and  C_4
REMARK    2  A    between atoms: C_4  and  C_5
REMARK                            x       y       z     vdW  Elec       q    Type
REMARK                         _______ _______ _______ _____ _____    ______ ____
ROOT
ATOM      1  N   UNL     1      -0.635  10.196  -1.102  0.00  0.00    -0.354 N 
ATOM      2  N   UNL     1      -2.504  11.519  -1.448  0.00  0.00    -0.372 N 
ATOM      3  N   UNL     1      -0.977  12.152   0.143  0.00  0.00    -0.372 N 
ATOM      4  C   UNL     1      -1.359  11.281  -0.798  0.00  0.00    +0.166 C 
ATOM      5  H   UNL     1      -0.994   9.559  -1.804  0.00  0.00    +0.163 HD
ATOM      6  H   UNL     1      -3.069  12.332  -1.243  0.00  0.00    +0.159 HD
ATOM      7  H   UNL     1      -2.838  10.905  -2.182  0.00  0.00    +0.159 HD
ATOM      8  H   UNL     1      -0.126  12.026   0.674  0.00  0.00    +0.159 HD
ATOM      9  H   UNL     1      -1.535  12.965   0.371  0.00  0.00    +0.159 HD
ENDROOT
BRANCH   1  10
ATOM     10  C   UNL     1       0.653   9.874  -0.490  0.00  0.00    +0.151 C 
BRANCH  10  11
ATOM     11  C   UNL     1       0.887   8.392  -0.588  0.00  0.00    -0.028 A 
ATOM     12  C   UNL     1       1.441   7.686   0.490  0.00  0.00    +0.005 A 
ATOM     13  C   UNL     1       0.551   7.686  -1.754  0.00  0.00    +0.005 A 
ATOM     14  C   UNL     1       1.630   6.304   0.411  0.00  0.00    +0.000 A 
ATOM     15  C   UNL     1       0.743   6.307  -1.829  0.00  0.00    +0.000 A 
ATOM     16  C   UNL     1       1.280   5.616  -0.746  0.00  0.00    +0.000 A 
ENDBRANCH  10  11
ENDBRANCH   1  10
TORSDOF 2
ENDMDL
MODEL 6
REMARK VINA RESULT:    -4.088     14.174     14.955
REMARK INTER + INTRA:          -4.675
REMARK INTER:                  -4.537
REMARK INTRA:                  -0.138
REMARK UNBOUND:                -0.108
REMARK  Name = 1550473
REMARK  2 active torsions:
REMARK  status: ('A' for Active; 'I' for Inactive)
REMARK    1  A    between atoms: N_1  and  C_4
REMARK    2  A    between atoms: C_4  and  C_5
REMARK                            x       y       z     vdW  Elec       q    Type
REMARK                         _______ _______ _______ _____ _____    ______ ____
ROOT
ATOM      1  N   UNL     1      -1.466   2.379  -3.405  0.00  0.00    -0.354 N 
ATOM      2  N   UNL     1      -3.619   1.543  -3.238  0.00  0.00    -0.372 N 
ATOM      3  N   UNL     1      -2.083   0.981  -1.629  0.00  0.00    -0.372 N 
ATOM      4  C   UNL     1      -2.374   1.638  -2.757  0.00  0.00    +0.166 C 
ATOM      5  H   UNL     1      -1.742   2.829  -4.271  0.00  0.00    +0.163 HD
ATOM      6  H   UNL     1      -4.327   0.994  -2.769  0.00  0.00    +0.159 HD
ATOM      7  H   UNL     1      -3.904   2.031  -4.079  0.00  0.00    +0.159 HD
ATOM      8  H   UNL     1      -1.160   1.007  -1.217  0.00  0.00    +0.159 HD
ATOM      9  H   UNL     1      -2.774   0.416  -1.151  0.00  0.00    +0.159 HD
ENDROOT
BRANCH   1  10
ATOM     10  C   UNL     1      -0.098   2.592  -2.936  0.00  0.00    +0.151 C 
BRANCH  10  11
ATOM     11  C   UNL     1       0.130   4.065  -2.737  0.00  0.00    -0.028 A 
ATOM     12  C   UNL     1       0.765   4.537  -1.579  0.00  0.00    +0.005 A 
ATOM     13  C   UNL     1      -0.283   4.994  -3.705  0.00  0.00    +0.005 A 
ATOM     14  C   UNL     1       1.004   5.903  -1.408  0.00  0.00    +0.000 A 
ATOM     15  C   UNL     1      -0.044   6.356  -3.529  0.00  0.00    +0.000 A 
ATOM     16  C   UNL     1       0.602   6.810  -2.382  0.00  0.00    +0.000 A 
ENDBRANCH  10  11
ENDBRANCH   1  10
TORSDOF 2
ENDMDL
MODEL 7
REMARK VINA RESULT:    -4.003     25.143     26.751
REMARK INTER + INTRA:          -4.579
REMARK INTER:                  -4.428
REMARK INTRA:                  -0.151
REMARK UNBOUND:                -0.108
REMARK  Name = 1550473
REMARK  2 active torsions:
REMARK  status: ('A' for Active; 'I' for Inactive)
REMARK    1  A    between atoms: N_1  and  C_4
REMARK    2  A    between atoms: C_4  and  C_5
REMARK                            x       y       z     vdW  Elec       q    Type
REMARK                         _______ _______ _______ _____ _____    ______ ____
ROOT
ATOM      1  N   UNL     1     -10.550   3.807 -14.124  0.00  0.00    -0.354 N 
ATOM      2  N   UNL     1     -10.730   3.549 -11.829  0.00  0.00    -0.372 N 
ATOM      3  N   UNL     1      -8.830   2.811 -12.882  0.00  0.00    -0.372 N 
ATOM      4  C   UNL     1     -10.033   3.389 -12.961  0.00  0.00    +0.166 C 
ATOM      5  H   UNL     1     -11.480   4.210 -14.120  0.00  0.00    +0.163 HD
ATOM      6  H   UNL     1     -10.364   3.247 -10.936  0.00  0.00    +0.159 HD
ATOM      7  H   UNL     1     -11.639   3.994 -11.822  0.00  0.00    +0.159 HD
ATOM      8  H   UNL     1      -8.256   2.655 -13.701  0.00  0.00    +0.159 HD
ATOM      9  H   UNL     1      -8.451   2.491 -11.999  0.00  0.00    +0.159 HD
ENDROOT
BRANCH   1  10
ATOM     10  C   UNL     1      -9.850   3.728 -15.405  0.00  0.00    +0.151 C 
BRANCH  10  11
ATOM     11  C   UNL     1     -10.507   2.679 -16.259  0.00  0.00    -0.028 A 
ATOM     12  C   UNL     1     -11.827   2.279 -16.007  0.00  0.00    +0.005 A 
ATOM     13  C   UNL     1      -9.816   2.086 -17.328  0.00  0.00    +0.005 A 
ATOM     14  C   UNL     1     -12.447   1.326 -16.819  0.00  0.00    +0.000 A 
ATOM     15  C   UNL     1     -10.439   1.135 -18.136  0.00  0.00    +0.000 A 
ATOM     16  C   UNL     1     -11.755   0.757 -17.882  0.00  0.00    +0.000 A 
ENDBRANCH  10  11
ENDBRANCH   1  10
TORSDOF 2
ENDMDL
MODEL 8
REMARK VINA RESULT:    -3.921      1.752      2.052
REMARK INTER + INTRA:          -4.488
REMARK INTER:                  -4.362
REMARK INTRA:                  -0.126
REMARK UNBOUND:                -0.108
REMARK  Name = 1550473
REMARK  2 active torsions:
REMARK  status: ('A' for Active; 'I' for Inactive)
REMARK    1  A    between atoms: N_1  and  C_4
REMARK    2  A    between atoms: C_4  and  C_5
REMARK                            x       y       z     vdW  Elec       q    Type
REMARK                         _______ _______ _______ _____ _____    ______ ____
ROOT
ATOM      1  N   UNL     1      -8.067   5.871   8.859  0.00  0.00    -0.354 N 
ATOM      2  N   UNL     1      -9.078   7.237   7.286  0.00  0.00    -0.372 N 
ATOM      3  N   UNL     1      -9.152   4.963   6.991  0.00  0.00    -0.372 N 
ATOM      4  C   UNL     1      -8.759   6.012   7.721  0.00  0.00    +0.166 C 
ATOM      5  H   UNL     1      -7.772   6.707   9.350  0.00  0.00    +0.163 HD
ATOM      6  H   UNL     1      -9.603   7.375   6.433  0.00  0.00    +0.159 HD
ATOM      7  H   UNL     1      -8.822   8.070   7.803  0.00  0.00    +0.159 HD
ATOM      8  H   UNL     1      -8.939   4.013   7.261  0.00  0.00    +0.159 HD
ATOM      9  H   UNL     1      -9.668   5.081   6.128  0.00  0.00    +0.159 HD
ENDROOT
BRANCH   1  10
ATOM     10  C   UNL     1      -7.715   4.580   9.447  0.00  0.00    +0.151 C 
BRANCH  10  11
ATOM     11  C   UNL     1      -6.644   4.786  10.482  0.00  0.00    -0.028 A 
ATOM     12  C   UNL     1      -6.001   6.027  10.602  0.00  0.00    +0.005 A 
ATOM     13  C   UNL     1      -6.271   3.747  11.348  0.00  0.00    +0.005 A 
ATOM     14  C   UNL     1      -5.026   6.228  11.583  0.00  0.00    +0.000 A 
ATOM     15  C   UNL     1      -5.297   3.952  12.325  0.00  0.00    +0.000 A 
ATOM     16  C   UNL     1      -4.677   5.193  12.444  0.00  0.00    +0.000 A 
ENDBRANCH  10  11
ENDBRANCH   1  10
TORSDOF 2
ENDMDL
MODEL 9
REMARK VINA RESULT:    -3.794     17.849     19.159
REMARK INTER + INTRA:          -4.345
REMARK INTER:                  -4.217
REMARK INTRA:                  -0.129
REMARK UNBOUND:                -0.108
REMARK  Name = 1550473
REMARK  2 active torsions:
REMARK  status: ('A' for Active; 'I' for Inactive)
REMARK    1  A    between atoms: N_1  and  C_4
REMARK    2  A    between atoms: C_4  and  C_5
REMARK                            x       y       z     vdW  Elec       q    Type
REMARK                         _______ _______ _______ _____ _____    ______ ____
ROOT
ATOM      1  N   UNL     1      -4.796   1.114  -6.485  0.00  0.00    -0.354 N 
ATOM      2  N   UNL     1      -5.953  -0.645  -5.520  0.00  0.00    -0.372 N 
ATOM      3  N   UNL     1      -3.936  -1.066  -6.528  0.00  0.00    -0.372 N 
ATOM      4  C   UNL     1      -4.885  -0.189  -6.185  0.00  0.00    +0.166 C 
ATOM      5  H   UNL     1      -5.563   1.722  -6.224  0.00  0.00    +0.163 HD
ATOM      6  H   UNL     1      -6.047  -1.622  -5.277  0.00  0.00    +0.159 HD
ATOM      7  H   UNL     1      -6.698  -0.027  -5.220  0.00  0.00    +0.159 HD
ATOM      8  H   UNL     1      -3.107  -0.787  -7.037  0.00  0.00    +0.159 HD
ATOM      9  H   UNL     1      -4.017  -2.050  -6.304  0.00  0.00    +0.159 HD
ENDROOT
BRANCH   1  10
ATOM     10  C   UNL     1      -3.649   1.721  -7.160  0.00  0.00    +0.151 C 
BRANCH  10  11
ATOM     11  C   UNL     1      -4.117   2.914  -7.946  0.00  0.00    -0.028 A 
ATOM     12  C   UNL     1      -5.419   2.957  -8.467  0.00  0.00    +0.005 A 
ATOM     13  C   UNL     1      -3.266   4.007  -8.169  0.00  0.00    +0.005 A 
ATOM     14  C   UNL     1      -5.864   4.078  -9.173  0.00  0.00    +0.000 A 
ATOM     15  C   UNL     1      -3.714   5.124  -8.874  0.00  0.00    +0.000 A 
ATOM     16  C   UNL     1      -5.014   5.160  -9.374  0.00  0.00    +0.000 A 
ENDBRANCH  10  11
ENDBRANCH   1  10
TORSDOF 2
ENDMDL
