MODEL 1
REMARK VINA RESULT:    -6.085      0.000      0.000
REMARK INTER + INTRA:          -6.965
REMARK INTER:                  -6.796
REMARK INTRA:                  -0.168
REMARK UNBOUND:                -0.168
REMARK  Name = 1550473
REMARK  2 active torsions:
REMARK  status: ('A' for Active; 'I' for Inactive)
REMARK    1  A    between atoms: N_1  and  C_4
REMARK    2  A    between atoms: C_4  and  C_5
REMARK                            x       y       z     vdW  Elec       q    Type
REMARK                         _______ _______ _______ _____ _____    ______ ____
ROOT
ATOM      1  N   UNL     1      -6.090  -3.553  -7.593  0.00  0.00    -0.354 N 
ATOM      2  N   UNL     1      -7.621  -5.258  -7.253  0.00  0.00    -0.372 N 
ATOM      3  N   UNL     1      -7.018  -4.721  -9.401  0.00  0.00    -0.372 N 
ATOM      4  C   UNL     1      -6.900  -4.499  -8.088  0.00  0.00    +0.166 C 
ATOM      5  H   UNL     1      -6.068  -3.415  -6.590  0.00  0.00    +0.163 HD
ATOM      6  H   UNL     1      -8.237  -5.981  -7.596  0.00  0.00    +0.159 HD
ATOM      7  H   UNL     1      -7.562  -5.148  -6.248  0.00  0.00    +0.159 HD
ATOM      8  H   UNL     1      -6.506  -4.179 -10.084  0.00  0.00    +0.159 HD
ATOM      9  H   UNL     1      -7.639  -5.433  -9.765  0.00  0.00    +0.159 HD
ENDROOT
BRANCH   1  10
ATOM     10  C   UNL     1      -5.222  -2.710  -8.414  0.00  0.00    +0.151 C 
BRANCH  10  11
ATOM     11  C   UNL     1      -3.792  -3.124  -8.201  0.00  0.00    -0.028 A 
ATOM     12  C   UNL     1      -3.122  -2.787  -7.016  0.00  0.00    +0.005 A 
ATOM     13  C   UNL     1      -3.103  -3.858  -9.180  0.00  0.00    +0.005 A 
ATOM     14  C   UNL     1      -1.803  -3.197  -6.806  0.00  0.00    +0.000 A 
ATOM     15  C   UNL     1      -1.786  -4.265  -8.966  0.00  0.00    +0.000 A 
ATOM     16  C   UNL     1      -1.137  -3.936  -7.778  0.00  0.00    +0.000 A 
ENDBRANCH  10  11
ENDBRANCH   1  10
TORSDOF 2
ENDMDL
MODEL 2
REMARK VINA RESULT:    -5.912      2.269      3.207
REMARK INTER + INTRA:          -6.771
REMARK INTER:                  -6.597
REMARK INTRA:                  -0.174
REMARK UNBOUND:                -0.168
REMARK  Name = 1550473
REMARK  2 active torsions:
REMARK  status: ('A' for Active; 'I' for Inactive)
REMARK    1  A    between atoms: N_1  and  C_4
REMARK    2  A    between atoms: C_4  and  C_5
REMARK                            x       y       z     vdW  Elec       q    Type
REMARK                         _______ _______ _______ _____ _____    ______ ____
ROOT
ATOM      1  N   UNL     1      -6.334  -3.066  -9.816  0.00  0.00    -0.354 N 
ATOM      2  N   UNL     1      -7.220  -1.210  -8.751  0.00  0.00    -0.372 N 
ATOM      3  N   UNL     1      -5.992  -2.711  -7.525  0.00  0.00    -0.372 N 
ATOM      4  C   UNL     1      -6.509  -2.343  -8.702  0.00  0.00    +0.166 C 
ATOM      5  H   UNL     1      -6.777  -2.748 -10.671  0.00  0.00    +0.163 HD
ATOM      6  H   UNL     1      -7.366  -0.642  -7.927  0.00  0.00    +0.159 HD
ATOM      7  H   UNL     1      -7.624  -0.871  -9.615  0.00  0.00    +0.159 HD
ATOM      8  H   UNL     1      -5.450  -3.559  -7.421  0.00  0.00    +0.159 HD
ATOM      9  H   UNL     1      -6.136  -2.162  -6.687  0.00  0.00    +0.159 HD
ENDROOT
BRANCH   1  10
ATOM     10  C   UNL     1      -5.532  -4.285  -9.882  0.00  0.00    +0.151 C 
BRANCH  10  11
ATOM     11  C   UNL     1      -4.221  -3.975 -10.552  0.00  0.00    -0.028 A 
ATOM     12  C   UNL     1      -3.014  -4.116  -9.852  0.00  0.00    +0.005 A 
ATOM     13  C   UNL     1      -4.180  -3.547 -11.887  0.00  0.00    +0.005 A 
ATOM     14  C   UNL     1      -1.794  -3.857 -10.482  0.00  0.00    +0.000 A 
ATOM     15  C   UNL     1      -2.960  -3.288 -12.513  0.00  0.00    +0.000 A 
ATOM     16  C   UNL     1      -1.768  -3.446 -11.811  0.00  0.00    +0.000 A 
ENDBRANCH  10  11
ENDBRANCH   1  10
TORSDOF 2
ENDMDL
MODEL 3
REMARK VINA RESULT:    -5.708      2.382      3.127
REMARK INTER + INTRA:          -6.544
REMARK INTER:                  -6.404
REMARK INTRA:                  -0.140
REMARK UNBOUND:                -0.168
REMARK  Name = 1550473
REMARK  2 active torsions:
REMARK  status: ('A' for Active; 'I' for Inactive)
REMARK    1  A    between atoms: N_1  and  C_4
REMARK    2  A    between atoms: C_4  and  C_5
REMARK                            x       y       z     vdW  Elec       q    Type
REMARK                         _______ _______ _______ _____ _____    ______ ____
ROOT
ATOM      1  N   UNL     1      -5.214  -5.541  -9.288  0.00  0.00    -0.354 N 
ATOM      2  N   UNL     1      -5.506  -6.515  -7.207  0.00  0.00    -0.372 N 
ATOM      3  N   UNL     1      -6.570  -4.534  -7.664  0.00  0.00    -0.372 N 
ATOM      4  C   UNL     1      -5.763  -5.521  -8.066  0.00  0.00    +0.166 C 
ATOM      5  H   UNL     1      -4.587  -6.302  -9.522  0.00  0.00    +0.163 HD
ATOM      6  H   UNL     1      -5.908  -6.529  -6.280  0.00  0.00    +0.159 HD
ATOM      7  H   UNL     1      -4.915  -7.298  -7.459  0.00  0.00    +0.159 HD
ATOM      8  H   UNL     1      -6.799  -3.752  -8.263  0.00  0.00    +0.159 HD
ATOM      9  H   UNL     1      -6.973  -4.524  -6.735  0.00  0.00    +0.159 HD
ENDROOT
BRANCH   1  10
ATOM     10  C   UNL     1      -5.473  -4.536 -10.317  0.00  0.00    +0.151 C 
BRANCH  10  11
ATOM     11  C   UNL     1      -4.163  -4.077 -10.896  0.00  0.00    -0.028 A 
ATOM     12  C   UNL     1      -2.972  -4.225 -10.169  0.00  0.00    +0.005 A 
ATOM     13  C   UNL     1      -4.104  -3.498 -12.173  0.00  0.00    +0.005 A 
ATOM     14  C   UNL     1      -1.751  -3.826 -10.718  0.00  0.00    +0.000 A 
ATOM     15  C   UNL     1      -2.883  -3.100 -12.717  0.00  0.00    +0.000 A 
ATOM     16  C   UNL     1      -1.707  -3.267 -11.990  0.00  0.00    +0.000 A 
ENDBRANCH  10  11
ENDBRANCH   1  10
TORSDOF 2
ENDMDL
MODEL 4
REMARK VINA RESULT:    -5.503     16.005     17.487
REMARK INTER + INTRA:          -6.315
REMARK INTER:                  -6.210
REMARK INTRA:                  -0.105
REMARK UNBOUND:                -0.168
REMARK  Name = 1550473
REMARK  2 active torsions:
REMARK  status: ('A' for Active; 'I' for Inactive)
REMARK    1  A    between atoms: N_1  and  C_4
REMARK    2  A    between atoms: C_4  and  C_5
REMARK                            x       y       z     vdW  Elec       q    Type
REMARK                         _______ _______ _______ _____ _____    ______ ____
ROOT
ATOM      1  N   UNL     1       3.754   0.071   8.048  0.00  0.00    -0.354 N 
ATOM      2  N   UNL     1       4.589  -0.250  10.184  0.00  0.00    -0.372 N 
ATOM      3  N   UNL     1       3.160  -1.815   9.306  0.00  0.00    -0.372 N 
ATOM      4  C   UNL     1       3.827  -0.665   9.165  0.00  0.00    +0.166 C 
ATOM      5  H   UNL     1       4.260   0.949   8.016  0.00  0.00    +0.163 HD
ATOM      6  H   UNL     1       4.667  -0.785  11.038  0.00  0.00    +0.159 HD
ATOM      7  H   UNL     1       5.131   0.605  10.132  0.00  0.00    +0.159 HD
ATOM      8  H   UNL     1       2.563  -2.180   8.576  0.00  0.00    +0.159 HD
ATOM      9  H   UNL     1       3.215  -2.359  10.158  0.00  0.00    +0.159 HD
ENDROOT
BRANCH   1  10
ATOM     10  C   UNL     1       2.995  -0.318   6.861  0.00  0.00    +0.151 C 
BRANCH  10  11
ATOM     11  C   UNL     1       3.946  -0.507   5.711  0.00  0.00    -0.028 A 
ATOM     12  C   UNL     1       5.266  -0.920   5.939  0.00  0.00    +0.005 A 
ATOM     13  C   UNL     1       3.530  -0.279   4.390  0.00  0.00    +0.005 A 
ATOM     14  C   UNL     1       6.141  -1.125   4.869  0.00  0.00    +0.000 A 
ATOM     15  C   UNL     1       4.406  -0.483   3.324  0.00  0.00    +0.000 A 
ATOM     16  C   UNL     1       5.711  -0.908   3.564  0.00  0.00    +0.000 A 
ENDBRANCH  10  11
ENDBRANCH   1  10
TORSDOF 2
ENDMDL
MODEL 5
REMARK VINA RESULT:    -5.374      1.555      2.749
REMARK INTER + INTRA:          -6.171
REMARK INTER:                  -6.042
REMARK INTRA:                  -0.129
REMARK UNBOUND:                -0.168
REMARK  Name = 1550473
REMARK  2 active torsions:
REMARK  status: ('A' for Active; 'I' for Inactive)
REMARK    1  A    between atoms: N_1  and  C_4
REMARK    2  A    between atoms: C_4  and  C_5
REMARK                            x       y       z     vdW  Elec       q    Type
REMARK                         _______ _______ _______ _____ _____    ______ ____
ROOT
ATOM      1  N   UNL     1      -7.130  -5.176  -8.995  0.00  0.00    -0.354 N 
ATOM      2  N   UNL     1      -9.099  -4.062  -8.497  0.00  0.00    -0.372 N 
ATOM      3  N   UNL     1      -8.181  -5.452  -6.919  0.00  0.00    -0.372 N 
ATOM      4  C   UNL     1      -8.123  -4.905  -8.138  0.00  0.00    +0.166 C 
ATOM      5  H   UNL     1      -7.160  -4.752  -9.916  0.00  0.00    +0.163 HD
ATOM      6  H   UNL     1      -9.859  -3.836  -7.870  0.00  0.00    +0.159 HD
ATOM      7  H   UNL     1      -9.102  -3.605  -9.401  0.00  0.00    +0.159 HD
ATOM      8  H   UNL     1      -7.479  -6.101  -6.589  0.00  0.00    +0.159 HD
ATOM      9  H   UNL     1      -8.940  -5.247  -6.282  0.00  0.00    +0.159 HD
ENDROOT
BRANCH   1  10
ATOM     10  C   UNL     1      -5.992  -6.038  -8.682  0.00  0.00    +0.151 C 
BRANCH  10  11
ATOM     11  C   UNL     1      -4.718  -5.295  -8.974  0.00  0.00    -0.028 A 
ATOM     12  C   UNL     1      -4.183  -5.279 -10.270  0.00  0.00    +0.005 A 
ATOM     13  C   UNL     1      -4.043  -4.599  -7.959  0.00  0.00    +0.005 A 
ATOM     14  C   UNL     1      -3.015  -4.564 -10.548  0.00  0.00    +0.000 A 
ATOM     15  C   UNL     1      -2.877  -3.886  -8.240  0.00  0.00    +0.000 A 
ATOM     16  C   UNL     1      -2.365  -3.867  -9.535  0.00  0.00    +0.000 A 
ENDBRANCH  10  11
ENDBRANCH   1  10
TORSDOF 2
ENDMDL
MODEL 6
REMARK VINA RESULT:    -5.263      2.586      5.669
REMARK INTER + INTRA:          -6.047
REMARK INTER:                  -5.910
REMARK INTRA:                  -0.137
REMARK UNBOUND:                -0.168
REMARK  Name = 1550473
REMARK  2 active torsions:
REMARK  status: ('A' for Active; 'I' for Inactive)
REMARK    1  A    between atoms: N_1  and  C_4
REMARK    2  A    between atoms: C_4  and  C_5
REMARK                            x       y       z     vdW  Elec       q    Type
REMARK                         _______ _______ _______ _____ _____    ______ ____
ROOT
ATOM      1  N   UNL     1      -5.708  -4.406  -8.836  0.00  0.00    -0.354 N 
ATOM      2  N   UNL     1      -4.164  -4.282  -7.114  0.00  0.00    -0.372 N 
ATOM      3  N   UNL     1      -5.860  -2.739  -7.196  0.00  0.00    -0.372 N 
ATOM      4  C   UNL     1      -5.256  -3.807  -7.726  0.00  0.00    +0.166 C 
ATOM      5  H   UNL     1      -5.187  -5.193  -9.205  0.00  0.00    +0.163 HD
ATOM      6  H   UNL     1      -3.802  -3.854  -6.273  0.00  0.00    +0.159 HD
ATOM      7  H   UNL     1      -3.672  -5.098  -7.459  0.00  0.00    +0.159 HD
ATOM      8  H   UNL     1      -6.685  -2.328  -7.613  0.00  0.00    +0.159 HD
ATOM      9  H   UNL     1      -5.506  -2.289  -6.361  0.00  0.00    +0.159 HD
ENDROOT
BRANCH   1  10
ATOM     10  C   UNL     1      -6.918  -4.000  -9.549  0.00  0.00    +0.151 C 
BRANCH  10  11
ATOM     11  C   UNL     1      -7.977  -5.050  -9.354  0.00  0.00    -0.028 A 
ATOM     12  C   UNL     1      -8.522  -5.286  -8.083  0.00  0.00    +0.005 A 
ATOM     13  C   UNL     1      -8.445  -5.809 -10.438  0.00  0.00    +0.005 A 
ATOM     14  C   UNL     1      -9.527  -6.240  -7.908  0.00  0.00    +0.000 A 
ATOM     15  C   UNL     1      -9.448  -6.761 -10.259  0.00  0.00    +0.000 A 
ATOM     16  C   UNL     1      -9.990  -6.975  -8.994  0.00  0.00    +0.000 A 
ENDBRANCH  10  11
ENDBRANCH   1  10
TORSDOF 2
ENDMDL
MODEL 7
REMARK VINA RESULT:    -5.259      1.535      2.179
REMARK INTER + INTRA:          -6.043
REMARK INTER:                  -5.919
REMARK INTRA:                  -0.124
REMARK UNBOUND:                -0.168
REMARK  Name = 1550473
REMARK  2 active torsions:
REMARK  status: ('A' for Active; 'I' for Inactive)
REMARK    1  A    between atoms: N_1  and  C_4
REMARK    2  A    between atoms: C_4  and  C_5
REMARK                            x       y       z     vdW  Elec       q    Type
REMARK                         _______ _______ _______ _____ _____    ______ ____
ROOT
ATOM      1  N   UNL     1      -5.256  -3.832  -9.445  0.00  0.00    -0.354 N 
ATOM      2  N   UNL     1      -7.526  -3.582  -9.826  0.00  0.00    -0.372 N 
ATOM      3  N   UNL     1      -6.383  -5.212 -10.967  0.00  0.00    -0.372 N 
ATOM      4  C   UNL     1      -6.373  -4.212 -10.079  0.00  0.00    +0.166 C 
ATOM      5  H   UNL     1      -5.308  -3.047  -8.806  0.00  0.00    +0.163 HD
ATOM      6  H   UNL     1      -8.386  -3.849 -10.286  0.00  0.00    +0.159 HD
ATOM      7  H   UNL     1      -7.585  -2.828  -9.152  0.00  0.00    +0.159 HD
ATOM      8  H   UNL     1      -5.545  -5.724 -11.207  0.00  0.00    +0.159 HD
ATOM      9  H   UNL     1      -7.231  -5.486 -11.447  0.00  0.00    +0.159 HD
ENDROOT
BRANCH   1  10
ATOM     10  C   UNL     1      -3.959  -4.487  -9.609  0.00  0.00    +0.151 C 
BRANCH  10  11
ATOM     11  C   UNL     1      -3.019  -3.990  -8.546  0.00  0.00    -0.028 A 
ATOM     12  C   UNL     1      -1.701  -4.463  -8.483  0.00  0.00    +0.005 A 
ATOM     13  C   UNL     1      -3.440  -3.041  -7.601  0.00  0.00    +0.005 A 
ATOM     14  C   UNL     1      -0.819  -3.979  -7.514  0.00  0.00    +0.000 A 
ATOM     15  C   UNL     1      -2.556  -2.560  -6.635  0.00  0.00    +0.000 A 
ATOM     16  C   UNL     1      -1.245  -3.028  -6.593  0.00  0.00    +0.000 A 
ENDBRANCH  10  11
ENDBRANCH   1  10
TORSDOF 2
ENDMDL
MODEL 8
REMARK VINA RESULT:    -5.208      4.353      6.640
REMARK INTER + INTRA:          -5.985
REMARK INTER:                  -5.880
REMARK INTRA:                  -0.105
REMARK UNBOUND:                -0.168
REMARK  Name = 1550473
REMARK  2 active torsions:
REMARK  status: ('A' for Active; 'I' for Inactive)
REMARK    1  A    between atoms: N_1  and  C_4
REMARK    2  A    between atoms: C_4  and  C_5
REMARK                            x       y       z     vdW  Elec       q    Type
REMARK                         _______ _______ _______ _____ _____    ______ ____
ROOT
ATOM      1  N   UNL     1      -8.549  -4.363  -8.538  0.00  0.00    -0.354 N 
ATOM      2  N   UNL     1      -8.183  -6.069  -7.015  0.00  0.00    -0.372 N 
ATOM      3  N   UNL     1      -6.425  -4.721  -7.613  0.00  0.00    -0.372 N 
ATOM      4  C   UNL     1      -7.719  -5.039  -7.732  0.00  0.00    +0.166 C 
ATOM      5  H   UNL     1      -9.511  -4.673  -8.607  0.00  0.00    +0.163 HD
ATOM      6  H   UNL     1      -7.582  -6.596  -6.396  0.00  0.00    +0.159 HD
ATOM      7  H   UNL     1      -9.156  -6.348  -7.051  0.00  0.00    +0.159 HD
ATOM      8  H   UNL     1      -6.012  -3.958  -8.132  0.00  0.00    +0.159 HD
ATOM      9  H   UNL     1      -5.805  -5.244  -7.007  0.00  0.00    +0.159 HD
ENDROOT
BRANCH   1  10
ATOM     10  C   UNL     1      -8.155  -3.193  -9.321  0.00  0.00    +0.151 C 
BRANCH  10  11
ATOM     11  C   UNL     1      -9.110  -3.027 -10.471  0.00  0.00    -0.028 A 
ATOM     12  C   UNL     1      -9.121  -3.952 -11.525  0.00  0.00    +0.005 A 
ATOM     13  C   UNL     1     -10.011  -1.951 -10.509  0.00  0.00    +0.005 A 
ATOM     14  C   UNL     1     -10.029  -3.815 -12.579  0.00  0.00    +0.000 A 
ATOM     15  C   UNL     1     -10.914  -1.818 -11.563  0.00  0.00    +0.000 A 
ATOM     16  C   UNL     1     -10.925  -2.752 -12.596  0.00  0.00    +0.000 A 
ENDBRANCH  10  11
ENDBRANCH   1  10
TORSDOF 2
ENDMDL
MODEL 9
REMARK VINA RESULT:    -5.205      1.975      3.072
REMARK INTER + INTRA:          -5.982
REMARK INTER:                  -5.912
REMARK INTRA:                  -0.070
REMARK UNBOUND:                -0.168
REMARK  Name = 1550473
REMARK  2 active torsions:
REMARK  status: ('A' for Active; 'I' for Inactive)
REMARK    1  A    between atoms: N_1  and  C_4
REMARK    2  A    between atoms: C_4  and  C_5
REMARK                            x       y       z     vdW  Elec       q    Type
REMARK                         _______ _______ _______ _____ _____    ______ ____
ROOT
ATOM      1  N   UNL     1      -8.213  -4.524  -9.440  0.00  0.00    -0.354 N 
ATOM      2  N   UNL     1     -10.125  -3.275  -9.056  0.00  0.00    -0.372 N 
ATOM      3  N   UNL     1      -9.591  -4.963  -7.596  0.00  0.00    -0.372 N 
ATOM      4  C   UNL     1      -9.297  -4.264  -8.698  0.00  0.00    +0.166 C 
ATOM      5  H   UNL     1      -8.062  -3.978 -10.281  0.00  0.00    +0.163 HD
ATOM      6  H   UNL     1     -10.949  -3.054  -8.514  0.00  0.00    +0.159 HD
ATOM      7  H   UNL     1      -9.948  -2.701  -9.871  0.00  0.00    +0.159 HD
ATOM      8  H   UNL     1      -9.010  -5.726  -7.275  0.00  0.00    +0.159 HD
ATOM      9  H   UNL     1     -10.417  -4.764  -7.047  0.00  0.00    +0.159 HD
ENDROOT
BRANCH   1  10
ATOM     10  C   UNL     1      -7.219  -5.544  -9.108  0.00  0.00    +0.151 C 
BRANCH  10  11
ATOM     11  C   UNL     1      -6.032  -4.882  -8.464  0.00  0.00    -0.028 A 
ATOM     12  C   UNL     1      -5.948  -3.483  -8.394  0.00  0.00    +0.005 A 
ATOM     13  C   UNL     1      -4.991  -5.647  -7.917  0.00  0.00    +0.005 A 
ATOM     14  C   UNL     1      -4.860  -2.868  -7.770  0.00  0.00    +0.000 A 
ATOM     15  C   UNL     1      -3.906  -5.030  -7.295  0.00  0.00    +0.000 A 
ATOM     16  C   UNL     1      -3.842  -3.640  -7.219  0.00  0.00    +0.000 A 
ENDBRANCH  10  11
ENDBRANCH   1  10
TORSDOF 2
ENDMDL
