MODEL 1
REMARK VINA RESULT:    -4.769      0.000      0.000
REMARK INTER + INTRA:          -5.492
REMARK INTER:                  -5.326
REMARK INTRA:                  -0.165
REMARK UNBOUND:                -0.165
REMARK  Name = 1550473
REMARK  2 active torsions:
REMARK  status: ('A' for Active; 'I' for Inactive)
REMARK    1  A    between atoms: N_1  and  C_4
REMARK    2  A    between atoms: C_4  and  C_5
REMARK                            x       y       z     vdW  Elec       q    Type
REMARK                         _______ _______ _______ _____ _____    ______ ____
ROOT
ATOM      1  N   UNL     1      -2.347   1.434  23.754  0.00  0.00    -0.354 N 
ATOM      2  N   UNL     1      -2.716   0.532  25.855  0.00  0.00    -0.372 N 
ATOM      3  N   UNL     1      -0.562   0.977  25.203  0.00  0.00    -0.372 N 
ATOM      4  C   UNL     1      -1.870   0.987  24.924  0.00  0.00    +0.166 C 
ATOM      5  H   UNL     1      -3.346   1.387  23.593  0.00  0.00    +0.163 HD
ATOM      6  H   UNL     1      -2.386   0.192  26.748  0.00  0.00    +0.159 HD
ATOM      7  H   UNL     1      -3.718   0.529  25.709  0.00  0.00    +0.159 HD
ATOM      8  H   UNL     1       0.129   1.301  24.540  0.00  0.00    +0.159 HD
ATOM      9  H   UNL     1      -0.211   0.629  26.086  0.00  0.00    +0.159 HD
ENDROOT
BRANCH   1  10
ATOM     10  C   UNL     1      -1.514   1.999  22.694  0.00  0.00    +0.151 C 
BRANCH  10  11
ATOM     11  C   UNL     1      -1.687   3.493  22.678  0.00  0.00    -0.028 A 
ATOM     12  C   UNL     1      -2.564   4.099  21.767  0.00  0.00    +0.005 A 
ATOM     13  C   UNL     1      -0.980   4.308  23.576  0.00  0.00    +0.005 A 
ATOM     14  C   UNL     1      -2.747   5.484  21.772  0.00  0.00    +0.000 A 
ATOM     15  C   UNL     1      -1.166   5.690  23.577  0.00  0.00    +0.000 A 
ATOM     16  C   UNL     1      -2.051   6.278  22.677  0.00  0.00    +0.000 A 
ENDBRANCH  10  11
ENDBRANCH   1  10
TORSDOF 2
ENDMDL
MODEL 2
REMARK VINA RESULT:    -4.449      2.267      3.382
REMARK INTER + INTRA:          -5.135
REMARK INTER:                  -4.987
REMARK INTRA:                  -0.148
REMARK UNBOUND:                -0.165
REMARK  Name = 1550473
REMARK  2 active torsions:
REMARK  status: ('A' for Active; 'I' for Inactive)
REMARK    1  A    between atoms: N_1  and  C_4
REMARK    2  A    between atoms: C_4  and  C_5
REMARK                            x       y       z     vdW  Elec       q    Type
REMARK                         _______ _______ _______ _____ _____    ______ ____
ROOT
ATOM      1  N   UNL     1      -2.235   3.707  21.974  0.00  0.00    -0.354 N 
ATOM      2  N   UNL     1      -2.276   1.395  22.118  0.00  0.00    -0.372 N 
ATOM      3  N   UNL     1      -1.235   2.592  23.776  0.00  0.00    -0.372 N 
ATOM      4  C   UNL     1      -1.913   2.580  22.624  0.00  0.00    +0.166 C 
ATOM      5  H   UNL     1      -2.724   3.629  21.090  0.00  0.00    +0.163 HD
ATOM      6  H   UNL     1      -2.050   0.529  22.588  0.00  0.00    +0.159 HD
ATOM      7  H   UNL     1      -2.805   1.323  21.258  0.00  0.00    +0.159 HD
ATOM      8  H   UNL     1      -0.927   3.453  24.208  0.00  0.00    +0.159 HD
ATOM      9  H   UNL     1      -0.989   1.735  24.256  0.00  0.00    +0.159 HD
ENDROOT
BRANCH   1  10
ATOM     10  C   UNL     1      -1.935   5.050  22.467  0.00  0.00    +0.151 C 
BRANCH  10  11
ATOM     11  C   UNL     1      -3.205   5.689  22.956  0.00  0.00    -0.028 A 
ATOM     12  C   UNL     1      -3.161   6.755  23.866  0.00  0.00    +0.005 A 
ATOM     13  C   UNL     1      -4.456   5.236  22.509  0.00  0.00    +0.005 A 
ATOM     14  C   UNL     1      -4.339   7.369  24.298  0.00  0.00    +0.000 A 
ATOM     15  C   UNL     1      -5.630   5.851  22.943  0.00  0.00    +0.000 A 
ATOM     16  C   UNL     1      -5.571   6.919  23.836  0.00  0.00    +0.000 A 
ENDBRANCH  10  11
ENDBRANCH   1  10
TORSDOF 2
ENDMDL
MODEL 3
REMARK VINA RESULT:    -4.223      1.591      2.102
REMARK INTER + INTRA:          -4.883
REMARK INTER:                  -4.702
REMARK INTRA:                  -0.181
REMARK UNBOUND:                -0.165
REMARK  Name = 1550473
REMARK  2 active torsions:
REMARK  status: ('A' for Active; 'I' for Inactive)
REMARK    1  A    between atoms: N_1  and  C_4
REMARK    2  A    between atoms: C_4  and  C_5
REMARK                            x       y       z     vdW  Elec       q    Type
REMARK                         _______ _______ _______ _____ _____    ______ ____
ROOT
ATOM      1  N   UNL     1      -0.672   1.615  22.928  0.00  0.00    -0.354 N 
ATOM      2  N   UNL     1       1.409   0.722  22.444  0.00  0.00    -0.372 N 
ATOM      3  N   UNL     1       1.139   1.917  24.384  0.00  0.00    -0.372 N 
ATOM      4  C   UNL     1       0.613   1.425  23.258  0.00  0.00    +0.166 C 
ATOM      5  H   UNL     1      -1.003   1.243  22.046  0.00  0.00    +0.163 HD
ATOM      6  H   UNL     1       2.382   0.560  22.668  0.00  0.00    +0.159 HD
ATOM      7  H   UNL     1       1.065   0.312  21.585  0.00  0.00    +0.159 HD
ATOM      8  H   UNL     1       0.593   2.461  25.038  0.00  0.00    +0.159 HD
ATOM      9  H   UNL     1       2.114   1.775  24.620  0.00  0.00    +0.159 HD
ENDROOT
BRANCH   1  10
ATOM     10  C   UNL     1      -1.637   2.320  23.771  0.00  0.00    +0.151 C 
BRANCH  10  11
ATOM     11  C   UNL     1      -1.811   3.720  23.252  0.00  0.00    -0.028 A 
ATOM     12  C   UNL     1      -2.511   3.955  22.059  0.00  0.00    +0.005 A 
ATOM     13  C   UNL     1      -1.285   4.817  23.950  0.00  0.00    +0.005 A 
ATOM     14  C   UNL     1      -2.700   5.258  21.592  0.00  0.00    +0.000 A 
ATOM     15  C   UNL     1      -1.474   6.117  23.480  0.00  0.00    +0.000 A 
ATOM     16  C   UNL     1      -2.184   6.337  22.302  0.00  0.00    +0.000 A 
ENDBRANCH  10  11
ENDBRANCH   1  10
TORSDOF 2
ENDMDL
MODEL 4
REMARK VINA RESULT:    -4.184     43.519     44.232
REMARK INTER + INTRA:          -4.839
REMARK INTER:                  -4.723
REMARK INTRA:                  -0.116
REMARK UNBOUND:                -0.165
REMARK  Name = 1550473
REMARK  2 active torsions:
REMARK  status: ('A' for Active; 'I' for Inactive)
REMARK    1  A    between atoms: N_1  and  C_4
REMARK    2  A    between atoms: C_4  and  C_5
REMARK                            x       y       z     vdW  Elec       q    Type
REMARK                         _______ _______ _______ _____ _____    ______ ____
ROOT
ATOM      1  N   UNL     1     -28.572 -23.888   0.243  0.00  0.00    -0.354 N 
ATOM      2  N   UNL     1     -30.639 -23.828   1.286  0.00  0.00    -0.372 N 
ATOM      3  N   UNL     1     -28.782 -23.176   2.466  0.00  0.00    -0.372 N 
ATOM      4  C   UNL     1     -29.316 -23.630   1.327  0.00  0.00    +0.166 C 
ATOM      5  H   UNL     1     -29.033 -24.259  -0.580  0.00  0.00    +0.163 HD
ATOM      6  H   UNL     1     -31.226 -23.639   2.087  0.00  0.00    +0.159 HD
ATOM      7  H   UNL     1     -31.103 -24.155   0.448  0.00  0.00    +0.159 HD
ATOM      8  H   UNL     1     -27.789 -23.012   2.564  0.00  0.00    +0.159 HD
ATOM      9  H   UNL     1     -29.352 -22.993   3.283  0.00  0.00    +0.159 HD
ENDROOT
BRANCH   1  10
ATOM     10  C   UNL     1     -27.130 -23.656   0.167  0.00  0.00    +0.151 C 
BRANCH  10  11
ATOM     11  C   UNL     1     -26.781 -23.188  -1.219  0.00  0.00    -0.028 A 
ATOM     12  C   UNL     1     -27.156 -21.908  -1.654  0.00  0.00    +0.005 A 
ATOM     13  C   UNL     1     -26.071 -24.017  -2.101  0.00  0.00    +0.005 A 
ATOM     14  C   UNL     1     -26.806 -21.462  -2.931  0.00  0.00    +0.000 A 
ATOM     15  C   UNL     1     -25.724 -23.569  -3.375  0.00  0.00    +0.000 A 
ATOM     16  C   UNL     1     -26.089 -22.290  -3.789  0.00  0.00    +0.000 A 
ENDBRANCH  10  11
ENDBRANCH   1  10
TORSDOF 2
ENDMDL
MODEL 5
REMARK VINA RESULT:    -4.175      3.400      4.552
REMARK INTER + INTRA:          -4.828
REMARK INTER:                  -4.659
REMARK INTRA:                  -0.170
REMARK UNBOUND:                -0.165
REMARK  Name = 1550473
REMARK  2 active torsions:
REMARK  status: ('A' for Active; 'I' for Inactive)
REMARK    1  A    between atoms: N_1  and  C_4
REMARK    2  A    between atoms: C_4  and  C_5
REMARK                            x       y       z     vdW  Elec       q    Type
REMARK                         _______ _______ _______ _____ _____    ______ ____
ROOT
ATOM      1  N   UNL     1       2.429   2.387  22.747  0.00  0.00    -0.354 N 
ATOM      2  N   UNL     1       4.206   3.249  21.537  0.00  0.00    -0.372 N 
ATOM      3  N   UNL     1       3.538   4.328  23.449  0.00  0.00    -0.372 N 
ATOM      4  C   UNL     1       3.379   3.318  22.587  0.00  0.00    +0.166 C 
ATOM      5  H   UNL     1       2.340   1.664  22.042  0.00  0.00    +0.163 HD
ATOM      6  H   UNL     1       4.935   3.934  21.392  0.00  0.00    +0.159 HD
ATOM      7  H   UNL     1       4.145   2.499  20.859  0.00  0.00    +0.159 HD
ATOM      8  H   UNL     1       2.943   4.440  24.258  0.00  0.00    +0.159 HD
ATOM      9  H   UNL     1       4.255   5.031  23.314  0.00  0.00    +0.159 HD
ENDROOT
BRANCH   1  10
ATOM     10  C   UNL     1       1.512   2.341  23.885  0.00  0.00    +0.151 C 
BRANCH  10  11
ATOM     11  C   UNL     1       0.124   2.673  23.411  0.00  0.00    -0.028 A 
ATOM     12  C   UNL     1      -0.387   3.971  23.557  0.00  0.00    +0.005 A 
ATOM     13  C   UNL     1      -0.684   1.695  22.811  0.00  0.00    +0.005 A 
ATOM     14  C   UNL     1      -1.665   4.287  23.090  0.00  0.00    +0.000 A 
ATOM     15  C   UNL     1      -1.960   2.014  22.347  0.00  0.00    +0.000 A 
ATOM     16  C   UNL     1      -2.449   3.311  22.484  0.00  0.00    +0.000 A 
ENDBRANCH  10  11
ENDBRANCH   1  10
TORSDOF 2
ENDMDL
MODEL 6
REMARK VINA RESULT:    -4.129      4.643      5.722
REMARK INTER + INTRA:          -4.778
REMARK INTER:                  -4.671
REMARK INTRA:                  -0.107
REMARK UNBOUND:                -0.165
REMARK  Name = 1550473
REMARK  2 active torsions:
REMARK  status: ('A' for Active; 'I' for Inactive)
REMARK    1  A    between atoms: N_1  and  C_4
REMARK    2  A    between atoms: C_4  and  C_5
REMARK                            x       y       z     vdW  Elec       q    Type
REMARK                         _______ _______ _______ _____ _____    ______ ____
ROOT
ATOM      1  N   UNL     1      -5.881   6.834  23.954  0.00  0.00    -0.354 N 
ATOM      2  N   UNL     1      -6.943   8.827  24.468  0.00  0.00    -0.372 N 
ATOM      3  N   UNL     1      -7.693   7.599  22.681  0.00  0.00    -0.372 N 
ATOM      4  C   UNL     1      -6.834   7.740  23.695  0.00  0.00    +0.166 C 
ATOM      5  H   UNL     1      -5.241   7.014  24.720  0.00  0.00    +0.163 HD
ATOM      6  H   UNL     1      -7.654   9.526  24.299  0.00  0.00    +0.159 HD
ATOM      7  H   UNL     1      -6.332   8.982  25.260  0.00  0.00    +0.159 HD
ATOM      8  H   UNL     1      -7.660   6.804  22.057  0.00  0.00    +0.159 HD
ATOM      9  H   UNL     1      -8.404   8.293  22.488  0.00  0.00    +0.159 HD
ENDROOT
BRANCH   1  10
ATOM     10  C   UNL     1      -5.711   5.590  23.207  0.00  0.00    +0.151 C 
BRANCH  10  11
ATOM     11  C   UNL     1      -4.253   5.222  23.190  0.00  0.00    -0.028 A 
ATOM     12  C   UNL     1      -3.592   4.985  21.975  0.00  0.00    +0.005 A 
ATOM     13  C   UNL     1      -3.524   5.115  24.385  0.00  0.00    +0.005 A 
ATOM     14  C   UNL     1      -2.231   4.673  21.957  0.00  0.00    +0.000 A 
ATOM     15  C   UNL     1      -2.165   4.803  24.362  0.00  0.00    +0.000 A 
ATOM     16  C   UNL     1      -1.518   4.584  23.148  0.00  0.00    +0.000 A 
ENDBRANCH  10  11
ENDBRANCH   1  10
TORSDOF 2
ENDMDL
MODEL 7
REMARK VINA RESULT:    -3.977      3.161      4.080
REMARK INTER + INTRA:          -4.608
REMARK INTER:                  -4.465
REMARK INTRA:                  -0.143
REMARK UNBOUND:                -0.165
REMARK  Name = 1550473
REMARK  2 active torsions:
REMARK  status: ('A' for Active; 'I' for Inactive)
REMARK    1  A    between atoms: N_1  and  C_4
REMARK    2  A    between atoms: C_4  and  C_5
REMARK                            x       y       z     vdW  Elec       q    Type
REMARK                         _______ _______ _______ _____ _____    ______ ____
ROOT
ATOM      1  N   UNL     1      -0.407   1.513  23.899  0.00  0.00    -0.354 N 
ATOM      2  N   UNL     1      -2.628   1.702  24.528  0.00  0.00    -0.372 N 
ATOM      3  N   UNL     1      -2.124   1.423  22.307  0.00  0.00    -0.372 N 
ATOM      4  C   UNL     1      -1.705   1.544  23.571  0.00  0.00    +0.166 C 
ATOM      5  H   UNL     1      -0.153   1.641  24.871  0.00  0.00    +0.163 HD
ATOM      6  H   UNL     1      -3.615   1.726  24.311  0.00  0.00    +0.159 HD
ATOM      7  H   UNL     1      -2.373   1.783  25.505  0.00  0.00    +0.159 HD
ATOM      8  H   UNL     1      -1.478   1.307  21.537  0.00  0.00    +0.159 HD
ATOM      9  H   UNL     1      -3.108   1.456  22.069  0.00  0.00    +0.159 HD
ENDROOT
BRANCH   1  10
ATOM     10  C   UNL     1       0.674   1.292  22.939  0.00  0.00    +0.151 C 
BRANCH  10  11
ATOM     11  C   UNL     1       1.733   2.340  23.143  0.00  0.00    -0.028 A 
ATOM     12  C   UNL     1       2.939   2.281  22.429  0.00  0.00    +0.005 A 
ATOM     13  C   UNL     1       1.535   3.397  24.045  0.00  0.00    +0.005 A 
ATOM     14  C   UNL     1       3.911   3.270  22.596  0.00  0.00    +0.000 A 
ATOM     15  C   UNL     1       2.509   4.382  24.209  0.00  0.00    +0.000 A 
ATOM     16  C   UNL     1       3.695   4.320  23.483  0.00  0.00    +0.000 A 
ENDBRANCH  10  11
ENDBRANCH   1  10
TORSDOF 2
ENDMDL
MODEL 8
REMARK VINA RESULT:    -3.856     17.953     19.182
REMARK INTER + INTRA:          -4.472
REMARK INTER:                  -4.371
REMARK INTRA:                  -0.101
REMARK UNBOUND:                -0.165
REMARK  Name = 1550473
REMARK  2 active torsions:
REMARK  status: ('A' for Active; 'I' for Inactive)
REMARK    1  A    between atoms: N_1  and  C_4
REMARK    2  A    between atoms: C_4  and  C_5
REMARK                            x       y       z     vdW  Elec       q    Type
REMARK                         _______ _______ _______ _____ _____    ______ ____
ROOT
ATOM      1  N   UNL     1       6.534  13.360  10.791  0.00  0.00    -0.354 N 
ATOM      2  N   UNL     1       7.931  11.513  10.791  0.00  0.00    -0.372 N 
ATOM      3  N   UNL     1       6.209  11.601  12.305  0.00  0.00    -0.372 N 
ATOM      4  C   UNL     1       6.881  12.169  11.298  0.00  0.00    +0.166 C 
ATOM      5  H   UNL     1       7.103  13.751  10.048  0.00  0.00    +0.163 HD
ATOM      6  H   UNL     1       8.214  10.611  11.150  0.00  0.00    +0.159 HD
ATOM      7  H   UNL     1       8.469  11.884  10.018  0.00  0.00    +0.159 HD
ATOM      8  H   UNL     1       5.411  12.048  12.736  0.00  0.00    +0.159 HD
ATOM      9  H   UNL     1       6.485  10.705  12.686  0.00  0.00    +0.159 HD
ENDROOT
BRANCH   1  10
ATOM     10  C   UNL     1       5.375  14.132  11.235  0.00  0.00    +0.151 C 
BRANCH  10  11
ATOM     11  C   UNL     1       5.253  15.368  10.387  0.00  0.00    -0.028 A 
ATOM     12  C   UNL     1       6.313  16.282  10.304  0.00  0.00    +0.005 A 
ATOM     13  C   UNL     1       4.082  15.626   9.658  0.00  0.00    +0.005 A 
ATOM     14  C   UNL     1       6.212  17.415   9.493  0.00  0.00    +0.000 A 
ATOM     15  C   UNL     1       3.984  16.759   8.850  0.00  0.00    +0.000 A 
ATOM     16  C   UNL     1       5.050  17.651   8.765  0.00  0.00    +0.000 A 
ENDBRANCH  10  11
ENDBRANCH   1  10
TORSDOF 2
ENDMDL
MODEL 9
REMARK VINA RESULT:    -3.841     17.983     18.684
REMARK INTER + INTRA:          -4.455
REMARK INTER:                  -4.310
REMARK INTRA:                  -0.146
REMARK UNBOUND:                -0.165
REMARK  Name = 1550473
REMARK  2 active torsions:
REMARK  status: ('A' for Active; 'I' for Inactive)
REMARK    1  A    between atoms: N_1  and  C_4
REMARK    2  A    between atoms: C_4  and  C_5
REMARK                            x       y       z     vdW  Elec       q    Type
REMARK                         _______ _______ _______ _____ _____    ______ ____
ROOT
ATOM      1  N   UNL     1      10.665  10.803  12.129  0.00  0.00    -0.354 N 
ATOM      2  N   UNL     1      10.413  12.028  14.078  0.00  0.00    -0.372 N 
ATOM      3  N   UNL     1       8.537  11.339  12.951  0.00  0.00    -0.372 N 
ATOM      4  C   UNL     1       9.871  11.382  13.039  0.00  0.00    +0.166 C 
ATOM      5  H   UNL     1      11.669  10.897  12.237  0.00  0.00    +0.163 HD
ATOM      6  H   UNL     1       9.839  12.472  14.782  0.00  0.00    +0.159 HD
ATOM      7  H   UNL     1      11.416  12.081  14.208  0.00  0.00    +0.159 HD
ATOM      8  H   UNL     1       8.066  10.872  12.188  0.00  0.00    +0.159 HD
ATOM      9  H   UNL     1       7.946  11.787  13.639  0.00  0.00    +0.159 HD
ENDROOT
BRANCH   1  10
ATOM     10  C   UNL     1      10.175  10.029  10.990  0.00  0.00    +0.151 C 
BRANCH  10  11
ATOM     11  C   UNL     1      10.799   8.661  11.020  0.00  0.00    -0.028 A 
ATOM     12  C   UNL     1      10.627   7.824  12.132  0.00  0.00    +0.005 A 
ATOM     13  C   UNL     1      11.558   8.194   9.936  0.00  0.00    +0.005 A 
ATOM     14  C   UNL     1      11.182   6.542  12.148  0.00  0.00    +0.000 A 
ATOM     15  C   UNL     1      12.111   6.913   9.956  0.00  0.00    +0.000 A 
ATOM     16  C   UNL     1      11.921   6.087  11.061  0.00  0.00    +0.000 A 
ENDBRANCH  10  11
ENDBRANCH   1  10
TORSDOF 2
ENDMDL
