MODEL 1
REMARK VINA RESULT:    -5.483      0.000      0.000
REMARK INTER + INTRA:          -6.239
REMARK INTER:                  -6.124
REMARK INTRA:                  -0.116
REMARK UNBOUND:                -0.116
REMARK  Name = 1550473
REMARK  2 active torsions:
REMARK  status: ('A' for Active; 'I' for Inactive)
REMARK    1  A    between atoms: N_1  and  C_4
REMARK    2  A    between atoms: C_4  and  C_5
REMARK                            x       y       z     vdW  Elec       q    Type
REMARK                         _______ _______ _______ _____ _____    ______ ____
ROOT
ATOM      1  N   UNL     1       2.912 -17.403   8.330  0.00  0.00    -0.354 N 
ATOM      2  N   UNL     1       5.203 -17.338   8.666  0.00  0.00    -0.372 N 
ATOM      3  N   UNL     1       3.996 -15.398   8.875  0.00  0.00    -0.372 N 
ATOM      4  C   UNL     1       4.022 -16.711   8.622  0.00  0.00    +0.166 C 
ATOM      5  H   UNL     1       3.003 -18.390   8.119  0.00  0.00    +0.163 HD
ATOM      6  H   UNL     1       6.057 -16.843   8.886  0.00  0.00    +0.159 HD
ATOM      7  H   UNL     1       5.284 -18.334   8.499  0.00  0.00    +0.159 HD
ATOM      8  H   UNL     1       3.137 -14.865   8.851  0.00  0.00    +0.159 HD
ATOM      9  H   UNL     1       4.842 -14.882   9.086  0.00  0.00    +0.159 HD
ENDROOT
BRANCH   1  10
ATOM     10  C   UNL     1       1.570 -16.825   8.309  0.00  0.00    +0.151 C 
BRANCH  10  11
ATOM     11  C   UNL     1       0.759 -17.505   7.241  0.00  0.00    -0.028 A 
ATOM     12  C   UNL     1      -0.090 -16.760   6.410  0.00  0.00    +0.005 A 
ATOM     13  C   UNL     1       0.840 -18.893   7.050  0.00  0.00    +0.005 A 
ATOM     14  C   UNL     1      -0.821 -17.387   5.397  0.00  0.00    +0.000 A 
ATOM     15  C   UNL     1       0.109 -19.515   6.039  0.00  0.00    +0.000 A 
ATOM     16  C   UNL     1      -0.720 -18.762   5.211  0.00  0.00    +0.000 A 
ENDBRANCH  10  11
ENDBRANCH   1  10
TORSDOF 2
ENDMDL
MODEL 2
REMARK VINA RESULT:    -4.987     30.045     31.000
REMARK INTER + INTRA:          -5.686
REMARK INTER:                  -5.549
REMARK INTRA:                  -0.137
REMARK UNBOUND:                -0.116
REMARK  Name = 1550473
REMARK  2 active torsions:
REMARK  status: ('A' for Active; 'I' for Inactive)
REMARK    1  A    between atoms: N_1  and  C_4
REMARK    2  A    between atoms: C_4  and  C_5
REMARK                            x       y       z     vdW  Elec       q    Type
REMARK                         _______ _______ _______ _____ _____    ______ ____
ROOT
ATOM      1  N   UNL     1       3.490  -2.955 -19.069  0.00  0.00    -0.354 N 
ATOM      2  N   UNL     1       5.277  -3.760 -20.302  0.00  0.00    -0.372 N 
ATOM      3  N   UNL     1       5.477  -1.726 -19.258  0.00  0.00    -0.372 N 
ATOM      4  C   UNL     1       4.737  -2.806 -19.534  0.00  0.00    +0.166 C 
ATOM      5  H   UNL     1       2.971  -3.782 -19.339  0.00  0.00    +0.163 HD
ATOM      6  H   UNL     1       6.218  -3.677 -20.665  0.00  0.00    +0.159 HD
ATOM      7  H   UNL     1       4.773  -4.607 -20.533  0.00  0.00    +0.159 HD
ATOM      8  H   UNL     1       5.125  -0.968 -18.689  0.00  0.00    +0.159 HD
ATOM      9  H   UNL     1       6.416  -1.620 -19.622  0.00  0.00    +0.159 HD
ENDROOT
BRANCH   1  10
ATOM     10  C   UNL     1       2.829  -2.000 -18.181  0.00  0.00    +0.151 C 
BRANCH  10  11
ATOM     11  C   UNL     1       1.546  -1.542 -18.819  0.00  0.00    -0.028 A 
ATOM     12  C   UNL     1       1.472  -0.294 -19.454  0.00  0.00    +0.005 A 
ATOM     13  C   UNL     1       0.403  -2.356 -18.798  0.00  0.00    +0.005 A 
ATOM     14  C   UNL     1       0.289   0.119 -20.073  0.00  0.00    +0.000 A 
ATOM     15  C   UNL     1      -0.776  -1.940 -19.417  0.00  0.00    +0.000 A 
ATOM     16  C   UNL     1      -0.832  -0.704 -20.056  0.00  0.00    +0.000 A 
ENDBRANCH  10  11
ENDBRANCH   1  10
TORSDOF 2
ENDMDL
MODEL 3
REMARK VINA RESULT:    -4.914     29.078     30.133
REMARK INTER + INTRA:          -5.604
REMARK INTER:                  -5.511
REMARK INTRA:                  -0.093
REMARK UNBOUND:                -0.116
REMARK  Name = 1550473
REMARK  2 active torsions:
REMARK  status: ('A' for Active; 'I' for Inactive)
REMARK    1  A    between atoms: N_1  and  C_4
REMARK    2  A    between atoms: C_4  and  C_5
REMARK                            x       y       z     vdW  Elec       q    Type
REMARK                         _______ _______ _______ _____ _____    ______ ____
ROOT
ATOM      1  N   UNL     1       2.790  -2.904 -17.169  0.00  0.00    -0.354 N 
ATOM      2  N   UNL     1       2.673  -4.314 -15.336  0.00  0.00    -0.372 N 
ATOM      3  N   UNL     1       3.687  -2.270 -15.099  0.00  0.00    -0.372 N 
ATOM      4  C   UNL     1       3.052  -3.151 -15.879  0.00  0.00    +0.166 C 
ATOM      5  H   UNL     1       2.332  -3.625 -17.714  0.00  0.00    +0.163 HD
ATOM      6  H   UNL     1       2.854  -4.528 -14.364  0.00  0.00    +0.159 HD
ATOM      7  H   UNL     1       2.175  -5.015 -15.871  0.00  0.00    +0.159 HD
ATOM      8  H   UNL     1       4.004  -1.376 -15.449  0.00  0.00    +0.159 HD
ATOM      9  H   UNL     1       3.888  -2.470 -14.127  0.00  0.00    +0.159 HD
ENDROOT
BRANCH   1  10
ATOM     10  C   UNL     1       3.112  -1.647 -17.842  0.00  0.00    +0.151 C 
BRANCH  10  11
ATOM     11  C   UNL     1       2.346  -1.571 -19.134  0.00  0.00    -0.028 A 
ATOM     12  C   UNL     1       2.897  -2.077 -20.320  0.00  0.00    +0.005 A 
ATOM     13  C   UNL     1       1.065  -1.000 -19.176  0.00  0.00    +0.005 A 
ATOM     14  C   UNL     1       2.173  -2.033 -21.514  0.00  0.00    +0.000 A 
ATOM     15  C   UNL     1       0.345  -0.957 -20.371  0.00  0.00    +0.000 A 
ATOM     16  C   UNL     1       0.899  -1.477 -21.538  0.00  0.00    +0.000 A 
ENDBRANCH  10  11
ENDBRANCH   1  10
TORSDOF 2
ENDMDL
MODEL 4
REMARK VINA RESULT:    -4.777     29.568     30.625
REMARK INTER + INTRA:          -5.451
REMARK INTER:                  -5.280
REMARK INTRA:                  -0.170
REMARK UNBOUND:                -0.116
REMARK  Name = 1550473
REMARK  2 active torsions:
REMARK  status: ('A' for Active; 'I' for Inactive)
REMARK    1  A    between atoms: N_1  and  C_4
REMARK    2  A    between atoms: C_4  and  C_5
REMARK                            x       y       z     vdW  Elec       q    Type
REMARK                         _______ _______ _______ _____ _____    ______ ____
ROOT
ATOM      1  N   UNL     1       1.981  -0.814 -19.100  0.00  0.00    -0.354 N 
ATOM      2  N   UNL     1       1.981   0.835 -20.727  0.00  0.00    -0.372 N 
ATOM      3  N   UNL     1       2.430  -1.330 -21.342  0.00  0.00    -0.372 N 
ATOM      4  C   UNL     1       2.132  -0.449 -20.381  0.00  0.00    +0.166 C 
ATOM      5  H   UNL     1       1.784  -0.093 -18.415  0.00  0.00    +0.163 HD
ATOM      6  H   UNL     1       2.086   1.139 -21.686  0.00  0.00    +0.159 HD
ATOM      7  H   UNL     1       1.739   1.545 -20.047  0.00  0.00    +0.159 HD
ATOM      8  H   UNL     1       2.563  -2.313 -21.145  0.00  0.00    +0.159 HD
ATOM      9  H   UNL     1       2.551  -1.043 -22.305  0.00  0.00    +0.159 HD
ENDROOT
BRANCH   1  10
ATOM     10  C   UNL     1       2.070  -2.194 -18.627  0.00  0.00    +0.151 C 
BRANCH  10  11
ATOM     11  C   UNL     1       3.376  -2.382 -17.905  0.00  0.00    -0.028 A 
ATOM     12  C   UNL     1       4.549  -2.668 -18.619  0.00  0.00    +0.005 A 
ATOM     13  C   UNL     1       3.448  -2.270 -16.508  0.00  0.00    +0.005 A 
ATOM     14  C   UNL     1       5.768  -2.813 -17.952  0.00  0.00    +0.000 A 
ATOM     15  C   UNL     1       4.667  -2.416 -15.846  0.00  0.00    +0.000 A 
ATOM     16  C   UNL     1       5.827  -2.685 -16.568  0.00  0.00    +0.000 A 
ENDBRANCH  10  11
ENDBRANCH   1  10
TORSDOF 2
ENDMDL
MODEL 5
REMARK VINA RESULT:    -4.688     29.555     30.480
REMARK INTER + INTRA:          -5.351
REMARK INTER:                  -5.192
REMARK INTRA:                  -0.159
REMARK UNBOUND:                -0.116
REMARK  Name = 1550473
REMARK  2 active torsions:
REMARK  status: ('A' for Active; 'I' for Inactive)
REMARK    1  A    between atoms: N_1  and  C_4
REMARK    2  A    between atoms: C_4  and  C_5
REMARK                            x       y       z     vdW  Elec       q    Type
REMARK                         _______ _______ _______ _____ _____    ______ ____
ROOT
ATOM      1  N   UNL     1       2.977   1.590 -16.904  0.00  0.00    -0.354 N 
ATOM      2  N   UNL     1       2.492   2.662 -14.910  0.00  0.00    -0.372 N 
ATOM      3  N   UNL     1       3.658   0.687 -14.852  0.00  0.00    -0.372 N 
ATOM      4  C   UNL     1       3.047   1.637 -15.567  0.00  0.00    +0.166 C 
ATOM      5  H   UNL     1       2.473   2.325 -17.386  0.00  0.00    +0.163 HD
ATOM      6  H   UNL     1       2.531   2.727 -13.901  0.00  0.00    +0.159 HD
ATOM      7  H   UNL     1       2.028   3.420 -15.397  0.00  0.00    +0.159 HD
ATOM      8  H   UNL     1       4.092  -0.116 -15.287  0.00  0.00    +0.159 HD
ATOM      9  H   UNL     1       3.698   0.728 -13.841  0.00  0.00    +0.159 HD
ENDROOT
BRANCH   1  10
ATOM     10  C   UNL     1       3.595   0.545 -17.719  0.00  0.00    +0.151 C 
BRANCH  10  11
ATOM     11  C   UNL     1       2.516  -0.321 -18.309  0.00  0.00    -0.028 A 
ATOM     12  C   UNL     1       1.479   0.249 -19.062  0.00  0.00    +0.005 A 
ATOM     13  C   UNL     1       2.528  -1.712 -18.123  0.00  0.00    +0.005 A 
ATOM     14  C   UNL     1       0.493  -0.558 -19.635  0.00  0.00    +0.000 A 
ATOM     15  C   UNL     1       1.541  -2.514 -18.696  0.00  0.00    +0.000 A 
ATOM     16  C   UNL     1       0.525  -1.937 -19.454  0.00  0.00    +0.000 A 
ENDBRANCH  10  11
ENDBRANCH   1  10
TORSDOF 2
ENDMDL
MODEL 6
REMARK VINA RESULT:    -4.491     25.930     27.403
REMARK INTER + INTRA:          -5.131
REMARK INTER:                  -5.000
REMARK INTRA:                  -0.131
REMARK UNBOUND:                -0.116
REMARK  Name = 1550473
REMARK  2 active torsions:
REMARK  status: ('A' for Active; 'I' for Inactive)
REMARK    1  A    between atoms: N_1  and  C_4
REMARK    2  A    between atoms: C_4  and  C_5
REMARK                            x       y       z     vdW  Elec       q    Type
REMARK                         _______ _______ _______ _____ _____    ______ ____
ROOT
ATOM      1  N   UNL     1      13.028   6.907   6.868  0.00  0.00    -0.354 N 
ATOM      2  N   UNL     1      12.927   6.275   4.642  0.00  0.00    -0.372 N 
ATOM      3  N   UNL     1      13.064   4.646   6.252  0.00  0.00    -0.372 N 
ATOM      4  C   UNL     1      13.007   5.944   5.936  0.00  0.00    +0.166 C 
ATOM      5  H   UNL     1      13.013   7.873   6.562  0.00  0.00    +0.163 HD
ATOM      6  H   UNL     1      12.905   5.571   3.917  0.00  0.00    +0.159 HD
ATOM      7  H   UNL     1      12.865   7.240   4.341  0.00  0.00    +0.159 HD
ATOM      8  H   UNL     1      13.131   4.330   7.210  0.00  0.00    +0.159 HD
ATOM      9  H   UNL     1      13.055   3.927   5.540  0.00  0.00    +0.159 HD
ENDROOT
BRANCH   1  10
ATOM     10  C   UNL     1      13.060   6.651   8.307  0.00  0.00    +0.151 C 
BRANCH  10  11
ATOM     11  C   UNL     1      12.167   7.642   9.001  0.00  0.00    -0.028 A 
ATOM     12  C   UNL     1      12.589   8.277  10.179  0.00  0.00    +0.005 A 
ATOM     13  C   UNL     1      10.901   7.955   8.484  0.00  0.00    +0.005 A 
ATOM     14  C   UNL     1      11.772   9.220  10.808  0.00  0.00    +0.000 A 
ATOM     15  C   UNL     1      10.088   8.896   9.116  0.00  0.00    +0.000 A 
ATOM     16  C   UNL     1      10.525   9.530  10.276  0.00  0.00    +0.000 A 
ENDBRANCH  10  11
ENDBRANCH   1  10
TORSDOF 2
ENDMDL
MODEL 7
REMARK VINA RESULT:    -4.371     15.325     16.975
REMARK INTER + INTRA:          -4.998
REMARK INTER:                  -4.870
REMARK INTRA:                  -0.128
REMARK UNBOUND:                -0.116
REMARK  Name = 1550473
REMARK  2 active torsions:
REMARK  status: ('A' for Active; 'I' for Inactive)
REMARK    1  A    between atoms: N_1  and  C_4
REMARK    2  A    between atoms: C_4  and  C_5
REMARK                            x       y       z     vdW  Elec       q    Type
REMARK                         _______ _______ _______ _____ _____    ______ ____
ROOT
ATOM      1  N   UNL     1       8.585  -4.410  13.760  0.00  0.00    -0.354 N 
ATOM      2  N   UNL     1       6.962  -4.750  15.377  0.00  0.00    -0.372 N 
ATOM      3  N   UNL     1       6.934  -6.051  13.487  0.00  0.00    -0.372 N 
ATOM      4  C   UNL     1       7.503  -5.070  14.195  0.00  0.00    +0.166 C 
ATOM      5  H   UNL     1       8.950  -3.656  14.330  0.00  0.00    +0.163 HD
ATOM      6  H   UNL     1       6.148  -5.233  15.733  0.00  0.00    +0.159 HD
ATOM      7  H   UNL     1       7.356  -4.027  15.966  0.00  0.00    +0.159 HD
ATOM      8  H   UNL     1       7.291  -6.337  12.585  0.00  0.00    +0.159 HD
ATOM      9  H   UNL     1       6.112  -6.538  13.821  0.00  0.00    +0.159 HD
ENDROOT
BRANCH   1  10
ATOM     10  C   UNL     1       9.283  -4.717  12.513  0.00  0.00    +0.151 C 
BRANCH  10  11
ATOM     11  C   UNL     1       9.425  -3.455  11.706  0.00  0.00    -0.028 A 
ATOM     12  C   UNL     1       8.549  -3.186  10.645  0.00  0.00    +0.005 A 
ATOM     13  C   UNL     1      10.430  -2.522  12.003  0.00  0.00    +0.005 A 
ATOM     14  C   UNL     1       8.662  -2.001   9.915  0.00  0.00    +0.000 A 
ATOM     15  C   UNL     1      10.540  -1.340  11.271  0.00  0.00    +0.000 A 
ATOM     16  C   UNL     1       9.654  -1.078  10.228  0.00  0.00    +0.000 A 
ENDBRANCH  10  11
ENDBRANCH   1  10
TORSDOF 2
ENDMDL
MODEL 8
REMARK VINA RESULT:    -4.347     25.720     26.632
REMARK INTER + INTRA:          -4.971
REMARK INTER:                  -4.831
REMARK INTRA:                  -0.141
REMARK UNBOUND:                -0.116
REMARK  Name = 1550473
REMARK  2 active torsions:
REMARK  status: ('A' for Active; 'I' for Inactive)
REMARK    1  A    between atoms: N_1  and  C_4
REMARK    2  A    between atoms: C_4  and  C_5
REMARK                            x       y       z     vdW  Elec       q    Type
REMARK                         _______ _______ _______ _____ _____    ______ ____
ROOT
ATOM      1  N   UNL     1      12.257   6.176  -1.528  0.00  0.00    -0.354 N 
ATOM      2  N   UNL     1      10.739   7.181  -0.096  0.00  0.00    -0.372 N 
ATOM      3  N   UNL     1      12.480   5.982   0.797  0.00  0.00    -0.372 N 
ATOM      4  C   UNL     1      11.837   6.439  -0.283  0.00  0.00    +0.166 C 
ATOM      5  H   UNL     1      11.708   6.526  -2.305  0.00  0.00    +0.163 HD
ATOM      6  H   UNL     1      10.400   7.398   0.832  0.00  0.00    +0.159 HD
ATOM      7  H   UNL     1      10.218   7.568  -0.873  0.00  0.00    +0.159 HD
ATOM      8  H   UNL     1      13.311   5.411   0.723  0.00  0.00    +0.159 HD
ATOM      9  H   UNL     1      12.150   6.179   1.733  0.00  0.00    +0.159 HD
ENDROOT
BRANCH   1  10
ATOM     10  C   UNL     1      13.470   5.423  -1.840  0.00  0.00    +0.151 C 
BRANCH  10  11
ATOM     11  C   UNL     1      13.129   4.321  -2.806  0.00  0.00    -0.028 A 
ATOM     12  C   UNL     1      14.145   3.601  -3.452  0.00  0.00    +0.005 A 
ATOM     13  C   UNL     1      11.792   3.989  -3.074  0.00  0.00    +0.005 A 
ATOM     14  C   UNL     1      13.829   2.558  -4.325  0.00  0.00    +0.000 A 
ATOM     15  C   UNL     1      11.482   2.947  -3.948  0.00  0.00    +0.000 A 
ATOM     16  C   UNL     1      12.500   2.230  -4.572  0.00  0.00    +0.000 A 
ENDBRANCH  10  11
ENDBRANCH   1  10
TORSDOF 2
ENDMDL
MODEL 9
REMARK VINA RESULT:    -4.308     34.469     36.262
REMARK INTER + INTRA:          -4.927
REMARK INTER:                  -4.785
REMARK INTRA:                  -0.141
REMARK UNBOUND:                -0.116
REMARK  Name = 1550473
REMARK  2 active torsions:
REMARK  status: ('A' for Active; 'I' for Inactive)
REMARK    1  A    between atoms: N_1  and  C_4
REMARK    2  A    between atoms: C_4  and  C_5
REMARK                            x       y       z     vdW  Elec       q    Type
REMARK                         _______ _______ _______ _____ _____    ______ ____
ROOT
ATOM      1  N   UNL     1      11.987  16.437   6.799  0.00  0.00    -0.354 N 
ATOM      2  N   UNL     1      10.803  14.806   5.657  0.00  0.00    -0.372 N 
ATOM      3  N   UNL     1      12.978  15.223   5.056  0.00  0.00    -0.372 N 
ATOM      4  C   UNL     1      11.933  15.499   5.843  0.00  0.00    +0.166 C 
ATOM      5  H   UNL     1      11.151  16.620   7.342  0.00  0.00    +0.163 HD
ATOM      6  H   UNL     1      10.733  14.090   4.947  0.00  0.00    +0.159 HD
ATOM      7  H   UNL     1       9.983  14.959   6.232  0.00  0.00    +0.159 HD
ATOM      8  H   UNL     1      13.858  15.714   5.142  0.00  0.00    +0.159 HD
ATOM      9  H   UNL     1      12.924  14.518   4.332  0.00  0.00    +0.159 HD
ENDROOT
BRANCH   1  10
ATOM     10  C   UNL     1      13.186  17.210   7.118  0.00  0.00    +0.151 C 
BRANCH  10  11
ATOM     11  C   UNL     1      13.377  17.226   8.610  0.00  0.00    -0.028 A 
ATOM     12  C   UNL     1      12.502  16.520   9.447  0.00  0.00    +0.005 A 
ATOM     13  C   UNL     1      14.435  17.941   9.191  0.00  0.00    +0.005 A 
ATOM     14  C   UNL     1      12.697  16.510  10.831  0.00  0.00    +0.000 A 
ATOM     15  C   UNL     1      14.626  17.930  10.573  0.00  0.00    +0.000 A 
ATOM     16  C   UNL     1      13.758  17.212  11.392  0.00  0.00    +0.000 A 
ENDBRANCH  10  11
ENDBRANCH   1  10
TORSDOF 2
ENDMDL
