MODEL 1
REMARK VINA RESULT:    -6.003      0.000      0.000
REMARK INTER + INTRA:          -6.778
REMARK INTER:                  -6.704
REMARK INTRA:                  -0.073
REMARK UNBOUND:                -0.073
REMARK  Name = 1550473
REMARK  2 active torsions:
REMARK  status: ('A' for Active; 'I' for Inactive)
REMARK    1  A    between atoms: N_1  and  C_4
REMARK    2  A    between atoms: C_4  and  C_5
REMARK                            x       y       z     vdW  Elec       q    Type
REMARK                         _______ _______ _______ _____ _____    ______ ____
ROOT
ATOM      1  N   UNL     1      -4.176   6.929   9.399  0.00  0.00    -0.354 N 
ATOM      2  N   UNL     1      -4.933   9.028   8.778  0.00  0.00    -0.372 N 
ATOM      3  N   UNL     1      -6.462   7.346   9.097  0.00  0.00    -0.372 N 
ATOM      4  C   UNL     1      -5.188   7.753   9.095  0.00  0.00    +0.166 C 
ATOM      5  H   UNL     1      -3.230   7.290   9.350  0.00  0.00    +0.163 HD
ATOM      6  H   UNL     1      -5.676   9.673   8.547  0.00  0.00    +0.159 HD
ATOM      7  H   UNL     1      -3.990   9.398   8.774  0.00  0.00    +0.159 HD
ATOM      8  H   UNL     1      -6.720   6.395   9.322  0.00  0.00    +0.159 HD
ATOM      9  H   UNL     1      -7.219   7.975   8.857  0.00  0.00    +0.159 HD
ENDROOT
BRANCH   1  10
ATOM     10  C   UNL     1      -4.350   5.537   9.810  0.00  0.00    +0.151 C 
BRANCH  10  11
ATOM     11  C   UNL     1      -4.086   5.425  11.287  0.00  0.00    -0.028 A 
ATOM     12  C   UNL     1      -4.732   6.279  12.192  0.00  0.00    +0.005 A 
ATOM     13  C   UNL     1      -3.196   4.462  11.787  0.00  0.00    +0.005 A 
ATOM     14  C   UNL     1      -4.510   6.155  13.566  0.00  0.00    +0.000 A 
ATOM     15  C   UNL     1      -2.977   4.342  13.159  0.00  0.00    +0.000 A 
ATOM     16  C   UNL     1      -3.636   5.187  14.048  0.00  0.00    +0.000 A 
ENDBRANCH  10  11
ENDBRANCH   1  10
TORSDOF 2
ENDMDL
MODEL 2
REMARK VINA RESULT:    -5.682     22.156     23.163
REMARK INTER + INTRA:          -6.420
REMARK INTER:                  -6.238
REMARK INTRA:                  -0.182
REMARK UNBOUND:                -0.073
REMARK  Name = 1550473
REMARK  2 active torsions:
REMARK  status: ('A' for Active; 'I' for Inactive)
REMARK    1  A    between atoms: N_1  and  C_4
REMARK    2  A    between atoms: C_4  and  C_5
REMARK                            x       y       z     vdW  Elec       q    Type
REMARK                         _______ _______ _______ _____ _____    ______ ____
ROOT
ATOM      1  N   UNL     1      -3.291 -11.348  -4.110  0.00  0.00    -0.354 N 
ATOM      2  N   UNL     1      -4.726 -10.301  -5.597  0.00  0.00    -0.372 N 
ATOM      3  N   UNL     1      -4.663  -9.578  -3.421  0.00  0.00    -0.372 N 
ATOM      4  C   UNL     1      -4.218 -10.414  -4.364  0.00  0.00    +0.166 C 
ATOM      5  H   UNL     1      -3.018 -11.971  -4.861  0.00  0.00    +0.163 HD
ATOM      6  H   UNL     1      -5.424  -9.604  -5.820  0.00  0.00    +0.159 HD
ATOM      7  H   UNL     1      -4.417 -10.896  -6.357  0.00  0.00    +0.159 HD
ATOM      8  H   UNL     1      -4.325  -9.615  -2.469  0.00  0.00    +0.159 HD
ATOM      9  H   UNL     1      -5.370  -8.881  -3.621  0.00  0.00    +0.159 HD
ENDROOT
BRANCH   1  10
ATOM     10  C   UNL     1      -2.636 -11.518  -2.815  0.00  0.00    +0.151 C 
BRANCH  10  11
ATOM     11  C   UNL     1      -3.252 -12.692  -2.104  0.00  0.00    -0.028 A 
ATOM     12  C   UNL     1      -4.109 -12.493  -1.011  0.00  0.00    +0.005 A 
ATOM     13  C   UNL     1      -2.987 -14.005  -2.521  0.00  0.00    +0.005 A 
ATOM     14  C   UNL     1      -4.705 -13.581  -0.369  0.00  0.00    +0.000 A 
ATOM     15  C   UNL     1      -3.584 -15.089  -1.877  0.00  0.00    +0.000 A 
ATOM     16  C   UNL     1      -4.444 -14.876  -0.803  0.00  0.00    +0.000 A 
ENDBRANCH  10  11
ENDBRANCH   1  10
TORSDOF 2
ENDMDL
MODEL 3
REMARK VINA RESULT:    -5.629      1.879      2.377
REMARK INTER + INTRA:          -6.361
REMARK INTER:                  -6.221
REMARK INTRA:                  -0.140
REMARK UNBOUND:                -0.073
REMARK  Name = 1550473
REMARK  2 active torsions:
REMARK  status: ('A' for Active; 'I' for Inactive)
REMARK    1  A    between atoms: N_1  and  C_4
REMARK    2  A    between atoms: C_4  and  C_5
REMARK                            x       y       z     vdW  Elec       q    Type
REMARK                         _______ _______ _______ _____ _____    ______ ____
ROOT
ATOM      1  N   UNL     1      -5.833   6.637  11.079  0.00  0.00    -0.354 N 
ATOM      2  N   UNL     1      -6.843   6.886   9.010  0.00  0.00    -0.372 N 
ATOM      3  N   UNL     1      -4.562   6.662   9.111  0.00  0.00    -0.372 N 
ATOM      4  C   UNL     1      -5.737   6.727   9.746  0.00  0.00    +0.166 C 
ATOM      5  H   UNL     1      -6.750   6.723  11.502  0.00  0.00    +0.163 HD
ATOM      6  H   UNL     1      -6.802   6.954   8.002  0.00  0.00    +0.159 HD
ATOM      7  H   UNL     1      -7.763   6.926   9.432  0.00  0.00    +0.159 HD
ATOM      8  H   UNL     1      -3.689   6.548   9.609  0.00  0.00    +0.159 HD
ATOM      9  H   UNL     1      -4.499   6.739   8.103  0.00  0.00    +0.159 HD
ENDROOT
BRANCH   1  10
ATOM     10  C   UNL     1      -4.695   6.408  11.968  0.00  0.00    +0.151 C 
BRANCH  10  11
ATOM     11  C   UNL     1      -4.927   5.143  12.748  0.00  0.00    -0.028 A 
ATOM     12  C   UNL     1      -6.119   4.421  12.594  0.00  0.00    +0.005 A 
ATOM     13  C   UNL     1      -3.956   4.660  13.638  0.00  0.00    +0.005 A 
ATOM     14  C   UNL     1      -6.322   3.230  13.296  0.00  0.00    +0.000 A 
ATOM     15  C   UNL     1      -4.163   3.471  14.337  0.00  0.00    +0.000 A 
ATOM     16  C   UNL     1      -5.345   2.755  14.164  0.00  0.00    +0.000 A 
ENDBRANCH  10  11
ENDBRANCH   1  10
TORSDOF 2
ENDMDL
MODEL 4
REMARK VINA RESULT:    -5.300     24.184     25.169
REMARK INTER + INTRA:          -5.993
REMARK INTER:                  -5.874
REMARK INTRA:                  -0.119
REMARK UNBOUND:                -0.073
REMARK  Name = 1550473
REMARK  2 active torsions:
REMARK  status: ('A' for Active; 'I' for Inactive)
REMARK    1  A    between atoms: N_1  and  C_4
REMARK    2  A    between atoms: C_4  and  C_5
REMARK                            x       y       z     vdW  Elec       q    Type
REMARK                         _______ _______ _______ _____ _____    ______ ____
ROOT
ATOM      1  N   UNL     1      -4.829 -16.812   2.550  0.00  0.00    -0.354 N 
ATOM      2  N   UNL     1      -4.340 -18.231   4.314  0.00  0.00    -0.372 N 
ATOM      3  N   UNL     1      -6.502 -17.515   4.033  0.00  0.00    -0.372 N 
ATOM      4  C   UNL     1      -5.229 -17.509   3.621  0.00  0.00    +0.166 C 
ATOM      5  H   UNL     1      -3.845 -16.825   2.307  0.00  0.00    +0.163 HD
ATOM      6  H   UNL     1      -4.613 -18.770   5.124  0.00  0.00    +0.159 HD
ATOM      7  H   UNL     1      -3.365 -18.278   4.042  0.00  0.00    +0.159 HD
ATOM      8  H   UNL     1      -7.221 -16.986   3.557  0.00  0.00    +0.159 HD
ATOM      9  H   UNL     1      -6.792 -18.039   4.849  0.00  0.00    +0.159 HD
ENDROOT
BRANCH   1  10
ATOM     10  C   UNL     1      -5.728 -16.037   1.695  0.00  0.00    +0.151 C 
BRANCH  10  11
ATOM     11  C   UNL     1      -5.046 -15.768   0.382  0.00  0.00    -0.028 A 
ATOM     12  C   UNL     1      -4.220 -16.738  -0.204  0.00  0.00    +0.005 A 
ATOM     13  C   UNL     1      -5.227 -14.546  -0.284  0.00  0.00    +0.005 A 
ATOM     14  C   UNL     1      -3.611 -16.499  -1.438  0.00  0.00    +0.000 A 
ATOM     15  C   UNL     1      -4.617 -14.311  -1.516  0.00  0.00    +0.000 A 
ATOM     16  C   UNL     1      -3.810 -15.289  -2.094  0.00  0.00    +0.000 A 
ENDBRANCH  10  11
ENDBRANCH   1  10
TORSDOF 2
ENDMDL
MODEL 5
REMARK VINA RESULT:    -5.300     34.347     35.356
REMARK INTER + INTRA:          -5.993
REMARK INTER:                  -5.875
REMARK INTRA:                  -0.118
REMARK UNBOUND:                -0.073
REMARK  Name = 1550473
REMARK  2 active torsions:
REMARK  status: ('A' for Active; 'I' for Inactive)
REMARK    1  A    between atoms: N_1  and  C_4
REMARK    2  A    between atoms: C_4  and  C_5
REMARK                            x       y       z     vdW  Elec       q    Type
REMARK                         _______ _______ _______ _____ _____    ______ ____
ROOT
ATOM      1  N   UNL     1     -21.073  -8.612 -15.746  0.00  0.00    -0.354 N 
ATOM      2  N   UNL     1     -20.570  -6.362 -15.523  0.00  0.00    -0.372 N 
ATOM      3  N   UNL     1     -22.317  -6.979 -16.877  0.00  0.00    -0.372 N 
ATOM      4  C   UNL     1     -21.326  -7.332 -16.052  0.00  0.00    +0.166 C 
ATOM      5  H   UNL     1     -20.288  -8.815 -15.138  0.00  0.00    +0.163 HD
ATOM      6  H   UNL     1     -20.739  -5.387 -15.732  0.00  0.00    +0.159 HD
ATOM      7  H   UNL     1     -19.815  -6.565 -14.879  0.00  0.00    +0.159 HD
ATOM      8  H   UNL     1     -22.919  -7.664 -17.314  0.00  0.00    +0.159 HD
ATOM      9  H   UNL     1     -22.494  -6.009 -17.108  0.00  0.00    +0.159 HD
ENDROOT
BRANCH   1  10
ATOM     10  C   UNL     1     -21.869  -9.740 -16.226  0.00  0.00    +0.151 C 
BRANCH  10  11
ATOM     11  C   UNL     1     -21.969 -10.770 -15.135  0.00  0.00    -0.028 A 
ATOM     12  C   UNL     1     -20.861 -11.057 -14.324  0.00  0.00    +0.005 A 
ATOM     13  C   UNL     1     -23.169 -11.459 -14.905  0.00  0.00    +0.005 A 
ATOM     14  C   UNL     1     -20.962 -11.992 -13.291  0.00  0.00    +0.000 A 
ATOM     15  C   UNL     1     -23.265 -12.393 -13.873  0.00  0.00    +0.000 A 
ATOM     16  C   UNL     1     -22.162 -12.658 -13.065  0.00  0.00    +0.000 A 
ENDBRANCH  10  11
ENDBRANCH   1  10
TORSDOF 2
ENDMDL
MODEL 6
REMARK VINA RESULT:    -5.286     22.800     23.808
REMARK INTER + INTRA:          -5.978
REMARK INTER:                  -5.864
REMARK INTRA:                  -0.114
REMARK UNBOUND:                -0.073
REMARK  Name = 1550473
REMARK  2 active torsions:
REMARK  status: ('A' for Active; 'I' for Inactive)
REMARK    1  A    between atoms: N_1  and  C_4
REMARK    2  A    between atoms: C_4  and  C_5
REMARK                            x       y       z     vdW  Elec       q    Type
REMARK                         _______ _______ _______ _____ _____    ______ ____
ROOT
ATOM      1  N   UNL     1      -4.006 -12.055  -2.356  0.00  0.00    -0.354 N 
ATOM      2  N   UNL     1      -3.999  -9.738  -2.359  0.00  0.00    -0.372 N 
ATOM      3  N   UNL     1      -3.621 -10.851  -4.330  0.00  0.00    -0.372 N 
ATOM      4  C   UNL     1      -3.875 -10.897  -3.018  0.00  0.00    +0.166 C 
ATOM      5  H   UNL     1      -4.168 -12.022  -1.356  0.00  0.00    +0.163 HD
ATOM      6  H   UNL     1      -3.909  -8.849  -2.832  0.00  0.00    +0.159 HD
ATOM      7  H   UNL     1      -4.207  -9.708  -1.368  0.00  0.00    +0.159 HD
ATOM      8  H   UNL     1      -3.510 -11.690  -4.883  0.00  0.00    +0.159 HD
ATOM      9  H   UNL     1      -3.515  -9.971  -4.819  0.00  0.00    +0.159 HD
ENDROOT
BRANCH   1  10
ATOM     10  C   UNL     1      -3.942 -13.370  -2.989  0.00  0.00    +0.151 C 
BRANCH  10  11
ATOM     11  C   UNL     1      -4.223 -14.427  -1.957  0.00  0.00    -0.028 A 
ATOM     12  C   UNL     1      -3.536 -15.649  -1.984  0.00  0.00    +0.005 A 
ATOM     13  C   UNL     1      -5.171 -14.209  -0.945  0.00  0.00    +0.005 A 
ATOM     14  C   UNL     1      -3.775 -16.619  -1.007  0.00  0.00    +0.000 A 
ATOM     15  C   UNL     1      -5.408 -15.181   0.027  0.00  0.00    +0.000 A 
ATOM     16  C   UNL     1      -4.707 -16.384  -0.002  0.00  0.00    +0.000 A 
ENDBRANCH  10  11
ENDBRANCH   1  10
TORSDOF 2
ENDMDL
MODEL 7
REMARK VINA RESULT:    -5.246     23.005     23.905
REMARK INTER + INTRA:          -5.932
REMARK INTER:                  -5.818
REMARK INTRA:                  -0.115
REMARK UNBOUND:                -0.073
REMARK  Name = 1550473
REMARK  2 active torsions:
REMARK  status: ('A' for Active; 'I' for Inactive)
REMARK    1  A    between atoms: N_1  and  C_4
REMARK    2  A    between atoms: C_4  and  C_5
REMARK                            x       y       z     vdW  Elec       q    Type
REMARK                         _______ _______ _______ _____ _____    ______ ____
ROOT
ATOM      1  N   UNL     1      -5.600 -14.478   0.582  0.00  0.00    -0.354 N 
ATOM      2  N   UNL     1      -5.335 -12.318  -0.211  0.00  0.00    -0.372 N 
ATOM      3  N   UNL     1      -7.429 -13.023   0.407  0.00  0.00    -0.372 N 
ATOM      4  C   UNL     1      -6.126 -13.287   0.265  0.00  0.00    +0.166 C 
ATOM      5  H   UNL     1      -4.610 -14.624   0.422  0.00  0.00    +0.163 HD
ATOM      6  H   UNL     1      -5.703 -11.408  -0.456  0.00  0.00    +0.159 HD
ATOM      7  H   UNL     1      -4.338 -12.452  -0.326  0.00  0.00    +0.159 HD
ATOM      8  H   UNL     1      -8.080 -13.714   0.756  0.00  0.00    +0.159 HD
ATOM      9  H   UNL     1      -7.818 -12.122   0.157  0.00  0.00    +0.159 HD
ENDROOT
BRANCH   1  10
ATOM     10  C   UNL     1      -6.365 -15.582   1.158  0.00  0.00    +0.151 C 
BRANCH  10  11
ATOM     11  C   UNL     1      -5.440 -16.454   1.961  0.00  0.00    -0.028 A 
ATOM     12  C   UNL     1      -5.887 -17.072   3.138  0.00  0.00    +0.005 A 
ATOM     13  C   UNL     1      -4.117 -16.671   1.547  0.00  0.00    +0.005 A 
ATOM     14  C   UNL     1      -5.037 -17.906   3.868  0.00  0.00    +0.000 A 
ATOM     15  C   UNL     1      -3.271 -17.505   2.279  0.00  0.00    +0.000 A 
ATOM     16  C   UNL     1      -3.732 -18.124   3.438  0.00  0.00    +0.000 A 
ENDBRANCH  10  11
ENDBRANCH   1  10
TORSDOF 2
ENDMDL
MODEL 8
REMARK VINA RESULT:    -5.198     24.909     26.236
REMARK INTER + INTRA:          -5.879
REMARK INTER:                  -5.756
REMARK INTRA:                  -0.123
REMARK UNBOUND:                -0.073
REMARK  Name = 1550473
REMARK  2 active torsions:
REMARK  status: ('A' for Active; 'I' for Inactive)
REMARK    1  A    between atoms: N_1  and  C_4
REMARK    2  A    between atoms: C_4  and  C_5
REMARK                            x       y       z     vdW  Elec       q    Type
REMARK                         _______ _______ _______ _____ _____    ______ ____
ROOT
ATOM      1  N   UNL     1       0.855 -10.916  -5.650  0.00  0.00    -0.354 N 
ATOM      2  N   UNL     1       0.207 -10.525  -3.461  0.00  0.00    -0.372 N 
ATOM      3  N   UNL     1      -1.002 -12.008  -4.727  0.00  0.00    -0.372 N 
ATOM      4  C   UNL     1       0.022 -11.154  -4.628  0.00  0.00    +0.166 C 
ATOM      5  H   UNL     1       1.593 -10.235  -5.520  0.00  0.00    +0.163 HD
ATOM      6  H   UNL     1      -0.403 -10.687  -2.671  0.00  0.00    +0.159 HD
ATOM      7  H   UNL     1       0.974  -9.879  -3.320  0.00  0.00    +0.159 HD
ATOM      8  H   UNL     1      -1.200 -12.510  -5.582  0.00  0.00    +0.159 HD
ATOM      9  H   UNL     1      -1.631 -12.175  -3.951  0.00  0.00    +0.159 HD
ENDROOT
BRANCH   1  10
ATOM     10  C   UNL     1       0.772 -11.589  -6.945  0.00  0.00    +0.151 C 
BRANCH  10  11
ATOM     11  C   UNL     1       2.150 -11.675  -7.542  0.00  0.00    -0.028 A 
ATOM     12  C   UNL     1       2.361 -11.364  -8.893  0.00  0.00    +0.005 A 
ATOM     13  C   UNL     1       3.249 -12.061  -6.761  0.00  0.00    +0.005 A 
ATOM     14  C   UNL     1       3.645 -11.414  -9.441  0.00  0.00    +0.000 A 
ATOM     15  C   UNL     1       4.530 -12.111  -7.312  0.00  0.00    +0.000 A 
ATOM     16  C   UNL     1       4.727 -11.785  -8.651  0.00  0.00    +0.000 A 
ENDBRANCH  10  11
ENDBRANCH   1  10
TORSDOF 2
ENDMDL
MODEL 9
REMARK VINA RESULT:    -5.183     23.278     24.138
REMARK INTER + INTRA:          -5.862
REMARK INTER:                  -5.746
REMARK INTRA:                  -0.116
REMARK UNBOUND:                -0.073
REMARK  Name = 1550473
REMARK  2 active torsions:
REMARK  status: ('A' for Active; 'I' for Inactive)
REMARK    1  A    between atoms: N_1  and  C_4
REMARK    2  A    between atoms: C_4  and  C_5
REMARK                            x       y       z     vdW  Elec       q    Type
REMARK                         _______ _______ _______ _____ _____    ______ ____
ROOT
ATOM      1  N   UNL     1      17.878   2.278   2.419  0.00  0.00    -0.354 N 
ATOM      2  N   UNL     1      19.100   3.258   4.125  0.00  0.00    -0.372 N 
ATOM      3  N   UNL     1      18.709   4.459   2.210  0.00  0.00    -0.372 N 
ATOM      4  C   UNL     1      18.554   3.327   2.905  0.00  0.00    +0.166 C 
ATOM      5  H   UNL     1      17.822   1.438   2.983  0.00  0.00    +0.163 HD
ATOM      6  H   UNL     1      19.613   4.035   4.519  0.00  0.00    +0.159 HD
ATOM      7  H   UNL     1      19.004   2.433   4.705  0.00  0.00    +0.159 HD
ATOM      8  H   UNL     1      18.327   4.573   1.280  0.00  0.00    +0.159 HD
ATOM      9  H   UNL     1      19.229   5.243   2.582  0.00  0.00    +0.159 HD
ENDROOT
BRANCH   1  10
ATOM     10  C   UNL     1      17.200   2.271   1.124  0.00  0.00    +0.151 C 
BRANCH  10  11
ATOM     11  C   UNL     1      16.464   0.969   0.962  0.00  0.00    -0.028 A 
ATOM     12  C   UNL     1      15.893   0.331   2.073  0.00  0.00    +0.005 A 
ATOM     13  C   UNL     1      16.328   0.372  -0.301  0.00  0.00    +0.005 A 
ATOM     14  C   UNL     1      15.183  -0.862   1.919  0.00  0.00    +0.000 A 
ATOM     15  C   UNL     1      15.620  -0.820  -0.450  0.00  0.00    +0.000 A 
ATOM     16  C   UNL     1      15.045  -1.435   0.659  0.00  0.00    +0.000 A 
ENDBRANCH  10  11
ENDBRANCH   1  10
TORSDOF 2
ENDMDL
