MODEL 1
REMARK VINA RESULT:    -6.371      0.000      0.000
REMARK INTER + INTRA:          -7.215
REMARK INTER:                  -7.116
REMARK INTRA:                  -0.099
REMARK UNBOUND:                -0.099
REMARK  Name = 1550473
REMARK  2 active torsions:
REMARK  status: ('A' for Active; 'I' for Inactive)
REMARK    1  A    between atoms: N_1  and  C_4
REMARK    2  A    between atoms: C_4  and  C_5
REMARK                            x       y       z     vdW  Elec       q    Type
REMARK                         _______ _______ _______ _____ _____    ______ ____
ROOT
ATOM      1  N   UNL     1      -3.210  10.018  -7.226  0.00  0.00    -0.354 N 
ATOM      2  N   UNL     1      -3.596   8.779  -9.144  0.00  0.00    -0.372 N 
ATOM      3  N   UNL     1      -1.468   8.868  -8.291  0.00  0.00    -0.372 N 
ATOM      4  C   UNL     1      -2.752   9.230  -8.207  0.00  0.00    +0.166 C 
ATOM      5  H   UNL     1      -4.189  10.281  -7.236  0.00  0.00    +0.163 HD
ATOM      6  H   UNL     1      -3.280   8.180  -9.895  0.00  0.00    +0.159 HD
ATOM      7  H   UNL     1      -4.582   9.006  -9.126  0.00  0.00    +0.159 HD
ATOM      8  H   UNL     1      -0.779   9.179  -7.618  0.00  0.00    +0.159 HD
ATOM      9  H   UNL     1      -1.130   8.279  -9.041  0.00  0.00    +0.159 HD
ENDROOT
BRANCH   1  10
ATOM     10  C   UNL     1      -2.385  10.519  -6.127  0.00  0.00    +0.151 C 
BRANCH  10  11
ATOM     11  C   UNL     1      -3.273  10.862  -4.964  0.00  0.00    -0.028 A 
ATOM     12  C   UNL     1      -3.112  10.216  -3.730  0.00  0.00    +0.005 A 
ATOM     13  C   UNL     1      -4.274  11.839  -5.087  0.00  0.00    +0.005 A 
ATOM     14  C   UNL     1      -3.917  10.556  -2.640  0.00  0.00    +0.000 A 
ATOM     15  C   UNL     1      -5.076  12.175  -3.996  0.00  0.00    +0.000 A 
ATOM     16  C   UNL     1      -4.896  11.535  -2.773  0.00  0.00    +0.000 A 
ENDBRANCH  10  11
ENDBRANCH   1  10
TORSDOF 2
ENDMDL
MODEL 2
REMARK VINA RESULT:    -6.180      2.757      3.958
REMARK INTER + INTRA:          -7.002
REMARK INTER:                  -6.845
REMARK INTRA:                  -0.157
REMARK UNBOUND:                -0.099
REMARK  Name = 1550473
REMARK  2 active torsions:
REMARK  status: ('A' for Active; 'I' for Inactive)
REMARK    1  A    between atoms: N_1  and  C_4
REMARK    2  A    between atoms: C_4  and  C_5
REMARK                            x       y       z     vdW  Elec       q    Type
REMARK                         _______ _______ _______ _____ _____    ______ ____
ROOT
ATOM      1  N   UNL     1      -2.556   7.042  -9.417  0.00  0.00    -0.354 N 
ATOM      2  N   UNL     1      -4.249   5.496  -9.750  0.00  0.00    -0.372 N 
ATOM      3  N   UNL     1      -4.580   7.666 -10.420  0.00  0.00    -0.372 N 
ATOM      4  C   UNL     1      -3.785   6.747  -9.861  0.00  0.00    +0.166 C 
ATOM      5  H   UNL     1      -2.015   6.307  -8.975  0.00  0.00    +0.163 HD
ATOM      6  H   UNL     1      -5.171   5.243 -10.079  0.00  0.00    +0.159 HD
ATOM      7  H   UNL     1      -3.688   4.754  -9.350  0.00  0.00    +0.159 HD
ATOM      8  H   UNL     1      -4.292   8.629 -10.528  0.00  0.00    +0.159 HD
ATOM      9  H   UNL     1      -5.511   7.434 -10.745  0.00  0.00    +0.159 HD
ENDROOT
BRANCH   1  10
ATOM     10  C   UNL     1      -1.937   8.360  -9.539  0.00  0.00    +0.151 C 
BRANCH  10  11
ATOM     11  C   UNL     1      -1.940   9.031  -8.193  0.00  0.00    -0.028 A 
ATOM     12  C   UNL     1      -0.771   9.082  -7.420  0.00  0.00    +0.005 A 
ATOM     13  C   UNL     1      -3.108   9.623  -7.688  0.00  0.00    +0.005 A 
ATOM     14  C   UNL     1      -0.766   9.732  -6.183  0.00  0.00    +0.000 A 
ATOM     15  C   UNL     1      -3.099  10.270  -6.452  0.00  0.00    +0.000 A 
ATOM     16  C   UNL     1      -1.927  10.326  -5.701  0.00  0.00    +0.000 A 
ENDBRANCH  10  11
ENDBRANCH   1  10
TORSDOF 2
ENDMDL
MODEL 3
REMARK VINA RESULT:    -5.365      2.831      4.256
REMARK INTER + INTRA:          -6.092
REMARK INTER:                  -5.961
REMARK INTRA:                  -0.131
REMARK UNBOUND:                -0.099
REMARK  Name = 1550473
REMARK  2 active torsions:
REMARK  status: ('A' for Active; 'I' for Inactive)
REMARK    1  A    between atoms: N_1  and  C_4
REMARK    2  A    between atoms: C_4  and  C_5
REMARK                            x       y       z     vdW  Elec       q    Type
REMARK                         _______ _______ _______ _____ _____    ______ ____
ROOT
ATOM      1  N   UNL     1      -3.140   7.609  -9.943  0.00  0.00    -0.354 N 
ATOM      2  N   UNL     1      -4.621   7.138 -11.661  0.00  0.00    -0.372 N 
ATOM      3  N   UNL     1      -2.373   7.204 -12.120  0.00  0.00    -0.372 N 
ATOM      4  C   UNL     1      -3.366   7.321 -11.232  0.00  0.00    +0.166 C 
ATOM      5  H   UNL     1      -3.938   7.714  -9.326  0.00  0.00    +0.163 HD
ATOM      6  H   UNL     1      -4.822   6.916 -12.627  0.00  0.00    +0.159 HD
ATOM      7  H   UNL     1      -5.413   7.198 -11.033  0.00  0.00    +0.159 HD
ATOM      8  H   UNL     1      -1.405   7.335 -11.861  0.00  0.00    +0.159 HD
ATOM      9  H   UNL     1      -2.555   6.994 -13.094  0.00  0.00    +0.159 HD
ENDROOT
BRANCH   1  10
ATOM     10  C   UNL     1      -1.808   7.773  -9.363  0.00  0.00    +0.151 C 
BRANCH  10  11
ATOM     11  C   UNL     1      -1.892   8.726  -8.202  0.00  0.00    -0.028 A 
ATOM     12  C   UNL     1      -3.122   9.288  -7.830  0.00  0.00    +0.005 A 
ATOM     13  C   UNL     1      -0.746   9.066  -7.468  0.00  0.00    +0.005 A 
ATOM     14  C   UNL     1      -3.205  10.149  -6.733  0.00  0.00    +0.000 A 
ATOM     15  C   UNL     1      -0.833   9.927  -6.374  0.00  0.00    +0.000 A 
ATOM     16  C   UNL     1      -2.063  10.467  -6.005  0.00  0.00    +0.000 A 
ENDBRANCH  10  11
ENDBRANCH   1  10
TORSDOF 2
ENDMDL
MODEL 4
REMARK VINA RESULT:    -5.075     17.598     18.814
REMARK INTER + INTRA:          -5.767
REMARK INTER:                  -5.655
REMARK INTRA:                  -0.112
REMARK UNBOUND:                -0.099
REMARK  Name = 1550473
REMARK  2 active torsions:
REMARK  status: ('A' for Active; 'I' for Inactive)
REMARK    1  A    between atoms: N_1  and  C_4
REMARK    2  A    between atoms: C_4  and  C_5
REMARK                            x       y       z     vdW  Elec       q    Type
REMARK                         _______ _______ _______ _____ _____    ______ ____
ROOT
ATOM      1  N   UNL     1     -10.487  -1.416 -17.138  0.00  0.00    -0.354 N 
ATOM      2  N   UNL     1      -8.602  -0.077 -17.265  0.00  0.00    -0.372 N 
ATOM      3  N   UNL     1      -9.405  -1.044 -19.184  0.00  0.00    -0.372 N 
ATOM      4  C   UNL     1      -9.511  -0.855 -17.864  0.00  0.00    +0.166 C 
ATOM      5  H   UNL     1     -10.494  -1.258 -16.137  0.00  0.00    +0.163 HD
ATOM      6  H   UNL     1      -7.855   0.362 -17.787  0.00  0.00    +0.159 HD
ATOM      7  H   UNL     1      -8.638   0.116 -16.271  0.00  0.00    +0.159 HD
ATOM      8  H   UNL     1     -10.056  -1.626 -19.695  0.00  0.00    +0.159 HD
ATOM      9  H   UNL     1      -8.659  -0.623 -19.722  0.00  0.00    +0.159 HD
ENDROOT
BRANCH   1  10
ATOM     10  C   UNL     1     -11.557  -2.237 -17.703  0.00  0.00    +0.151 C 
BRANCH  10  11
ATOM     11  C   UNL     1     -12.730  -2.230 -16.762  0.00  0.00    -0.028 A 
ATOM     12  C   UNL     1     -14.042  -2.214 -17.258  0.00  0.00    +0.005 A 
ATOM     13  C   UNL     1     -12.536  -2.245 -15.372  0.00  0.00    +0.005 A 
ATOM     14  C   UNL     1     -15.131  -2.238 -16.385  0.00  0.00    +0.000 A 
ATOM     15  C   UNL     1     -13.627  -2.269 -14.503  0.00  0.00    +0.000 A 
ATOM     16  C   UNL     1     -14.924  -2.268 -15.010  0.00  0.00    +0.000 A 
ENDBRANCH  10  11
ENDBRANCH   1  10
TORSDOF 2
ENDMDL
MODEL 5
REMARK VINA RESULT:    -5.045     40.612     41.777
REMARK INTER + INTRA:          -5.734
REMARK INTER:                  -5.603
REMARK INTRA:                  -0.131
REMARK UNBOUND:                -0.099
REMARK  Name = 1550473
REMARK  2 active torsions:
REMARK  status: ('A' for Active; 'I' for Inactive)
REMARK    1  A    between atoms: N_1  and  C_4
REMARK    2  A    between atoms: C_4  and  C_5
REMARK                            x       y       z     vdW  Elec       q    Type
REMARK                         _______ _______ _______ _____ _____    ______ ____
ROOT
ATOM      1  N   UNL     1      35.829  18.957 -17.021  0.00  0.00    -0.354 N 
ATOM      2  N   UNL     1      36.996  18.770 -15.029  0.00  0.00    -0.372 N 
ATOM      3  N   UNL     1      37.900  20.014 -16.732  0.00  0.00    -0.372 N 
ATOM      4  C   UNL     1      36.903  19.249 -16.275  0.00  0.00    +0.166 C 
ATOM      5  H   UNL     1      35.121  18.347 -16.628  0.00  0.00    +0.163 HD
ATOM      6  H   UNL     1      37.792  18.977 -14.441  0.00  0.00    +0.159 HD
ATOM      7  H   UNL     1      36.265  18.198 -14.622  0.00  0.00    +0.159 HD
ATOM      8  H   UNL     1      37.893  20.402 -17.665  0.00  0.00    +0.159 HD
ATOM      9  H   UNL     1      38.711  20.223 -16.163  0.00  0.00    +0.159 HD
ENDROOT
BRANCH   1  10
ATOM     10  C   UNL     1      35.605  19.473 -18.370  0.00  0.00    +0.151 C 
BRANCH  10  11
ATOM     11  C   UNL     1      34.808  18.467 -19.155  0.00  0.00    -0.028 A 
ATOM     12  C   UNL     1      34.492  18.703 -20.501  0.00  0.00    +0.005 A 
ATOM     13  C   UNL     1      34.371  17.274 -18.559  0.00  0.00    +0.005 A 
ATOM     14  C   UNL     1      33.777  17.756 -21.238  0.00  0.00    +0.000 A 
ATOM     15  C   UNL     1      33.656  16.332 -19.299  0.00  0.00    +0.000 A 
ATOM     16  C   UNL     1      33.362  16.572 -20.639  0.00  0.00    +0.000 A 
ENDBRANCH  10  11
ENDBRANCH   1  10
TORSDOF 2
ENDMDL
MODEL 6
REMARK VINA RESULT:    -4.903     40.324     41.321
REMARK INTER + INTRA:          -5.575
REMARK INTER:                  -5.449
REMARK INTRA:                  -0.126
REMARK UNBOUND:                -0.099
REMARK  Name = 1550473
REMARK  2 active torsions:
REMARK  status: ('A' for Active; 'I' for Inactive)
REMARK    1  A    between atoms: N_1  and  C_4
REMARK    2  A    between atoms: C_4  and  C_5
REMARK                            x       y       z     vdW  Elec       q    Type
REMARK                         _______ _______ _______ _____ _____    ______ ____
ROOT
ATOM      1  N   UNL     1      35.385  18.463 -17.740  0.00  0.00    -0.354 N 
ATOM      2  N   UNL     1      37.345  19.414 -16.954  0.00  0.00    -0.372 N 
ATOM      3  N   UNL     1      35.516  20.759 -17.289  0.00  0.00    -0.372 N 
ATOM      4  C   UNL     1      36.067  19.541 -17.333  0.00  0.00    +0.166 C 
ATOM      5  H   UNL     1      35.868  17.573 -17.779  0.00  0.00    +0.163 HD
ATOM      6  H   UNL     1      37.884  20.209 -16.639  0.00  0.00    +0.159 HD
ATOM      7  H   UNL     1      37.812  18.516 -16.950  0.00  0.00    +0.159 HD
ATOM      8  H   UNL     1      34.558  20.923 -17.568  0.00  0.00    +0.159 HD
ATOM      9  H   UNL     1      36.044  21.569 -16.988  0.00  0.00    +0.159 HD
ENDROOT
BRANCH   1  10
ATOM     10  C   UNL     1      33.974  18.485 -18.122  0.00  0.00    +0.151 C 
BRANCH  10  11
ATOM     11  C   UNL     1      33.802  17.725 -19.408  0.00  0.00    -0.028 A 
ATOM     12  C   UNL     1      33.329  16.405 -19.398  0.00  0.00    +0.005 A 
ATOM     13  C   UNL     1      34.104  18.322 -20.642  0.00  0.00    +0.005 A 
ATOM     14  C   UNL     1      33.140  15.709 -20.594  0.00  0.00    +0.000 A 
ATOM     15  C   UNL     1      33.916  17.624 -21.834  0.00  0.00    +0.000 A 
ATOM     16  C   UNL     1      33.431  16.318 -21.810  0.00  0.00    +0.000 A 
ENDBRANCH  10  11
ENDBRANCH   1  10
TORSDOF 2
ENDMDL
MODEL 7
REMARK VINA RESULT:    -4.876     18.673     19.601
REMARK INTER + INTRA:          -5.545
REMARK INTER:                  -5.424
REMARK INTRA:                  -0.121
REMARK UNBOUND:                -0.099
REMARK  Name = 1550473
REMARK  2 active torsions:
REMARK  status: ('A' for Active; 'I' for Inactive)
REMARK    1  A    between atoms: N_1  and  C_4
REMARK    2  A    between atoms: C_4  and  C_5
REMARK                            x       y       z     vdW  Elec       q    Type
REMARK                         _______ _______ _______ _____ _____    ______ ____
ROOT
ATOM      1  N   UNL     1     -11.216  -2.653 -18.250  0.00  0.00    -0.354 N 
ATOM      2  N   UNL     1      -9.087  -3.078 -19.057  0.00  0.00    -0.372 N 
ATOM      3  N   UNL     1     -10.726  -2.444 -20.532  0.00  0.00    -0.372 N 
ATOM      4  C   UNL     1     -10.358  -2.722 -19.277  0.00  0.00    +0.166 C 
ATOM      5  H   UNL     1     -10.882  -2.905 -17.327  0.00  0.00    +0.163 HD
ATOM      6  H   UNL     1      -8.416  -3.136 -19.811  0.00  0.00    +0.159 HD
ATOM      7  H   UNL     1      -8.745  -3.285 -18.126  0.00  0.00    +0.159 HD
ATOM      8  H   UNL     1     -11.672  -2.175 -20.766  0.00  0.00    +0.159 HD
ATOM      9  H   UNL     1     -10.072  -2.507 -21.302  0.00  0.00    +0.159 HD
ENDROOT
BRANCH   1  10
ATOM     10  C   UNL     1     -12.608  -2.224 -18.374  0.00  0.00    +0.151 C 
BRANCH  10  11
ATOM     11  C   UNL     1     -13.253  -2.248 -17.016  0.00  0.00    -0.028 A 
ATOM     12  C   UNL     1     -12.466  -2.286 -15.855  0.00  0.00    +0.005 A 
ATOM     13  C   UNL     1     -14.649  -2.228 -16.883  0.00  0.00    +0.005 A 
ATOM     14  C   UNL     1     -13.064  -2.278 -14.593  0.00  0.00    +0.000 A 
ATOM     15  C   UNL     1     -15.243  -2.221 -15.621  0.00  0.00    +0.000 A 
ATOM     16  C   UNL     1     -14.450  -2.244 -14.476  0.00  0.00    +0.000 A 
ENDBRANCH  10  11
ENDBRANCH   1  10
TORSDOF 2
ENDMDL
MODEL 8
REMARK VINA RESULT:    -4.814     16.148     17.313
REMARK INTER + INTRA:          -5.476
REMARK INTER:                  -5.336
REMARK INTRA:                  -0.140
REMARK UNBOUND:                -0.099
REMARK  Name = 1550473
REMARK  2 active torsions:
REMARK  status: ('A' for Active; 'I' for Inactive)
REMARK    1  A    between atoms: N_1  and  C_4
REMARK    2  A    between atoms: C_4  and  C_5
REMARK                            x       y       z     vdW  Elec       q    Type
REMARK                         _______ _______ _______ _____ _____    ______ ____
ROOT
ATOM      1  N   UNL     1      -9.076  -0.745 -17.449  0.00  0.00    -0.354 N 
ATOM      2  N   UNL     1      -7.261   0.674 -17.689  0.00  0.00    -0.372 N 
ATOM      3  N   UNL     1      -9.093   0.979 -19.037  0.00  0.00    -0.372 N 
ATOM      4  C   UNL     1      -8.490   0.294 -18.059  0.00  0.00    +0.166 C 
ATOM      5  H   UNL     1      -8.554  -1.242 -16.736  0.00  0.00    +0.163 HD
ATOM      6  H   UNL     1      -6.795   1.456 -18.128  0.00  0.00    +0.159 HD
ATOM      7  H   UNL     1      -6.760   0.204 -16.944  0.00  0.00    +0.159 HD
ATOM      8  H   UNL     1     -10.018   0.739 -19.366  0.00  0.00    +0.159 HD
ATOM      9  H   UNL     1      -8.638   1.758 -19.496  0.00  0.00    +0.159 HD
ENDROOT
BRANCH   1  10
ATOM     10  C   UNL     1     -10.432  -1.205 -17.740  0.00  0.00    +0.151 C 
BRANCH  10  11
ATOM     11  C   UNL     1     -11.214  -1.272 -16.457  0.00  0.00    -0.028 A 
ATOM     12  C   UNL     1     -11.176  -0.209 -15.543  0.00  0.00    +0.005 A 
ATOM     13  C   UNL     1     -12.000  -2.395 -16.152  0.00  0.00    +0.005 A 
ATOM     14  C   UNL     1     -11.925  -0.259 -14.366  0.00  0.00    +0.000 A 
ATOM     15  C   UNL     1     -12.746  -2.440 -14.975  0.00  0.00    +0.000 A 
ATOM     16  C   UNL     1     -12.710  -1.371 -14.083  0.00  0.00    +0.000 A 
ENDBRANCH  10  11
ENDBRANCH   1  10
TORSDOF 2
ENDMDL
MODEL 9
REMARK VINA RESULT:    -4.801     16.691     18.434
REMARK INTER + INTRA:          -5.461
REMARK INTER:                  -5.288
REMARK INTRA:                  -0.173
REMARK UNBOUND:                -0.099
REMARK  Name = 1550473
REMARK  2 active torsions:
REMARK  status: ('A' for Active; 'I' for Inactive)
REMARK    1  A    between atoms: N_1  and  C_4
REMARK    2  A    between atoms: C_4  and  C_5
REMARK                            x       y       z     vdW  Elec       q    Type
REMARK                         _______ _______ _______ _____ _____    ______ ____
ROOT
ATOM      1  N   UNL     1     -11.206  -0.595 -17.545  0.00  0.00    -0.354 N 
ATOM      2  N   UNL     1     -10.303   1.528 -17.342  0.00  0.00    -0.372 N 
ATOM      3  N   UNL     1      -9.863  -0.025 -15.711  0.00  0.00    -0.372 N 
ATOM      4  C   UNL     1     -10.463   0.288 -16.865  0.00  0.00    +0.166 C 
ATOM      5  H   UNL     1     -11.659  -0.287 -18.398  0.00  0.00    +0.163 HD
ATOM      6  H   UNL     1      -9.745   2.215 -16.852  0.00  0.00    +0.159 HD
ATOM      7  H   UNL     1     -10.719   1.820 -18.218  0.00  0.00    +0.159 HD
ATOM      8  H   UNL     1      -9.949  -0.942 -15.294  0.00  0.00    +0.159 HD
ATOM      9  H   UNL     1      -9.310   0.653 -15.200  0.00  0.00    +0.159 HD
ENDROOT
BRANCH   1  10
ATOM     10  C   UNL     1     -11.399  -1.986 -17.139  0.00  0.00    +0.151 C 
BRANCH  10  11
ATOM     11  C   UNL     1     -12.713  -2.111 -16.420  0.00  0.00    -0.028 A 
ATOM     12  C   UNL     1     -12.757  -2.149 -15.018  0.00  0.00    +0.005 A 
ATOM     13  C   UNL     1     -13.919  -2.185 -17.134  0.00  0.00    +0.005 A 
ATOM     14  C   UNL     1     -13.980  -2.234 -14.349  0.00  0.00    +0.000 A 
ATOM     15  C   UNL     1     -15.138  -2.271 -16.461  0.00  0.00    +0.000 A 
ATOM     16  C   UNL     1     -15.169  -2.293 -15.069  0.00  0.00    +0.000 A 
ENDBRANCH  10  11
ENDBRANCH   1  10
TORSDOF 2
ENDMDL
