MODEL 1
REMARK VINA RESULT:    -5.199      0.000      0.000
REMARK INTER + INTRA:          -5.898
REMARK INTER:                  -5.806
REMARK INTRA:                  -0.092
REMARK UNBOUND:                -0.092
REMARK  Name = 1550473
REMARK  2 active torsions:
REMARK  status: ('A' for Active; 'I' for Inactive)
REMARK    1  A    between atoms: N_1  and  C_4
REMARK    2  A    between atoms: C_4  and  C_5
REMARK                            x       y       z     vdW  Elec       q    Type
REMARK                         _______ _______ _______ _____ _____    ______ ____
ROOT
ATOM      1  N   UNL     1       6.089   5.181  21.364  0.00  0.00    -0.354 N 
ATOM      2  N   UNL     1       5.508   6.355  19.455  0.00  0.00    -0.372 N 
ATOM      3  N   UNL     1       4.364   4.433  19.965  0.00  0.00    -0.372 N 
ATOM      4  C   UNL     1       5.322   5.313  20.273  0.00  0.00    +0.166 C 
ATOM      5  H   UNL     1       6.818   5.865  21.526  0.00  0.00    +0.163 HD
ATOM      6  H   UNL     1       4.943   6.484  18.626  0.00  0.00    +0.159 HD
ATOM      7  H   UNL     1       6.207   7.063  19.643  0.00  0.00    +0.159 HD
ATOM      8  H   UNL     1       4.177   3.622  20.539  0.00  0.00    +0.159 HD
ATOM      9  H   UNL     1       3.795   4.538  19.134  0.00  0.00    +0.159 HD
ENDROOT
BRANCH   1  10
ATOM     10  C   UNL     1       5.932   4.111  22.349  0.00  0.00    +0.151 C 
BRANCH  10  11
ATOM     11  C   UNL     1       7.128   4.103  23.260  0.00  0.00    -0.028 A 
ATOM     12  C   UNL     1       7.132   4.867  24.436  0.00  0.00    +0.005 A 
ATOM     13  C   UNL     1       8.259   3.330  22.955  0.00  0.00    +0.005 A 
ATOM     14  C   UNL     1       8.231   4.837  25.298  0.00  0.00    +0.000 A 
ATOM     15  C   UNL     1       9.354   3.303  23.818  0.00  0.00    +0.000 A 
ATOM     16  C   UNL     1       9.339   4.054  24.990  0.00  0.00    +0.000 A 
ENDBRANCH  10  11
ENDBRANCH   1  10
TORSDOF 2
ENDMDL
MODEL 2
REMARK VINA RESULT:    -5.047     22.979     23.806
REMARK INTER + INTRA:          -5.729
REMARK INTER:                  -5.637
REMARK INTRA:                  -0.091
REMARK UNBOUND:                -0.092
REMARK  Name = 1550473
REMARK  2 active torsions:
REMARK  status: ('A' for Active; 'I' for Inactive)
REMARK    1  A    between atoms: N_1  and  C_4
REMARK    2  A    between atoms: C_4  and  C_5
REMARK                            x       y       z     vdW  Elec       q    Type
REMARK                         _______ _______ _______ _____ _____    ______ ____
ROOT
ATOM      1  N   UNL     1       2.234  -2.649   0.076  0.00  0.00    -0.354 N 
ATOM      2  N   UNL     1       0.125  -3.460  -0.432  0.00  0.00    -0.372 N 
ATOM      3  N   UNL     1       0.396  -2.177   1.451  0.00  0.00    -0.372 N 
ATOM      4  C   UNL     1       0.932  -2.755   0.371  0.00  0.00    +0.166 C 
ATOM      5  H   UNL     1       2.584  -3.136  -0.741  0.00  0.00    +0.163 HD
ATOM      6  H   UNL     1      -0.862  -3.555  -0.237  0.00  0.00    +0.159 HD
ATOM      7  H   UNL     1       0.469  -3.907  -1.273  0.00  0.00    +0.159 HD
ATOM      8  H   UNL     1       0.952  -1.637   2.101  0.00  0.00    +0.159 HD
ATOM      9  H   UNL     1      -0.588  -2.271   1.669  0.00  0.00    +0.159 HD
ENDROOT
BRANCH   1  10
ATOM     10  C   UNL     1       3.187  -1.861   0.856  0.00  0.00    +0.151 C 
BRANCH  10  11
ATOM     11  C   UNL     1       4.584  -2.209   0.422  0.00  0.00    -0.028 A 
ATOM     12  C   UNL     1       5.177  -1.552  -0.666  0.00  0.00    +0.005 A 
ATOM     13  C   UNL     1       5.323  -3.192   1.099  0.00  0.00    +0.005 A 
ATOM     14  C   UNL     1       6.485  -1.854  -1.051  0.00  0.00    +0.000 A 
ATOM     15  C   UNL     1       6.629  -3.492   0.711  0.00  0.00    +0.000 A 
ATOM     16  C   UNL     1       7.210  -2.821  -0.362  0.00  0.00    +0.000 A 
ENDBRANCH  10  11
ENDBRANCH   1  10
TORSDOF 2
ENDMDL
MODEL 3
REMARK VINA RESULT:    -5.006      3.833      5.208
REMARK INTER + INTRA:          -5.684
REMARK INTER:                  -5.581
REMARK INTRA:                  -0.103
REMARK UNBOUND:                -0.092
REMARK  Name = 1550473
REMARK  2 active torsions:
REMARK  status: ('A' for Active; 'I' for Inactive)
REMARK    1  A    between atoms: N_1  and  C_4
REMARK    2  A    between atoms: C_4  and  C_5
REMARK                            x       y       z     vdW  Elec       q    Type
REMARK                         _______ _______ _______ _____ _____    ______ ____
ROOT
ATOM      1  N   UNL     1      11.244   5.221  21.763  0.00  0.00    -0.354 N 
ATOM      2  N   UNL     1      12.784   5.882  20.164  0.00  0.00    -0.372 N 
ATOM      3  N   UNL     1      13.485   5.605  22.331  0.00  0.00    -0.372 N 
ATOM      4  C   UNL     1      12.496   5.565  21.432  0.00  0.00    +0.166 C 
ATOM      5  H   UNL     1      10.533   5.240  21.041  0.00  0.00    +0.163 HD
ATOM      6  H   UNL     1      13.720   6.142  19.884  0.00  0.00    +0.159 HD
ATOM      7  H   UNL     1      12.081   5.855  19.435  0.00  0.00    +0.159 HD
ATOM      8  H   UNL     1      13.333   5.384  23.306  0.00  0.00    +0.159 HD
ATOM      9  H   UNL     1      14.426   5.875  22.072  0.00  0.00    +0.159 HD
ENDROOT
BRANCH   1  10
ATOM     10  C   UNL     1      10.838   4.807  23.105  0.00  0.00    +0.151 C 
BRANCH  10  11
ATOM     11  C   UNL     1       9.352   4.577  23.119  0.00  0.00    -0.028 A 
ATOM     12  C   UNL     1       8.756   3.715  22.187  0.00  0.00    +0.005 A 
ATOM     13  C   UNL     1       8.535   5.215  24.065  0.00  0.00    +0.005 A 
ATOM     14  C   UNL     1       7.380   3.478  22.219  0.00  0.00    +0.000 A 
ATOM     15  C   UNL     1       7.161   4.976  24.093  0.00  0.00    +0.000 A 
ATOM     16  C   UNL     1       6.584   4.106  23.171  0.00  0.00    +0.000 A 
ENDBRANCH  10  11
ENDBRANCH   1  10
TORSDOF 2
ENDMDL
MODEL 4
REMARK VINA RESULT:    -4.988      2.404      3.311
REMARK INTER + INTRA:          -5.663
REMARK INTER:                  -5.520
REMARK INTRA:                  -0.142
REMARK UNBOUND:                -0.092
REMARK  Name = 1550473
REMARK  2 active torsions:
REMARK  status: ('A' for Active; 'I' for Inactive)
REMARK    1  A    between atoms: N_1  and  C_4
REMARK    2  A    between atoms: C_4  and  C_5
REMARK                            x       y       z     vdW  Elec       q    Type
REMARK                         _______ _______ _______ _____ _____    ______ ____
ROOT
ATOM      1  N   UNL     1       7.240   3.542  22.028  0.00  0.00    -0.354 N 
ATOM      2  N   UNL     1       4.999   3.793  21.499  0.00  0.00    -0.372 N 
ATOM      3  N   UNL     1       5.568   3.086  23.606  0.00  0.00    -0.372 N 
ATOM      4  C   UNL     1       5.950   3.471  22.384  0.00  0.00    +0.166 C 
ATOM      5  H   UNL     1       7.462   3.812  21.077  0.00  0.00    +0.163 HD
ATOM      6  H   UNL     1       4.018   3.752  21.739  0.00  0.00    +0.159 HD
ATOM      7  H   UNL     1       5.226   4.107  20.563  0.00  0.00    +0.159 HD
ATOM      8  H   UNL     1       6.237   2.824  24.318  0.00  0.00    +0.159 HD
ATOM      9  H   UNL     1       4.591   3.028  23.862  0.00  0.00    +0.159 HD
ENDROOT
BRANCH   1  10
ATOM     10  C   UNL     1       8.354   3.265  22.933  0.00  0.00    +0.151 C 
BRANCH  10  11
ATOM     11  C   UNL     1       9.296   4.437  22.925  0.00  0.00    -0.028 A 
ATOM     12  C   UNL     1      10.570   4.323  22.350  0.00  0.00    +0.005 A 
ATOM     13  C   UNL     1       8.918   5.667  23.486  0.00  0.00    +0.005 A 
ATOM     14  C   UNL     1      11.435   5.420  22.316  0.00  0.00    +0.000 A 
ATOM     15  C   UNL     1       9.785   6.760  23.450  0.00  0.00    +0.000 A 
ATOM     16  C   UNL     1      11.041   6.636  22.863  0.00  0.00    +0.000 A 
ENDBRANCH  10  11
ENDBRANCH   1  10
TORSDOF 2
ENDMDL
MODEL 5
REMARK VINA RESULT:    -4.627     23.279     24.459
REMARK INTER + INTRA:          -5.260
REMARK INTER:                  -5.128
REMARK INTRA:                  -0.132
REMARK UNBOUND:                -0.092
REMARK  Name = 1550473
REMARK  2 active torsions:
REMARK  status: ('A' for Active; 'I' for Inactive)
REMARK    1  A    between atoms: N_1  and  C_4
REMARK    2  A    between atoms: C_4  and  C_5
REMARK                            x       y       z     vdW  Elec       q    Type
REMARK                         _______ _______ _______ _____ _____    ______ ____
ROOT
ATOM      1  N   UNL     1       4.493  -1.554  -0.260  0.00  0.00    -0.354 N 
ATOM      2  N   UNL     1       6.165  -1.090  -1.794  0.00  0.00    -0.372 N 
ATOM      3  N   UNL     1       6.399  -2.908  -0.414  0.00  0.00    -0.372 N 
ATOM      4  C   UNL     1       5.676  -1.856  -0.811  0.00  0.00    +0.166 C 
ATOM      5  H   UNL     1       4.007  -0.726  -0.586  0.00  0.00    +0.163 HD
ATOM      6  H   UNL     1       7.053  -1.295  -2.231  0.00  0.00    +0.159 HD
ATOM      7  H   UNL     1       5.656  -0.289  -2.149  0.00  0.00    +0.159 HD
ATOM      8  H   UNL     1       6.089  -3.522   0.327  0.00  0.00    +0.159 HD
ATOM      9  H   UNL     1       7.297  -3.122  -0.831  0.00  0.00    +0.159 HD
ENDROOT
BRANCH   1  10
ATOM     10  C   UNL     1       3.847  -2.354   0.778  0.00  0.00    +0.151 C 
BRANCH  10  11
ATOM     11  C   UNL     1       2.385  -2.493   0.454  0.00  0.00    -0.028 A 
ATOM     12  C   UNL     1       1.977  -2.983  -0.796  0.00  0.00    +0.005 A 
ATOM     13  C   UNL     1       1.403  -2.142   1.393  0.00  0.00    +0.005 A 
ATOM     14  C   UNL     1       0.620  -3.141  -1.087  0.00  0.00    +0.000 A 
ATOM     15  C   UNL     1       0.049  -2.300   1.098  0.00  0.00    +0.000 A 
ATOM     16  C   UNL     1      -0.342  -2.802  -0.141  0.00  0.00    +0.000 A 
ENDBRANCH  10  11
ENDBRANCH   1  10
TORSDOF 2
ENDMDL
MODEL 6
REMARK VINA RESULT:    -4.491      2.243      3.574
REMARK INTER + INTRA:          -5.108
REMARK INTER:                  -4.972
REMARK INTRA:                  -0.136
REMARK UNBOUND:                -0.092
REMARK  Name = 1550473
REMARK  2 active torsions:
REMARK  status: ('A' for Active; 'I' for Inactive)
REMARK    1  A    between atoms: N_1  and  C_4
REMARK    2  A    between atoms: C_4  and  C_5
REMARK                            x       y       z     vdW  Elec       q    Type
REMARK                         _______ _______ _______ _____ _____    ______ ____
ROOT
ATOM      1  N   UNL     1       7.243   4.143  24.049  0.00  0.00    -0.354 N 
ATOM      2  N   UNL     1       5.429   3.140  23.014  0.00  0.00    -0.372 N 
ATOM      3  N   UNL     1       6.381   4.987  22.040  0.00  0.00    -0.372 N 
ATOM      4  C   UNL     1       6.363   4.099  23.040  0.00  0.00    +0.166 C 
ATOM      5  H   UNL     1       7.157   3.458  24.792  0.00  0.00    +0.163 HD
ATOM      6  H   UNL     1       4.755   3.079  22.264  0.00  0.00    +0.159 HD
ATOM      7  H   UNL     1       5.375   2.430  23.734  0.00  0.00    +0.159 HD
ATOM      8  H   UNL     1       7.056   5.739  22.004  0.00  0.00    +0.159 HD
ATOM      9  H   UNL     1       5.706   4.950  21.286  0.00  0.00    +0.159 HD
ENDROOT
BRANCH   1  10
ATOM     10  C   UNL     1       8.332   5.113  24.143  0.00  0.00    +0.151 C 
BRANCH  10  11
ATOM     11  C   UNL     1       8.477   5.552  25.574  0.00  0.00    -0.028 A 
ATOM     12  C   UNL     1       7.369   5.553  26.434  0.00  0.00    +0.005 A 
ATOM     13  C   UNL     1       9.721   5.961  26.078  0.00  0.00    +0.005 A 
ATOM     14  C   UNL     1       7.509   5.932  27.772  0.00  0.00    +0.000 A 
ATOM     15  C   UNL     1       9.857   6.339  27.414  0.00  0.00    +0.000 A 
ATOM     16  C   UNL     1       8.752   6.322  28.261  0.00  0.00    +0.000 A 
ENDBRANCH  10  11
ENDBRANCH   1  10
TORSDOF 2
ENDMDL
MODEL 7
REMARK VINA RESULT:    -4.420      4.378      6.143
REMARK INTER + INTRA:          -5.029
REMARK INTER:                  -4.937
REMARK INTRA:                  -0.092
REMARK UNBOUND:                -0.092
REMARK  Name = 1550473
REMARK  2 active torsions:
REMARK  status: ('A' for Active; 'I' for Inactive)
REMARK    1  A    between atoms: N_1  and  C_4
REMARK    2  A    between atoms: C_4  and  C_5
REMARK                            x       y       z     vdW  Elec       q    Type
REMARK                         _______ _______ _______ _____ _____    ______ ____
ROOT
ATOM      1  N   UNL     1       9.519   2.768  26.510  0.00  0.00    -0.354 N 
ATOM      2  N   UNL     1       9.515   1.407  28.383  0.00  0.00    -0.372 N 
ATOM      3  N   UNL     1      10.525   3.463  28.509  0.00  0.00    -0.372 N 
ATOM      4  C   UNL     1       9.855   2.557  27.790  0.00  0.00    +0.166 C 
ATOM      5  H   UNL     1       9.037   2.030  26.011  0.00  0.00    +0.163 HD
ATOM      6  H   UNL     1       9.752   1.220  29.349  0.00  0.00    +0.159 HD
ATOM      7  H   UNL     1       8.994   0.689  27.895  0.00  0.00    +0.159 HD
ATOM      8  H   UNL     1      10.816   4.349  28.118  0.00  0.00    +0.159 HD
ATOM      9  H   UNL     1      10.782   3.290  29.473  0.00  0.00    +0.159 HD
ENDROOT
BRANCH   1  10
ATOM     10  C   UNL     1       9.794   4.008  25.787  0.00  0.00    +0.151 C 
BRANCH  10  11
ATOM     11  C   UNL     1       9.013   4.011  24.502  0.00  0.00    -0.028 A 
ATOM     12  C   UNL     1       7.825   4.749  24.393  0.00  0.00    +0.005 A 
ATOM     13  C   UNL     1       9.458   3.282  23.388  0.00  0.00    +0.005 A 
ATOM     14  C   UNL     1       7.115   4.776  23.190  0.00  0.00    +0.000 A 
ATOM     15  C   UNL     1       8.745   3.311  22.189  0.00  0.00    +0.000 A 
ATOM     16  C   UNL     1       7.575   4.060  22.090  0.00  0.00    +0.000 A 
ENDBRANCH  10  11
ENDBRANCH   1  10
TORSDOF 2
ENDMDL
MODEL 8
REMARK VINA RESULT:    -4.415     24.130     25.822
REMARK INTER + INTRA:          -5.023
REMARK INTER:                  -4.869
REMARK INTRA:                  -0.154
REMARK UNBOUND:                -0.092
REMARK  Name = 1550473
REMARK  2 active torsions:
REMARK  status: ('A' for Active; 'I' for Inactive)
REMARK    1  A    between atoms: N_1  and  C_4
REMARK    2  A    between atoms: C_4  and  C_5
REMARK                            x       y       z     vdW  Elec       q    Type
REMARK                         _______ _______ _______ _____ _____    ______ ____
ROOT
ATOM      1  N   UNL     1      -1.735  -5.534  -1.458  0.00  0.00    -0.354 N 
ATOM      2  N   UNL     1      -0.777  -6.861  -3.097  0.00  0.00    -0.372 N 
ATOM      3  N   UNL     1      -0.875  -7.652  -0.945  0.00  0.00    -0.372 N 
ATOM      4  C   UNL     1      -1.135  -6.675  -1.820  0.00  0.00    +0.166 C 
ATOM      5  H   UNL     1      -1.877  -4.820  -2.163  0.00  0.00    +0.163 HD
ATOM      6  H   UNL     1      -0.326  -7.713  -3.400  0.00  0.00    +0.159 HD
ATOM      7  H   UNL     1      -0.962  -6.164  -3.808  0.00  0.00    +0.159 HD
ATOM      8  H   UNL     1      -1.114  -7.572   0.034  0.00  0.00    +0.159 HD
ATOM      9  H   UNL     1      -0.413  -8.508  -1.228  0.00  0.00    +0.159 HD
ENDROOT
BRANCH   1  10
ATOM     10  C   UNL     1      -2.213  -5.255  -0.105  0.00  0.00    +0.151 C 
BRANCH  10  11
ATOM     11  C   UNL     1      -1.308  -4.239   0.536  0.00  0.00    -0.028 A 
ATOM     12  C   UNL     1      -0.567  -3.347  -0.254  0.00  0.00    +0.005 A 
ATOM     13  C   UNL     1      -1.191  -4.159   1.932  0.00  0.00    +0.005 A 
ATOM     14  C   UNL     1       0.251  -2.384   0.342  0.00  0.00    +0.000 A 
ATOM     15  C   UNL     1      -0.372  -3.196   2.522  0.00  0.00    +0.000 A 
ATOM     16  C   UNL     1       0.346  -2.307   1.727  0.00  0.00    +0.000 A 
ENDBRANCH  10  11
ENDBRANCH   1  10
TORSDOF 2
ENDMDL
MODEL 9
REMARK VINA RESULT:    -4.413     22.994     23.542
REMARK INTER + INTRA:          -5.021
REMARK INTER:                  -4.903
REMARK INTRA:                  -0.118
REMARK UNBOUND:                -0.092
REMARK  Name = 1550473
REMARK  2 active torsions:
REMARK  status: ('A' for Active; 'I' for Inactive)
REMARK    1  A    between atoms: N_1  and  C_4
REMARK    2  A    between atoms: C_4  and  C_5
REMARK                            x       y       z     vdW  Elec       q    Type
REMARK                         _______ _______ _______ _____ _____    ______ ____
ROOT
ATOM      1  N   UNL     1       4.247  -2.803   0.769  0.00  0.00    -0.354 N 
ATOM      2  N   UNL     1       6.528  -3.170   0.609  0.00  0.00    -0.372 N 
ATOM      3  N   UNL     1       5.365  -2.581  -1.279  0.00  0.00    -0.372 N 
ATOM      4  C   UNL     1       5.364  -2.849   0.032  0.00  0.00    +0.166 C 
ATOM      5  H   UNL     1       4.308  -3.047   1.751  0.00  0.00    +0.163 HD
ATOM      6  H   UNL     1       7.388  -3.209   0.079  0.00  0.00    +0.159 HD
ATOM      7  H   UNL     1       6.594  -3.368   1.600  0.00  0.00    +0.159 HD
ATOM      8  H   UNL     1       4.518  -2.337  -1.776  0.00  0.00    +0.159 HD
ATOM      9  H   UNL     1       6.213  -2.626  -1.829  0.00  0.00    +0.159 HD
ENDROOT
BRANCH   1  10
ATOM     10  C   UNL     1       2.938  -2.412   0.248  0.00  0.00    +0.151 C 
BRANCH  10  11
ATOM     11  C   UNL     1       1.866  -2.979   1.137  0.00  0.00    -0.028 A 
ATOM     12  C   UNL     1       0.780  -2.186   1.536  0.00  0.00    +0.005 A 
ATOM     13  C   UNL     1       1.927  -4.309   1.578  0.00  0.00    +0.005 A 
ATOM     14  C   UNL     1      -0.232  -2.721   2.337  0.00  0.00    +0.000 A 
ATOM     15  C   UNL     1       0.915  -4.839   2.378  0.00  0.00    +0.000 A 
ATOM     16  C   UNL     1      -0.165  -4.046   2.755  0.00  0.00    +0.000 A 
ENDBRANCH  10  11
ENDBRANCH   1  10
TORSDOF 2
ENDMDL
