MODEL 1
REMARK VINA RESULT:    -5.324      0.000      0.000
REMARK INTER + INTRA:          -6.102
REMARK INTER:                  -5.946
REMARK INTRA:                  -0.156
REMARK UNBOUND:                -0.156
REMARK  Name = 1550473
REMARK  2 active torsions:
REMARK  status: ('A' for Active; 'I' for Inactive)
REMARK    1  A    between atoms: N_1  and  C_4
REMARK    2  A    between atoms: C_4  and  C_5
REMARK                            x       y       z     vdW  Elec       q    Type
REMARK                         _______ _______ _______ _____ _____    ______ ____
ROOT
ATOM      1  N   UNL     1     -10.222  -7.719  -6.442  0.00  0.00    -0.354 N 
ATOM      2  N   UNL     1      -9.210  -8.272  -4.434  0.00  0.00    -0.372 N 
ATOM      3  N   UNL     1     -10.408  -9.878  -5.551  0.00  0.00    -0.372 N 
ATOM      4  C   UNL     1      -9.955  -8.622  -5.489  0.00  0.00    +0.166 C 
ATOM      5  H   UNL     1      -9.875  -6.774  -6.321  0.00  0.00    +0.163 HD
ATOM      6  H   UNL     1      -8.989  -8.933  -3.701  0.00  0.00    +0.159 HD
ATOM      7  H   UNL     1      -8.825  -7.340  -4.339  0.00  0.00    +0.159 HD
ATOM      8  H   UNL     1     -10.981 -10.204  -6.318  0.00  0.00    +0.159 HD
ATOM      9  H   UNL     1     -10.207 -10.551  -4.822  0.00  0.00    +0.159 HD
ENDROOT
BRANCH   1  10
ATOM     10  C   UNL     1     -10.979  -8.012  -7.658  0.00  0.00    +0.151 C 
BRANCH  10  11
ATOM     11  C   UNL     1     -10.060  -7.915  -8.844  0.00  0.00    -0.028 A 
ATOM     12  C   UNL     1     -10.198  -6.868  -9.767  0.00  0.00    +0.005 A 
ATOM     13  C   UNL     1      -9.045  -8.862  -9.047  0.00  0.00    +0.005 A 
ATOM     14  C   UNL     1      -9.325  -6.759 -10.853  0.00  0.00    +0.000 A 
ATOM     15  C   UNL     1      -8.176  -8.751 -10.133  0.00  0.00    +0.000 A 
ATOM     16  C   UNL     1      -8.315  -7.698 -11.034  0.00  0.00    +0.000 A 
ENDBRANCH  10  11
ENDBRANCH   1  10
TORSDOF 2
ENDMDL
MODEL 2
REMARK VINA RESULT:    -4.652     10.256     11.674
REMARK INTER + INTRA:          -5.352
REMARK INTER:                  -5.209
REMARK INTRA:                  -0.142
REMARK UNBOUND:                -0.156
REMARK  Name = 1550473
REMARK  2 active torsions:
REMARK  status: ('A' for Active; 'I' for Inactive)
REMARK    1  A    between atoms: N_1  and  C_4
REMARK    2  A    between atoms: C_4  and  C_5
REMARK                            x       y       z     vdW  Elec       q    Type
REMARK                         _______ _______ _______ _____ _____    ______ ____
ROOT
ATOM      1  N   UNL     1     -11.421   0.216   1.613  0.00  0.00    -0.354 N 
ATOM      2  N   UNL     1     -10.198  -0.593   3.406  0.00  0.00    -0.372 N 
ATOM      3  N   UNL     1      -9.078   0.250   1.589  0.00  0.00    -0.372 N 
ATOM      4  C   UNL     1     -10.238  -0.036   2.189  0.00  0.00    +0.166 C 
ATOM      5  H   UNL     1     -12.264  -0.053   2.107  0.00  0.00    +0.163 HD
ATOM      6  H   UNL     1      -9.321  -0.792   3.867  0.00  0.00    +0.159 HD
ATOM      7  H   UNL     1     -11.043  -0.818   3.916  0.00  0.00    +0.159 HD
ATOM      8  H   UNL     1      -9.040   0.666   0.668  0.00  0.00    +0.159 HD
ATOM      9  H   UNL     1      -8.189   0.048   2.030  0.00  0.00    +0.159 HD
ENDROOT
BRANCH   1  10
ATOM     10  C   UNL     1     -11.575   0.869   0.314  0.00  0.00    +0.151 C 
BRANCH  10  11
ATOM     11  C   UNL     1     -12.276  -0.071  -0.628  0.00  0.00    -0.028 A 
ATOM     12  C   UNL     1     -11.599  -0.607  -1.733  0.00  0.00    +0.005 A 
ATOM     13  C   UNL     1     -13.615  -0.434  -0.418  0.00  0.00    +0.005 A 
ATOM     14  C   UNL     1     -12.241  -1.504  -2.592  0.00  0.00    +0.000 A 
ATOM     15  C   UNL     1     -14.252  -1.329  -1.277  0.00  0.00    +0.000 A 
ATOM     16  C   UNL     1     -13.564  -1.865  -2.363  0.00  0.00    +0.000 A 
ENDBRANCH  10  11
ENDBRANCH   1  10
TORSDOF 2
ENDMDL
MODEL 3
REMARK VINA RESULT:    -4.533     10.924     12.345
REMARK INTER + INTRA:          -5.219
REMARK INTER:                  -5.101
REMARK INTRA:                  -0.118
REMARK UNBOUND:                -0.156
REMARK  Name = 1550473
REMARK  2 active torsions:
REMARK  status: ('A' for Active; 'I' for Inactive)
REMARK    1  A    between atoms: N_1  and  C_4
REMARK    2  A    between atoms: C_4  and  C_5
REMARK                            x       y       z     vdW  Elec       q    Type
REMARK                         _______ _______ _______ _____ _____    ______ ____
ROOT
ATOM      1  N   UNL     1     -10.975  -0.720   3.092  0.00  0.00    -0.354 N 
ATOM      2  N   UNL     1     -11.309  -1.114   5.350  0.00  0.00    -0.372 N 
ATOM      3  N   UNL     1      -9.334  -0.164   4.670  0.00  0.00    -0.372 N 
ATOM      4  C   UNL     1     -10.534  -0.662   4.356  0.00  0.00    +0.166 C 
ATOM      5  H   UNL     1     -11.882  -1.137   2.917  0.00  0.00    +0.163 HD
ATOM      6  H   UNL     1     -11.005  -1.080   6.314  0.00  0.00    +0.159 HD
ATOM      7  H   UNL     1     -12.234  -1.488   5.177  0.00  0.00    +0.159 HD
ATOM      8  H   UNL     1      -8.699   0.188   3.966  0.00  0.00    +0.159 HD
ATOM      9  H   UNL     1      -9.007  -0.132   5.628  0.00  0.00    +0.159 HD
ENDROOT
BRANCH   1  10
ATOM     10  C   UNL     1     -10.231  -0.207   1.943  0.00  0.00    +0.151 C 
BRANCH  10  11
ATOM     11  C   UNL     1     -10.973  -0.556   0.682  0.00  0.00    -0.028 A 
ATOM     12  C   UNL     1     -10.855   0.249  -0.460  0.00  0.00    +0.005 A 
ATOM     13  C   UNL     1     -11.792  -1.694   0.622  0.00  0.00    +0.005 A 
ATOM     14  C   UNL     1     -11.520  -0.091  -1.640  0.00  0.00    +0.000 A 
ATOM     15  C   UNL     1     -12.455  -2.030  -0.558  0.00  0.00    +0.000 A 
ATOM     16  C   UNL     1     -12.317  -1.230  -1.690  0.00  0.00    +0.000 A 
ENDBRANCH  10  11
ENDBRANCH   1  10
TORSDOF 2
ENDMDL
MODEL 4
REMARK VINA RESULT:    -4.518     21.527     22.740
REMARK INTER + INTRA:          -5.202
REMARK INTER:                  -5.086
REMARK INTRA:                  -0.116
REMARK UNBOUND:                -0.156
REMARK  Name = 1550473
REMARK  2 active torsions:
REMARK  status: ('A' for Active; 'I' for Inactive)
REMARK    1  A    between atoms: N_1  and  C_4
REMARK    2  A    between atoms: C_4  and  C_5
REMARK                            x       y       z     vdW  Elec       q    Type
REMARK                         _______ _______ _______ _____ _____    ______ ____
ROOT
ATOM      1  N   UNL     1      10.737  -3.025  -0.154  0.00  0.00    -0.354 N 
ATOM      2  N   UNL     1      10.147  -2.717  -2.372  0.00  0.00    -0.372 N 
ATOM      3  N   UNL     1      11.827  -4.196  -1.866  0.00  0.00    -0.372 N 
ATOM      4  C   UNL     1      10.910  -3.316  -1.450  0.00  0.00    +0.166 C 
ATOM      5  H   UNL     1      10.045  -2.327   0.095  0.00  0.00    +0.163 HD
ATOM      6  H   UNL     1      10.252  -2.919  -3.357  0.00  0.00    +0.159 HD
ATOM      7  H   UNL     1       9.425  -2.054  -2.118  0.00  0.00    +0.159 HD
ATOM      8  H   UNL     1      12.438  -4.678  -1.221  0.00  0.00    +0.159 HD
ATOM      9  H   UNL     1      11.955  -4.403  -2.849  0.00  0.00    +0.159 HD
ENDROOT
BRANCH   1  10
ATOM     10  C   UNL     1      11.478  -3.661   0.933  0.00  0.00    +0.151 C 
BRANCH  10  11
ATOM     11  C   UNL     1      10.511  -4.377   1.835  0.00  0.00    -0.028 A 
ATOM     12  C   UNL     1      10.829  -4.608   3.181  0.00  0.00    +0.005 A 
ATOM     13  C   UNL     1       9.271  -4.822   1.351  0.00  0.00    +0.005 A 
ATOM     14  C   UNL     1       9.918  -5.246   4.027  0.00  0.00    +0.000 A 
ATOM     15  C   UNL     1       8.364  -5.459   2.198  0.00  0.00    +0.000 A 
ATOM     16  C   UNL     1       8.687  -5.669   3.536  0.00  0.00    +0.000 A 
ENDBRANCH  10  11
ENDBRANCH   1  10
TORSDOF 2
ENDMDL
MODEL 5
REMARK VINA RESULT:    -4.456     19.138     20.204
REMARK INTER + INTRA:          -5.133
REMARK INTER:                  -5.000
REMARK INTRA:                  -0.133
REMARK UNBOUND:                -0.156
REMARK  Name = 1550473
REMARK  2 active torsions:
REMARK  status: ('A' for Active; 'I' for Inactive)
REMARK    1  A    between atoms: N_1  and  C_4
REMARK    2  A    between atoms: C_4  and  C_5
REMARK                            x       y       z     vdW  Elec       q    Type
REMARK                         _______ _______ _______ _____ _____    ______ ____
ROOT
ATOM      1  N   UNL     1     -11.860   7.086   2.565  0.00  0.00    -0.354 N 
ATOM      2  N   UNL     1     -10.574   7.942   0.840  0.00  0.00    -0.372 N 
ATOM      3  N   UNL     1     -11.953   9.359   2.004  0.00  0.00    -0.372 N 
ATOM      4  C   UNL     1     -11.472   8.126   1.815  0.00  0.00    +0.166 C 
ATOM      5  H   UNL     1     -11.482   6.170   2.352  0.00  0.00    +0.163 HD
ATOM      6  H   UNL     1     -10.260   8.708   0.260  0.00  0.00    +0.159 HD
ATOM      7  H   UNL     1     -10.163   7.034   0.659  0.00  0.00    +0.159 HD
ATOM      8  H   UNL     1     -12.637   9.563   2.720  0.00  0.00    +0.159 HD
ATOM      9  H   UNL     1     -11.659  10.137   1.426  0.00  0.00    +0.159 HD
ENDROOT
BRANCH   1  10
ATOM     10  C   UNL     1     -12.792   7.189   3.687  0.00  0.00    +0.151 C 
BRANCH  10  11
ATOM     11  C   UNL     1     -12.133   6.649   4.925  0.00  0.00    -0.028 A 
ATOM     12  C   UNL     1     -12.864   5.882   5.845  0.00  0.00    +0.005 A 
ATOM     13  C   UNL     1     -10.775   6.895   5.182  0.00  0.00    +0.005 A 
ATOM     14  C   UNL     1     -12.244   5.355   6.980  0.00  0.00    +0.000 A 
ATOM     15  C   UNL     1     -10.160   6.367   6.318  0.00  0.00    +0.000 A 
ATOM     16  C   UNL     1     -10.894   5.595   7.215  0.00  0.00    +0.000 A 
ENDBRANCH  10  11
ENDBRANCH   1  10
TORSDOF 2
ENDMDL
MODEL 6
REMARK VINA RESULT:    -4.314      2.621      4.012
REMARK INTER + INTRA:          -4.974
REMARK INTER:                  -4.850
REMARK INTRA:                  -0.124
REMARK UNBOUND:                -0.156
REMARK  Name = 1550473
REMARK  2 active torsions:
REMARK  status: ('A' for Active; 'I' for Inactive)
REMARK    1  A    between atoms: N_1  and  C_4
REMARK    2  A    between atoms: C_4  and  C_5
REMARK                            x       y       z     vdW  Elec       q    Type
REMARK                         _______ _______ _______ _____ _____    ______ ____
ROOT
ATOM      1  N   UNL     1     -10.659  -7.914  -5.934  0.00  0.00    -0.354 N 
ATOM      2  N   UNL     1      -9.524  -8.429  -3.983  0.00  0.00    -0.372 N 
ATOM      3  N   UNL     1      -9.990 -10.112  -5.472  0.00  0.00    -0.372 N 
ATOM      4  C   UNL     1     -10.066  -8.818  -5.144  0.00  0.00    +0.166 C 
ATOM      5  H   UNL     1     -10.710  -6.953  -5.614  0.00  0.00    +0.163 HD
ATOM      6  H   UNL     1      -9.066  -9.088  -3.367  0.00  0.00    +0.159 HD
ATOM      7  H   UNL     1      -9.536  -7.461  -3.687  0.00  0.00    +0.159 HD
ATOM      8  H   UNL     1     -10.385 -10.470  -6.332  0.00  0.00    +0.159 HD
ATOM      9  H   UNL     1      -9.547 -10.788  -4.863  0.00  0.00    +0.159 HD
ENDROOT
BRANCH   1  10
ATOM     10  C   UNL     1     -11.233  -8.224  -7.243  0.00  0.00    +0.151 C 
BRANCH  10  11
ATOM     11  C   UNL     1     -12.350  -7.259  -7.531  0.00  0.00    -0.028 A 
ATOM     12  C   UNL     1     -13.270  -6.916  -6.529  0.00  0.00    +0.005 A 
ATOM     13  C   UNL     1     -12.491  -6.681  -8.801  0.00  0.00    +0.005 A 
ATOM     14  C   UNL     1     -14.290  -5.997  -6.787  0.00  0.00    +0.000 A 
ATOM     15  C   UNL     1     -13.512  -5.764  -9.055  0.00  0.00    +0.000 A 
ATOM     16  C   UNL     1     -14.409  -5.421  -8.047  0.00  0.00    +0.000 A 
ENDBRANCH  10  11
ENDBRANCH   1  10
TORSDOF 2
ENDMDL
MODEL 7
REMARK VINA RESULT:    -4.301     19.789     21.094
REMARK INTER + INTRA:          -4.960
REMARK INTER:                  -4.785
REMARK INTRA:                  -0.175
REMARK UNBOUND:                -0.156
REMARK  Name = 1550473
REMARK  2 active torsions:
REMARK  status: ('A' for Active; 'I' for Inactive)
REMARK    1  A    between atoms: N_1  and  C_4
REMARK    2  A    between atoms: C_4  and  C_5
REMARK                            x       y       z     vdW  Elec       q    Type
REMARK                         _______ _______ _______ _____ _____    ______ ____
ROOT
ATOM      1  N   UNL     1      -1.666 -11.963 -26.149  0.00  0.00    -0.354 N 
ATOM      2  N   UNL     1      -2.722 -13.224 -27.779  0.00  0.00    -0.372 N 
ATOM      3  N   UNL     1      -1.217 -14.251 -26.385  0.00  0.00    -0.372 N 
ATOM      4  C   UNL     1      -1.860 -13.140 -26.759  0.00  0.00    +0.166 C 
ATOM      5  H   UNL     1      -2.161 -11.151 -26.500  0.00  0.00    +0.163 HD
ATOM      6  H   UNL     1      -2.892 -14.099 -28.257  0.00  0.00    +0.159 HD
ATOM      7  H   UNL     1      -3.250 -12.421 -28.098  0.00  0.00    +0.159 HD
ATOM      8  H   UNL     1      -0.549 -14.253 -25.626  0.00  0.00    +0.159 HD
ATOM      9  H   UNL     1      -1.365 -15.134 -26.858  0.00  0.00    +0.159 HD
ENDROOT
BRANCH   1  10
ATOM     10  C   UNL     1      -0.789 -11.775 -24.995  0.00  0.00    +0.151 C 
BRANCH  10  11
ATOM     11  C   UNL     1       0.497 -11.142 -25.452  0.00  0.00    -0.028 A 
ATOM     12  C   UNL     1       1.730 -11.744 -25.160  0.00  0.00    +0.005 A 
ATOM     13  C   UNL     1       0.488  -9.944 -26.182  0.00  0.00    +0.005 A 
ATOM     14  C   UNL     1       2.922 -11.172 -25.610  0.00  0.00    +0.000 A 
ATOM     15  C   UNL     1       1.681  -9.376 -26.629  0.00  0.00    +0.000 A 
ATOM     16  C   UNL     1       2.897  -9.992 -26.345  0.00  0.00    +0.000 A 
ENDBRANCH  10  11
ENDBRANCH   1  10
TORSDOF 2
ENDMDL
MODEL 8
REMARK VINA RESULT:    -4.269     20.001     21.215
REMARK INTER + INTRA:          -4.924
REMARK INTER:                  -4.785
REMARK INTRA:                  -0.139
REMARK UNBOUND:                -0.156
REMARK  Name = 1550473
REMARK  2 active torsions:
REMARK  status: ('A' for Active; 'I' for Inactive)
REMARK    1  A    between atoms: N_1  and  C_4
REMARK    2  A    between atoms: C_4  and  C_5
REMARK                            x       y       z     vdW  Elec       q    Type
REMARK                         _______ _______ _______ _____ _____    ______ ____
ROOT
ATOM      1  N   UNL     1      -2.173 -13.298 -27.523  0.00  0.00    -0.354 N 
ATOM      2  N   UNL     1      -2.882 -13.427 -29.724  0.00  0.00    -0.372 N 
ATOM      3  N   UNL     1      -4.030 -12.077 -28.267  0.00  0.00    -0.372 N 
ATOM      4  C   UNL     1      -3.026 -12.931 -28.489  0.00  0.00    +0.166 C 
ATOM      5  H   UNL     1      -1.451 -13.973 -27.748  0.00  0.00    +0.163 HD
ATOM      6  H   UNL     1      -3.507 -13.166 -30.474  0.00  0.00    +0.159 HD
ATOM      7  H   UNL     1      -2.131 -14.066 -29.957  0.00  0.00    +0.159 HD
ATOM      8  H   UNL     1      -4.196 -11.672 -27.355  0.00  0.00    +0.159 HD
ATOM      9  H   UNL     1      -4.674 -11.813 -29.002  0.00  0.00    +0.159 HD
ENDROOT
BRANCH   1  10
ATOM     10  C   UNL     1      -2.210 -12.775 -26.158  0.00  0.00    +0.151 C 
BRANCH  10  11
ATOM     11  C   UNL     1      -0.822 -12.361 -25.753  0.00  0.00    -0.028 A 
ATOM     12  C   UNL     1      -0.621 -11.561 -24.619  0.00  0.00    +0.005 A 
ATOM     13  C   UNL     1       0.296 -12.772 -26.495  0.00  0.00    +0.005 A 
ATOM     14  C   UNL     1       0.670 -11.201 -24.225  0.00  0.00    +0.000 A 
ATOM     15  C   UNL     1       1.583 -12.410 -26.099  0.00  0.00    +0.000 A 
ATOM     16  C   UNL     1       1.770 -11.627 -24.962  0.00  0.00    +0.000 A 
ENDBRANCH  10  11
ENDBRANCH   1  10
TORSDOF 2
ENDMDL
MODEL 9
REMARK VINA RESULT:    -4.135     19.911     21.046
REMARK INTER + INTRA:          -4.775
REMARK INTER:                  -4.648
REMARK INTRA:                  -0.127
REMARK UNBOUND:                -0.156
REMARK  Name = 1550473
REMARK  2 active torsions:
REMARK  status: ('A' for Active; 'I' for Inactive)
REMARK    1  A    between atoms: N_1  and  C_4
REMARK    2  A    between atoms: C_4  and  C_5
REMARK                            x       y       z     vdW  Elec       q    Type
REMARK                         _______ _______ _______ _____ _____    ______ ____
ROOT
ATOM      1  N   UNL     1      -3.192   7.173 -21.444  0.00  0.00    -0.354 N 
ATOM      2  N   UNL     1      -5.283   7.567 -22.358  0.00  0.00    -0.372 N 
ATOM      3  N   UNL     1      -3.658   6.622 -23.674  0.00  0.00    -0.372 N 
ATOM      4  C   UNL     1      -4.030   7.117 -22.488  0.00  0.00    +0.166 C 
ATOM      5  H   UNL     1      -3.525   7.588 -20.581  0.00  0.00    +0.163 HD
ATOM      6  H   UNL     1      -5.939   7.534 -23.127  0.00  0.00    +0.159 HD
ATOM      7  H   UNL     1      -5.628   7.938 -21.481  0.00  0.00    +0.159 HD
ATOM      8  H   UNL     1      -2.724   6.272 -23.839  0.00  0.00    +0.159 HD
ATOM      9  H   UNL     1      -4.297   6.592 -24.459  0.00  0.00    +0.159 HD
ENDROOT
BRANCH   1  10
ATOM     10  C   UNL     1      -1.823   6.661 -21.466  0.00  0.00    +0.151 C 
BRANCH  10  11
ATOM     11  C   UNL     1      -1.372   6.404 -20.054  0.00  0.00    -0.028 A 
ATOM     12  C   UNL     1      -0.033   6.090 -19.781  0.00  0.00    +0.005 A 
ATOM     13  C   UNL     1      -2.279   6.478 -18.986  0.00  0.00    +0.005 A 
ATOM     14  C   UNL     1       0.392   5.880 -18.467  0.00  0.00    +0.000 A 
ATOM     15  C   UNL     1      -1.850   6.267 -17.675  0.00  0.00    +0.000 A 
ATOM     16  C   UNL     1      -0.514   5.971 -17.416  0.00  0.00    +0.000 A 
ENDBRANCH  10  11
ENDBRANCH   1  10
TORSDOF 2
ENDMDL
