MODEL 1
REMARK VINA RESULT:    -5.652      0.000      0.000
REMARK INTER + INTRA:          -6.476
REMARK INTER:                  -6.312
REMARK INTRA:                  -0.164
REMARK UNBOUND:                -0.164
REMARK  Name = 1550473
REMARK  2 active torsions:
REMARK  status: ('A' for Active; 'I' for Inactive)
REMARK    1  A    between atoms: N_1  and  C_4
REMARK    2  A    between atoms: C_4  and  C_5
REMARK                            x       y       z     vdW  Elec       q    Type
REMARK                         _______ _______ _______ _____ _____    ______ ____
ROOT
ATOM      1  N   UNL     1      -0.339  -1.942 -14.511  0.00  0.00    -0.354 N 
ATOM      2  N   UNL     1       1.840  -2.091 -15.281  0.00  0.00    -0.372 N 
ATOM      3  N   UNL     1       0.117  -2.316 -16.779  0.00  0.00    -0.372 N 
ATOM      4  C   UNL     1       0.524  -2.116 -15.521  0.00  0.00    +0.166 C 
ATOM      5  H   UNL     1       0.033  -1.825 -13.575  0.00  0.00    +0.163 HD
ATOM      6  H   UNL     1       2.515  -2.215 -16.023  0.00  0.00    +0.159 HD
ATOM      7  H   UNL     1       2.209  -1.927 -14.352  0.00  0.00    +0.159 HD
ATOM      8  H   UNL     1      -0.863  -2.352 -17.025  0.00  0.00    +0.159 HD
ATOM      9  H   UNL     1       0.777  -2.455 -17.534  0.00  0.00    +0.159 HD
ENDROOT
BRANCH   1  10
ATOM     10  C   UNL     1      -1.791  -1.898 -14.674  0.00  0.00    +0.151 C 
BRANCH  10  11
ATOM     11  C   UNL     1      -2.269  -0.491 -14.446  0.00  0.00    -0.028 A 
ATOM     12  C   UNL     1      -2.885  -0.135 -13.237  0.00  0.00    +0.005 A 
ATOM     13  C   UNL     1      -2.104   0.493 -15.432  0.00  0.00    +0.005 A 
ATOM     14  C   UNL     1      -3.302   1.179 -13.013  0.00  0.00    +0.000 A 
ATOM     15  C   UNL     1      -2.522   1.804 -15.205  0.00  0.00    +0.000 A 
ATOM     16  C   UNL     1      -3.119   2.147 -13.994  0.00  0.00    +0.000 A 
ENDBRANCH  10  11
ENDBRANCH   1  10
TORSDOF 2
ENDMDL
MODEL 2
REMARK VINA RESULT:    -5.322      9.981     10.973
REMARK INTER + INTRA:          -6.108
REMARK INTER:                  -5.990
REMARK INTRA:                  -0.118
REMARK UNBOUND:                -0.164
REMARK  Name = 1550473
REMARK  2 active torsions:
REMARK  status: ('A' for Active; 'I' for Inactive)
REMARK    1  A    between atoms: N_1  and  C_4
REMARK    2  A    between atoms: C_4  and  C_5
REMARK                            x       y       z     vdW  Elec       q    Type
REMARK                         _______ _______ _______ _____ _____    ______ ____
ROOT
ATOM      1  N   UNL     1     -11.155  -3.574 -15.755  0.00  0.00    -0.354 N 
ATOM      2  N   UNL     1     -11.393  -3.113 -18.012  0.00  0.00    -0.372 N 
ATOM      3  N   UNL     1      -9.822  -1.957 -16.803  0.00  0.00    -0.372 N 
ATOM      4  C   UNL     1     -10.787  -2.882 -16.841  0.00  0.00    +0.166 C 
ATOM      5  H   UNL     1     -11.914  -4.240 -15.843  0.00  0.00    +0.163 HD
ATOM      6  H   UNL     1     -11.134  -2.609 -18.849  0.00  0.00    +0.159 HD
ATOM      7  H   UNL     1     -12.119  -3.812 -18.107  0.00  0.00    +0.159 HD
ATOM      8  H   UNL     1      -9.330  -1.731 -15.949  0.00  0.00    +0.159 HD
ATOM      9  H   UNL     1      -9.557  -1.433 -17.628  0.00  0.00    +0.159 HD
ENDROOT
BRANCH   1  10
ATOM     10  C   UNL     1     -10.522  -3.437 -14.444  0.00  0.00    +0.151 C 
BRANCH  10  11
ATOM     11  C   UNL     1     -10.671  -4.729 -13.689  0.00  0.00    -0.028 A 
ATOM     12  C   UNL     1     -11.808  -5.530 -13.867  0.00  0.00    +0.005 A 
ATOM     13  C   UNL     1      -9.675  -5.160 -12.799  0.00  0.00    +0.005 A 
ATOM     14  C   UNL     1     -11.933  -6.745 -13.188  0.00  0.00    +0.000 A 
ATOM     15  C   UNL     1      -9.805  -6.373 -12.123  0.00  0.00    +0.000 A 
ATOM     16  C   UNL     1     -10.932  -7.166 -12.320  0.00  0.00    +0.000 A 
ENDBRANCH  10  11
ENDBRANCH   1  10
TORSDOF 2
ENDMDL
MODEL 3
REMARK VINA RESULT:    -5.186      6.372      7.741
REMARK INTER + INTRA:          -5.956
REMARK INTER:                  -5.838
REMARK INTRA:                  -0.117
REMARK UNBOUND:                -0.164
REMARK  Name = 1550473
REMARK  2 active torsions:
REMARK  status: ('A' for Active; 'I' for Inactive)
REMARK    1  A    between atoms: N_1  and  C_4
REMARK    2  A    between atoms: C_4  and  C_5
REMARK                            x       y       z     vdW  Elec       q    Type
REMARK                         _______ _______ _______ _____ _____    ______ ____
ROOT
ATOM      1  N   UNL     1      -3.773   3.890 -11.290  0.00  0.00    -0.354 N 
ATOM      2  N   UNL     1      -4.949   2.300 -10.084  0.00  0.00    -0.372 N 
ATOM      3  N   UNL     1      -2.705   2.561  -9.682  0.00  0.00    -0.372 N 
ATOM      4  C   UNL     1      -3.799   2.927 -10.359  0.00  0.00    +0.166 C 
ATOM      5  H   UNL     1      -4.630   4.100 -11.789  0.00  0.00    +0.163 HD
ATOM      6  H   UNL     1      -4.999   1.571  -9.385  0.00  0.00    +0.159 HD
ATOM      7  H   UNL     1      -5.813   2.543 -10.552  0.00  0.00    +0.159 HD
ATOM      8  H   UNL     1      -1.805   2.991  -9.847  0.00  0.00    +0.159 HD
ATOM      9  H   UNL     1      -2.733   1.826  -8.987  0.00  0.00    +0.159 HD
ENDROOT
BRANCH   1  10
ATOM     10  C   UNL     1      -2.584   4.671 -11.626  0.00  0.00    +0.151 C 
BRANCH  10  11
ATOM     11  C   UNL     1      -2.982   6.107 -11.831  0.00  0.00    -0.028 A 
ATOM     12  C   UNL     1      -2.203   7.144 -11.298  0.00  0.00    +0.005 A 
ATOM     13  C   UNL     1      -4.133   6.437 -12.563  0.00  0.00    +0.005 A 
ATOM     14  C   UNL     1      -2.555   8.479 -11.514  0.00  0.00    +0.000 A 
ATOM     15  C   UNL     1      -4.482   7.770 -12.776  0.00  0.00    +0.000 A 
ATOM     16  C   UNL     1      -3.691   8.791 -12.253  0.00  0.00    +0.000 A 
ENDBRANCH  10  11
ENDBRANCH   1  10
TORSDOF 2
ENDMDL
MODEL 4
REMARK VINA RESULT:    -5.147     12.851     14.654
REMARK INTER + INTRA:          -5.912
REMARK INTER:                  -5.793
REMARK INTRA:                  -0.120
REMARK UNBOUND:                -0.164
REMARK  Name = 1550473
REMARK  2 active torsions:
REMARK  status: ('A' for Active; 'I' for Inactive)
REMARK    1  A    between atoms: N_1  and  C_4
REMARK    2  A    between atoms: C_4  and  C_5
REMARK                            x       y       z     vdW  Elec       q    Type
REMARK                         _______ _______ _______ _____ _____    ______ ____
ROOT
ATOM      1  N   UNL     1      14.265  -1.336 -14.571  0.00  0.00    -0.354 N 
ATOM      2  N   UNL     1      16.148  -2.382 -13.719  0.00  0.00    -0.372 N 
ATOM      3  N   UNL     1      16.333  -0.236 -14.511  0.00  0.00    -0.372 N 
ATOM      4  C   UNL     1      15.571  -1.309 -14.273  0.00  0.00    +0.166 C 
ATOM      5  H   UNL     1      13.749  -2.190 -14.394  0.00  0.00    +0.163 HD
ATOM      6  H   UNL     1      17.130  -2.389 -13.480  0.00  0.00    +0.159 HD
ATOM      7  H   UNL     1      15.619  -3.218 -13.501  0.00  0.00    +0.159 HD
ATOM      8  H   UNL     1      15.960   0.603 -14.933  0.00  0.00    +0.159 HD
ATOM      9  H   UNL     1      17.321  -0.229 -14.290  0.00  0.00    +0.159 HD
ENDROOT
BRANCH   1  10
ATOM     10  C   UNL     1      13.529  -0.202 -15.127  0.00  0.00    +0.151 C 
BRANCH  10  11
ATOM     11  C   UNL     1      12.209  -0.686 -15.659  0.00  0.00    -0.028 A 
ATOM     12  C   UNL     1      11.509   0.062 -16.616  0.00  0.00    +0.005 A 
ATOM     13  C   UNL     1      11.654  -1.896 -15.213  0.00  0.00    +0.005 A 
ATOM     14  C   UNL     1      10.297  -0.402 -17.133  0.00  0.00    +0.000 A 
ATOM     15  C   UNL     1      10.444  -2.356 -15.731  0.00  0.00    +0.000 A 
ATOM     16  C   UNL     1       9.766  -1.610 -16.692  0.00  0.00    +0.000 A 
ENDBRANCH  10  11
ENDBRANCH   1  10
TORSDOF 2
ENDMDL
MODEL 5
REMARK VINA RESULT:    -5.139      5.993      7.715
REMARK INTER + INTRA:          -5.903
REMARK INTER:                  -5.756
REMARK INTRA:                  -0.147
REMARK UNBOUND:                -0.164
REMARK  Name = 1550473
REMARK  2 active torsions:
REMARK  status: ('A' for Active; 'I' for Inactive)
REMARK    1  A    between atoms: N_1  and  C_4
REMARK    2  A    between atoms: C_4  and  C_5
REMARK                            x       y       z     vdW  Elec       q    Type
REMARK                         _______ _______ _______ _____ _____    ______ ____
ROOT
ATOM      1  N   UNL     1      -2.807   4.513 -10.861  0.00  0.00    -0.354 N 
ATOM      2  N   UNL     1      -3.668   2.704  -9.699  0.00  0.00    -0.372 N 
ATOM      3  N   UNL     1      -3.473   2.566 -11.981  0.00  0.00    -0.372 N 
ATOM      4  C   UNL     1      -3.311   3.272 -10.858  0.00  0.00    +0.166 C 
ATOM      5  H   UNL     1      -2.738   5.007  -9.978  0.00  0.00    +0.163 HD
ATOM      6  H   UNL     1      -4.048   1.767  -9.665  0.00  0.00    +0.159 HD
ATOM      7  H   UNL     1      -3.555   3.182  -8.814  0.00  0.00    +0.159 HD
ATOM      8  H   UNL     1      -3.228   2.940 -12.889  0.00  0.00    +0.159 HD
ATOM      9  H   UNL     1      -3.862   1.631 -11.969  0.00  0.00    +0.159 HD
ENDROOT
BRANCH   1  10
ATOM     10  C   UNL     1      -2.338   5.202 -12.062  0.00  0.00    +0.151 C 
BRANCH  10  11
ATOM     11  C   UNL     1      -3.064   6.512 -12.192  0.00  0.00    -0.028 A 
ATOM     12  C   UNL     1      -4.379   6.552 -12.679  0.00  0.00    +0.005 A 
ATOM     13  C   UNL     1      -2.445   7.717 -11.825  0.00  0.00    +0.005 A 
ATOM     14  C   UNL     1      -5.064   7.766 -12.772  0.00  0.00    +0.000 A 
ATOM     15  C   UNL     1      -3.132   8.927 -11.921  0.00  0.00    +0.000 A 
ATOM     16  C   UNL     1      -4.442   8.951 -12.392  0.00  0.00    +0.000 A 
ENDBRANCH  10  11
ENDBRANCH   1  10
TORSDOF 2
ENDMDL
MODEL 6
REMARK VINA RESULT:    -4.965      9.850     10.664
REMARK INTER + INTRA:          -5.709
REMARK INTER:                  -5.589
REMARK INTRA:                  -0.120
REMARK UNBOUND:                -0.164
REMARK  Name = 1550473
REMARK  2 active torsions:
REMARK  status: ('A' for Active; 'I' for Inactive)
REMARK    1  A    between atoms: N_1  and  C_4
REMARK    2  A    between atoms: C_4  and  C_5
REMARK                            x       y       z     vdW  Elec       q    Type
REMARK                         _______ _______ _______ _____ _____    ______ ____
ROOT
ATOM      1  N   UNL     1      -9.978  -6.235 -13.531  0.00  0.00    -0.354 N 
ATOM      2  N   UNL     1      -9.718  -8.192 -12.320  0.00  0.00    -0.372 N 
ATOM      3  N   UNL     1      -9.716  -6.188 -11.203  0.00  0.00    -0.372 N 
ATOM      4  C   UNL     1      -9.806  -6.857 -12.357  0.00  0.00    +0.166 C 
ATOM      5  H   UNL     1     -10.008  -6.797 -14.374  0.00  0.00    +0.163 HD
ATOM      6  H   UNL     1      -9.591  -8.689 -11.449  0.00  0.00    +0.159 HD
ATOM      7  H   UNL     1      -9.794  -8.755 -13.159  0.00  0.00    +0.159 HD
ATOM      8  H   UNL     1      -9.769  -5.179 -11.164  0.00  0.00    +0.159 HD
ATOM      9  H   UNL     1      -9.578  -6.667 -10.322  0.00  0.00    +0.159 HD
ENDROOT
BRANCH   1  10
ATOM     10  C   UNL     1     -10.139  -4.789 -13.675  0.00  0.00    +0.151 C 
BRANCH  10  11
ATOM     11  C   UNL     1     -10.484  -4.473 -15.104  0.00  0.00    -0.028 A 
ATOM     12  C   UNL     1     -10.219  -3.202 -15.636  0.00  0.00    +0.005 A 
ATOM     13  C   UNL     1     -11.070  -5.441 -15.934  0.00  0.00    +0.005 A 
ATOM     14  C   UNL     1     -10.511  -2.917 -16.972  0.00  0.00    +0.000 A 
ATOM     15  C   UNL     1     -11.361  -5.152 -17.267  0.00  0.00    +0.000 A 
ATOM     16  C   UNL     1     -11.079  -3.891 -17.786  0.00  0.00    +0.000 A 
ENDBRANCH  10  11
ENDBRANCH   1  10
TORSDOF 2
ENDMDL
MODEL 7
REMARK VINA RESULT:    -4.750     12.362     13.434
REMARK INTER + INTRA:          -5.469
REMARK INTER:                  -5.297
REMARK INTRA:                  -0.172
REMARK UNBOUND:                -0.164
REMARK  Name = 1550473
REMARK  2 active torsions:
REMARK  status: ('A' for Active; 'I' for Inactive)
REMARK    1  A    between atoms: N_1  and  C_4
REMARK    2  A    between atoms: C_4  and  C_5
REMARK                            x       y       z     vdW  Elec       q    Type
REMARK                         _______ _______ _______ _____ _____    ______ ____
ROOT
ATOM      1  N   UNL     1      13.053  -1.785 -15.326  0.00  0.00    -0.354 N 
ATOM      2  N   UNL     1      15.136  -0.772 -15.354  0.00  0.00    -0.372 N 
ATOM      3  N   UNL     1      13.389   0.313 -14.336  0.00  0.00    -0.372 N 
ATOM      4  C   UNL     1      13.844  -0.752 -15.004  0.00  0.00    +0.166 C 
ATOM      5  H   UNL     1      13.452  -2.548 -15.860  0.00  0.00    +0.163 HD
ATOM      6  H   UNL     1      15.758  -0.009 -15.122  0.00  0.00    +0.159 HD
ATOM      7  H   UNL     1      15.543  -1.557 -15.847  0.00  0.00    +0.159 HD
ATOM      8  H   UNL     1      12.422   0.391 -14.048  0.00  0.00    +0.159 HD
ATOM      9  H   UNL     1      13.993   1.091 -14.105  0.00  0.00    +0.159 HD
ENDROOT
BRANCH   1  10
ATOM     10  C   UNL     1      11.645  -1.886 -14.946  0.00  0.00    +0.151 C 
BRANCH  10  11
ATOM     11  C   UNL     1      10.792  -1.739 -16.175  0.00  0.00    -0.028 A 
ATOM     12  C   UNL     1      10.411  -2.867 -16.916  0.00  0.00    +0.005 A 
ATOM     13  C   UNL     1      10.357  -0.475 -16.601  0.00  0.00    +0.005 A 
ATOM     14  C   UNL     1       9.593  -2.734 -18.041  0.00  0.00    +0.000 A 
ATOM     15  C   UNL     1       9.542  -0.346 -17.725  0.00  0.00    +0.000 A 
ATOM     16  C   UNL     1       9.158  -1.476 -18.444  0.00  0.00    +0.000 A 
ENDBRANCH  10  11
ENDBRANCH   1  10
TORSDOF 2
ENDMDL
MODEL 8
REMARK VINA RESULT:    -4.732     11.184     12.282
REMARK INTER + INTRA:          -5.449
REMARK INTER:                  -5.386
REMARK INTRA:                  -0.064
REMARK UNBOUND:                -0.164
REMARK  Name = 1550473
REMARK  2 active torsions:
REMARK  status: ('A' for Active; 'I' for Inactive)
REMARK    1  A    between atoms: N_1  and  C_4
REMARK    2  A    between atoms: C_4  and  C_5
REMARK                            x       y       z     vdW  Elec       q    Type
REMARK                         _______ _______ _______ _____ _____    ______ ____
ROOT
ATOM      1  N   UNL     1     -11.942  -4.853 -15.119  0.00  0.00    -0.354 N 
ATOM      2  N   UNL     1     -13.638  -5.310 -16.629  0.00  0.00    -0.372 N 
ATOM      3  N   UNL     1     -14.185  -4.447 -14.574  0.00  0.00    -0.372 N 
ATOM      4  C   UNL     1     -13.245  -4.866 -15.428  0.00  0.00    +0.166 C 
ATOM      5  H   UNL     1     -11.282  -5.212 -15.800  0.00  0.00    +0.163 HD
ATOM      6  H   UNL     1     -14.615  -5.328 -16.891  0.00  0.00    +0.159 HD
ATOM      7  H   UNL     1     -12.973  -5.625 -17.324  0.00  0.00    +0.159 HD
ATOM      8  H   UNL     1     -13.954  -4.107 -13.650  0.00  0.00    +0.159 HD
ATOM      9  H   UNL     1     -15.168  -4.469 -14.814  0.00  0.00    +0.159 HD
ENDROOT
BRANCH   1  10
ATOM     10  C   UNL     1     -11.405  -4.340 -13.860  0.00  0.00    +0.151 C 
BRANCH  10  11
ATOM     11  C   UNL     1     -10.947  -5.496 -13.014  0.00  0.00    -0.028 A 
ATOM     12  C   UNL     1      -9.757  -5.410 -12.276  0.00  0.00    +0.005 A 
ATOM     13  C   UNL     1     -11.700  -6.678 -12.943  0.00  0.00    +0.005 A 
ATOM     14  C   UNL     1      -9.346  -6.472 -11.467  0.00  0.00    +0.000 A 
ATOM     15  C   UNL     1     -11.285  -7.736 -12.134  0.00  0.00    +0.000 A 
ATOM     16  C   UNL     1     -10.110  -7.632 -11.395  0.00  0.00    +0.000 A 
ENDBRANCH  10  11
ENDBRANCH   1  10
TORSDOF 2
ENDMDL
MODEL 9
REMARK VINA RESULT:    -4.402     10.469     11.238
REMARK INTER + INTRA:          -5.080
REMARK INTER:                  -4.973
REMARK INTRA:                  -0.107
REMARK UNBOUND:                -0.164
REMARK  Name = 1550473
REMARK  2 active torsions:
REMARK  status: ('A' for Active; 'I' for Inactive)
REMARK    1  A    between atoms: N_1  and  C_4
REMARK    2  A    between atoms: C_4  and  C_5
REMARK                            x       y       z     vdW  Elec       q    Type
REMARK                         _______ _______ _______ _____ _____    ______ ____
ROOT
ATOM      1  N   UNL     1     -11.935  -2.860 -17.925  0.00  0.00    -0.354 N 
ATOM      2  N   UNL     1     -12.462  -0.950 -19.124  0.00  0.00    -0.372 N 
ATOM      3  N   UNL     1     -10.412  -1.929 -19.444  0.00  0.00    -0.372 N 
ATOM      4  C   UNL     1     -11.597  -1.926 -18.824  0.00  0.00    +0.166 C 
ATOM      5  H   UNL     1     -12.836  -2.784 -17.468  0.00  0.00    +0.163 HD
ATOM      6  H   UNL     1     -12.237  -0.233 -19.801  0.00  0.00    +0.159 HD
ATOM      7  H   UNL     1     -13.381  -0.903 -18.700  0.00  0.00    +0.159 HD
ATOM      8  H   UNL     1      -9.712  -2.634 -19.258  0.00  0.00    +0.159 HD
ATOM      9  H   UNL     1     -10.163  -1.213 -20.116  0.00  0.00    +0.159 HD
ENDROOT
BRANCH   1  10
ATOM     10  C   UNL     1     -11.086  -3.995 -17.567  0.00  0.00    +0.151 C 
BRANCH  10  11
ATOM     11  C   UNL     1     -11.217  -4.261 -16.093  0.00  0.00    -0.028 A 
ATOM     12  C   UNL     1     -10.299  -3.712 -15.186  0.00  0.00    +0.005 A 
ATOM     13  C   UNL     1     -12.261  -5.057 -15.597  0.00  0.00    +0.005 A 
ATOM     14  C   UNL     1     -10.439  -3.935 -13.814  0.00  0.00    +0.000 A 
ATOM     15  C   UNL     1     -12.396  -5.277 -14.226  0.00  0.00    +0.000 A 
ATOM     16  C   UNL     1     -11.487  -4.714 -13.335  0.00  0.00    +0.000 A 
ENDBRANCH  10  11
ENDBRANCH   1  10
TORSDOF 2
ENDMDL
