MODEL 1
REMARK VINA RESULT:    -5.651      0.000      0.000
REMARK INTER + INTRA:          -6.409
REMARK INTER:                  -6.312
REMARK INTRA:                  -0.097
REMARK UNBOUND:                -0.097
REMARK  Name = 1550473
REMARK  2 active torsions:
REMARK  status: ('A' for Active; 'I' for Inactive)
REMARK    1  A    between atoms: N_1  and  C_4
REMARK    2  A    between atoms: C_4  and  C_5
REMARK                            x       y       z     vdW  Elec       q    Type
REMARK                         _______ _______ _______ _____ _____    ______ ____
ROOT
ATOM      1  N   UNL     1      -6.322  -4.019  17.481  0.00  0.00    -0.354 N 
ATOM      2  N   UNL     1      -4.539  -3.711  18.926  0.00  0.00    -0.372 N 
ATOM      3  N   UNL     1      -6.674  -3.589  19.757  0.00  0.00    -0.372 N 
ATOM      4  C   UNL     1      -5.859  -3.774  18.713  0.00  0.00    +0.166 C 
ATOM      5  H   UNL     1      -5.653  -4.120  16.726  0.00  0.00    +0.163 HD
ATOM      6  H   UNL     1      -4.159  -3.531  19.846  0.00  0.00    +0.159 HD
ATOM      7  H   UNL     1      -3.871  -3.858  18.178  0.00  0.00    +0.159 HD
ATOM      8  H   UNL     1      -7.680  -3.619  19.663  0.00  0.00    +0.159 HD
ATOM      9  H   UNL     1      -6.313  -3.397  20.684  0.00  0.00    +0.159 HD
ENDROOT
BRANCH   1  10
ATOM     10  C   UNL     1      -7.740  -4.162  17.153  0.00  0.00    +0.151 C 
BRANCH  10  11
ATOM     11  C   UNL     1      -7.946  -3.824  15.703  0.00  0.00    -0.028 A 
ATOM     12  C   UNL     1      -7.832  -4.815  14.717  0.00  0.00    +0.005 A 
ATOM     13  C   UNL     1      -8.260  -2.514  15.308  0.00  0.00    +0.005 A 
ATOM     14  C   UNL     1      -8.053  -4.507  13.373  0.00  0.00    +0.000 A 
ATOM     15  C   UNL     1      -8.478  -2.211  13.964  0.00  0.00    +0.000 A 
ATOM     16  C   UNL     1      -8.377  -3.208  12.997  0.00  0.00    +0.000 A 
ENDBRANCH  10  11
ENDBRANCH   1  10
TORSDOF 2
ENDMDL
MODEL 2
REMARK VINA RESULT:    -5.594     12.012     13.528
REMARK INTER + INTRA:          -6.345
REMARK INTER:                  -6.229
REMARK INTRA:                  -0.116
REMARK UNBOUND:                -0.097
REMARK  Name = 1550473
REMARK  2 active torsions:
REMARK  status: ('A' for Active; 'I' for Inactive)
REMARK    1  A    between atoms: N_1  and  C_4
REMARK    2  A    between atoms: C_4  and  C_5
REMARK                            x       y       z     vdW  Elec       q    Type
REMARK                         _______ _______ _______ _____ _____    ______ ____
ROOT
ATOM      1  N   UNL     1       3.017 -14.172  16.720  0.00  0.00    -0.354 N 
ATOM      2  N   UNL     1       3.640 -13.712  14.537  0.00  0.00    -0.372 N 
ATOM      3  N   UNL     1       3.919 -12.089  16.136  0.00  0.00    -0.372 N 
ATOM      4  C   UNL     1       3.522 -13.325  15.813  0.00  0.00    +0.166 C 
ATOM      5  H   UNL     1       2.706 -15.084  16.406  0.00  0.00    +0.163 HD
ATOM      6  H   UNL     1       4.020 -13.096  13.831  0.00  0.00    +0.159 HD
ATOM      7  H   UNL     1       3.371 -14.640  14.235  0.00  0.00    +0.159 HD
ATOM      8  H   UNL     1       3.851 -11.734  17.080  0.00  0.00    +0.159 HD
ATOM      9  H   UNL     1       4.291 -11.454  15.441  0.00  0.00    +0.159 HD
ENDROOT
BRANCH   1  10
ATOM     10  C   UNL     1       2.896 -13.867  18.145  0.00  0.00    +0.151 C 
BRANCH  10  11
ATOM     11  C   UNL     1       1.605 -13.134  18.382  0.00  0.00    -0.028 A 
ATOM     12  C   UNL     1       0.387 -13.679  17.950  0.00  0.00    +0.005 A 
ATOM     13  C   UNL     1       1.592 -11.897  19.045  0.00  0.00    +0.005 A 
ATOM     14  C   UNL     1      -0.816 -13.012  18.197  0.00  0.00    +0.000 A 
ATOM     15  C   UNL     1       0.389 -11.235  19.289  0.00  0.00    +0.000 A 
ATOM     16  C   UNL     1      -0.815 -11.794  18.867  0.00  0.00    +0.000 A 
ENDBRANCH  10  11
ENDBRANCH   1  10
TORSDOF 2
ENDMDL
MODEL 3
REMARK VINA RESULT:    -5.506     13.742     15.171
REMARK INTER + INTRA:          -6.246
REMARK INTER:                  -6.114
REMARK INTRA:                  -0.132
REMARK UNBOUND:                -0.097
REMARK  Name = 1550473
REMARK  2 active torsions:
REMARK  status: ('A' for Active; 'I' for Inactive)
REMARK    1  A    between atoms: N_1  and  C_4
REMARK    2  A    between atoms: C_4  and  C_5
REMARK                            x       y       z     vdW  Elec       q    Type
REMARK                         _______ _______ _______ _____ _____    ______ ____
ROOT
ATOM      1  N   UNL     1       4.155 -12.760  14.323  0.00  0.00    -0.354 N 
ATOM      2  N   UNL     1       4.204 -12.209  12.074  0.00  0.00    -0.372 N 
ATOM      3  N   UNL     1       5.614 -13.846  12.846  0.00  0.00    -0.372 N 
ATOM      4  C   UNL     1       4.660 -12.944  13.096  0.00  0.00    +0.166 C 
ATOM      5  H   UNL     1       3.454 -12.039  14.453  0.00  0.00    +0.163 HD
ATOM      6  H   UNL     1       4.564 -12.328  11.137  0.00  0.00    +0.159 HD
ATOM      7  H   UNL     1       3.472 -11.521  12.198  0.00  0.00    +0.159 HD
ATOM      8  H   UNL     1       6.005 -14.429  13.575  0.00  0.00    +0.159 HD
ATOM      9  H   UNL     1       5.995 -13.972  11.917  0.00  0.00    +0.159 HD
ENDROOT
BRANCH   1  10
ATOM     10  C   UNL     1       4.543 -13.546  15.493  0.00  0.00    +0.151 C 
BRANCH  10  11
ATOM     11  C   UNL     1       3.364 -13.665  16.419  0.00  0.00    -0.028 A 
ATOM     12  C   UNL     1       2.075 -13.335  15.975  0.00  0.00    +0.005 A 
ATOM     13  C   UNL     1       3.528 -14.113  17.738  0.00  0.00    +0.005 A 
ATOM     14  C   UNL     1       0.975 -13.475  16.825  0.00  0.00    +0.000 A 
ATOM     15  C   UNL     1       2.427 -14.250  18.584  0.00  0.00    +0.000 A 
ATOM     16  C   UNL     1       1.151 -13.933  18.126  0.00  0.00    +0.000 A 
ENDBRANCH  10  11
ENDBRANCH   1  10
TORSDOF 2
ENDMDL
MODEL 4
REMARK VINA RESULT:    -5.445     12.798     14.216
REMARK INTER + INTRA:          -6.178
REMARK INTER:                  -6.063
REMARK INTRA:                  -0.115
REMARK UNBOUND:                -0.097
REMARK  Name = 1550473
REMARK  2 active torsions:
REMARK  status: ('A' for Active; 'I' for Inactive)
REMARK    1  A    between atoms: N_1  and  C_4
REMARK    2  A    between atoms: C_4  and  C_5
REMARK                            x       y       z     vdW  Elec       q    Type
REMARK                         _______ _______ _______ _____ _____    ______ ____
ROOT
ATOM      1  N   UNL     1       3.395 -13.399  14.933  0.00  0.00    -0.354 N 
ATOM      2  N   UNL     1       4.517 -12.659  13.046  0.00  0.00    -0.372 N 
ATOM      3  N   UNL     1       5.737 -13.421  14.834  0.00  0.00    -0.372 N 
ATOM      4  C   UNL     1       4.544 -13.165  14.285  0.00  0.00    +0.166 C 
ATOM      5  H   UNL     1       2.526 -13.155  14.473  0.00  0.00    +0.163 HD
ATOM      6  H   UNL     1       5.367 -12.476  12.531  0.00  0.00    +0.159 HD
ATOM      7  H   UNL     1       3.644 -12.460  12.571  0.00  0.00    +0.159 HD
ATOM      8  H   UNL     1       5.826 -13.798  15.768  0.00  0.00    +0.159 HD
ATOM      9  H   UNL     1       6.600 -13.233  14.339  0.00  0.00    +0.159 HD
ENDROOT
BRANCH   1  10
ATOM     10  C   UNL     1       3.315 -13.998  16.264  0.00  0.00    +0.151 C 
BRANCH  10  11
ATOM     11  C   UNL     1       2.083 -13.485  16.959  0.00  0.00    -0.028 A 
ATOM     12  C   UNL     1       2.113 -13.182  18.328  0.00  0.00    +0.005 A 
ATOM     13  C   UNL     1       0.886 -13.295  16.253  0.00  0.00    +0.005 A 
ATOM     14  C   UNL     1       0.978 -12.678  18.968  0.00  0.00    +0.000 A 
ATOM     15  C   UNL     1      -0.246 -12.793  16.895  0.00  0.00    +0.000 A 
ATOM     16  C   UNL     1      -0.198 -12.481  18.252  0.00  0.00    +0.000 A 
ENDBRANCH  10  11
ENDBRANCH   1  10
TORSDOF 2
ENDMDL
MODEL 5
REMARK VINA RESULT:    -5.387     12.332     13.798
REMARK INTER + INTRA:          -6.114
REMARK INTER:                  -5.954
REMARK INTRA:                  -0.160
REMARK UNBOUND:                -0.097
REMARK  Name = 1550473
REMARK  2 active torsions:
REMARK  status: ('A' for Active; 'I' for Inactive)
REMARK    1  A    between atoms: N_1  and  C_4
REMARK    2  A    between atoms: C_4  and  C_5
REMARK                            x       y       z     vdW  Elec       q    Type
REMARK                         _______ _______ _______ _____ _____    ______ ____
ROOT
ATOM      1  N   UNL     1       3.020 -13.729  17.211  0.00  0.00    -0.354 N 
ATOM      2  N   UNL     1       3.606 -13.510  14.981  0.00  0.00    -0.372 N 
ATOM      3  N   UNL     1       1.407 -13.884  15.518  0.00  0.00    -0.372 N 
ATOM      4  C   UNL     1       2.671 -13.710  15.917  0.00  0.00    +0.166 C 
ATOM      5  H   UNL     1       4.000 -13.620  17.446  0.00  0.00    +0.163 HD
ATOM      6  H   UNL     1       3.373 -13.486  13.997  0.00  0.00    +0.159 HD
ATOM      7  H   UNL     1       4.578 -13.356  15.222  0.00  0.00    +0.159 HD
ATOM      8  H   UNL     1       0.655 -14.045  16.175  0.00  0.00    +0.159 HD
ATOM      9  H   UNL     1       1.155 -13.876  14.537  0.00  0.00    +0.159 HD
ENDROOT
BRANCH   1  10
ATOM     10  C   UNL     1       2.071 -13.886  18.311  0.00  0.00    +0.151 C 
BRANCH  10  11
ATOM     11  C   UNL     1       1.970 -12.586  19.061  0.00  0.00    -0.028 A 
ATOM     12  C   UNL     1       3.078 -12.075  19.752  0.00  0.00    +0.005 A 
ATOM     13  C   UNL     1       0.770 -11.859  19.080  0.00  0.00    +0.005 A 
ATOM     14  C   UNL     1       2.993 -10.853  20.424  0.00  0.00    +0.000 A 
ATOM     15  C   UNL     1       0.689 -10.639  19.752  0.00  0.00    +0.000 A 
ATOM     16  C   UNL     1       1.801 -10.136  20.422  0.00  0.00    +0.000 A 
ENDBRANCH  10  11
ENDBRANCH   1  10
TORSDOF 2
ENDMDL
MODEL 6
REMARK VINA RESULT:    -5.175     12.124     13.269
REMARK INTER + INTRA:          -5.876
REMARK INTER:                  -5.746
REMARK INTRA:                  -0.131
REMARK UNBOUND:                -0.097
REMARK  Name = 1550473
REMARK  2 active torsions:
REMARK  status: ('A' for Active; 'I' for Inactive)
REMARK    1  A    between atoms: N_1  and  C_4
REMARK    2  A    between atoms: C_4  and  C_5
REMARK                            x       y       z     vdW  Elec       q    Type
REMARK                         _______ _______ _______ _____ _____    ______ ____
ROOT
ATOM      1  N   UNL     1       2.090 -12.015  15.935  0.00  0.00    -0.354 N 
ATOM      2  N   UNL     1       3.472 -13.585  14.940  0.00  0.00    -0.372 N 
ATOM      3  N   UNL     1       2.436 -14.115  16.917  0.00  0.00    -0.372 N 
ATOM      4  C   UNL     1       2.656 -13.229  15.940  0.00  0.00    +0.166 C 
ATOM      5  H   UNL     1       2.322 -11.379  15.180  0.00  0.00    +0.163 HD
ATOM      6  H   UNL     1       3.911 -14.496  14.915  0.00  0.00    +0.159 HD
ATOM      7  H   UNL     1       3.666 -12.964  14.164  0.00  0.00    +0.159 HD
ATOM      8  H   UNL     1       1.835 -13.905  17.703  0.00  0.00    +0.159 HD
ATOM      9  H   UNL     1       2.875 -15.027  16.916  0.00  0.00    +0.159 HD
ENDROOT
BRANCH   1  10
ATOM     10  C   UNL     1       1.145 -11.550  16.948  0.00  0.00    +0.151 C 
BRANCH  10  11
ATOM     11  C   UNL     1       1.895 -10.792  18.008  0.00  0.00    -0.028 A 
ATOM     12  C   UNL     1       1.451 -10.801  19.339  0.00  0.00    +0.005 A 
ATOM     13  C   UNL     1       3.053 -10.066  17.690  0.00  0.00    +0.005 A 
ATOM     14  C   UNL     1       2.164 -10.122  20.329  0.00  0.00    +0.000 A 
ATOM     15  C   UNL     1       3.762  -9.388  18.682  0.00  0.00    +0.000 A 
ATOM     16  C   UNL     1       3.318  -9.418  20.002  0.00  0.00    +0.000 A 
ENDBRANCH  10  11
ENDBRANCH   1  10
TORSDOF 2
ENDMDL
MODEL 7
REMARK VINA RESULT:    -5.157     11.748     13.180
REMARK INTER + INTRA:          -5.857
REMARK INTER:                  -5.709
REMARK INTRA:                  -0.148
REMARK UNBOUND:                -0.097
REMARK  Name = 1550473
REMARK  2 active torsions:
REMARK  status: ('A' for Active; 'I' for Inactive)
REMARK    1  A    between atoms: N_1  and  C_4
REMARK    2  A    between atoms: C_4  and  C_5
REMARK                            x       y       z     vdW  Elec       q    Type
REMARK                         _______ _______ _______ _____ _____    ______ ____
ROOT
ATOM      1  N   UNL     1       4.169 -11.853  18.563  0.00  0.00    -0.354 N 
ATOM      2  N   UNL     1       5.710 -10.897  17.123  0.00  0.00    -0.372 N 
ATOM      3  N   UNL     1       4.616  -9.554  18.628  0.00  0.00    -0.372 N 
ATOM      4  C   UNL     1       4.821 -10.772  18.115  0.00  0.00    +0.166 C 
ATOM      5  H   UNL     1       4.347 -12.743  18.112  0.00  0.00    +0.163 HD
ATOM      6  H   UNL     1       6.220 -10.099  16.766  0.00  0.00    +0.159 HD
ATOM      7  H   UNL     1       5.920 -11.795  16.705  0.00  0.00    +0.159 HD
ATOM      8  H   UNL     1       3.954  -9.391  19.374  0.00  0.00    +0.159 HD
ATOM      9  H   UNL     1       5.108  -8.741  18.276  0.00  0.00    +0.159 HD
ENDROOT
BRANCH   1  10
ATOM     10  C   UNL     1       3.220 -11.834  19.675  0.00  0.00    +0.151 C 
BRANCH  10  11
ATOM     11  C   UNL     1       1.852 -12.187  19.160  0.00  0.00    -0.028 A 
ATOM     12  C   UNL     1       1.625 -13.419  18.528  0.00  0.00    +0.005 A 
ATOM     13  C   UNL     1       0.778 -11.296  19.305  0.00  0.00    +0.005 A 
ATOM     14  C   UNL     1       0.348 -13.759  18.076  0.00  0.00    +0.000 A 
ATOM     15  C   UNL     1      -0.496 -11.640  18.852  0.00  0.00    +0.000 A 
ATOM     16  C   UNL     1      -0.711 -12.873  18.240  0.00  0.00    +0.000 A 
ENDBRANCH  10  11
ENDBRANCH   1  10
TORSDOF 2
ENDMDL
MODEL 8
REMARK VINA RESULT:    -5.134     11.988     13.501
REMARK INTER + INTRA:          -5.831
REMARK INTER:                  -5.660
REMARK INTRA:                  -0.171
REMARK UNBOUND:                -0.097
REMARK  Name = 1550473
REMARK  2 active torsions:
REMARK  status: ('A' for Active; 'I' for Inactive)
REMARK    1  A    between atoms: N_1  and  C_4
REMARK    2  A    between atoms: C_4  and  C_5
REMARK                            x       y       z     vdW  Elec       q    Type
REMARK                         _______ _______ _______ _____ _____    ______ ____
ROOT
ATOM      1  N   UNL     1       4.003 -12.369  18.512  0.00  0.00    -0.354 N 
ATOM      2  N   UNL     1       5.296 -11.199  16.988  0.00  0.00    -0.372 N 
ATOM      3  N   UNL     1       4.264 -13.134  16.313  0.00  0.00    -0.372 N 
ATOM      4  C   UNL     1       4.512 -12.244  17.279  0.00  0.00    +0.166 C 
ATOM      5  H   UNL     1       4.254 -11.676  19.209  0.00  0.00    +0.163 HD
ATOM      6  H   UNL     1       5.691 -11.076  16.065  0.00  0.00    +0.159 HD
ATOM      7  H   UNL     1       5.507 -10.483  17.673  0.00  0.00    +0.159 HD
ATOM      8  H   UNL     1       3.685 -13.948  16.470  0.00  0.00    +0.159 HD
ATOM      9  H   UNL     1       4.660 -13.035  15.386  0.00  0.00    +0.159 HD
ENDROOT
BRANCH   1  10
ATOM     10  C   UNL     1       3.096 -13.440  18.918  0.00  0.00    +0.151 C 
BRANCH  10  11
ATOM     11  C   UNL     1       1.678 -12.949  18.811  0.00  0.00    -0.028 A 
ATOM     12  C   UNL     1       1.326 -11.681  19.295  0.00  0.00    +0.005 A 
ATOM     13  C   UNL     1       0.684 -13.746  18.223  0.00  0.00    +0.005 A 
ATOM     14  C   UNL     1       0.015 -11.212  19.169  0.00  0.00    +0.000 A 
ATOM     15  C   UNL     1      -0.623 -13.275  18.100  0.00  0.00    +0.000 A 
ATOM     16  C   UNL     1      -0.957 -12.007  18.571  0.00  0.00    +0.000 A 
ENDBRANCH  10  11
ENDBRANCH   1  10
TORSDOF 2
ENDMDL
MODEL 9
REMARK VINA RESULT:    -4.989      1.178      2.023
REMARK INTER + INTRA:          -5.669
REMARK INTER:                  -5.511
REMARK INTRA:                  -0.158
REMARK UNBOUND:                -0.097
REMARK  Name = 1550473
REMARK  2 active torsions:
REMARK  status: ('A' for Active; 'I' for Inactive)
REMARK    1  A    between atoms: N_1  and  C_4
REMARK    2  A    between atoms: C_4  and  C_5
REMARK                            x       y       z     vdW  Elec       q    Type
REMARK                         _______ _______ _______ _____ _____    ______ ____
ROOT
ATOM      1  N   UNL     1      -6.011  -5.193  18.123  0.00  0.00    -0.354 N 
ATOM      2  N   UNL     1      -3.789  -5.244  18.775  0.00  0.00    -0.372 N 
ATOM      3  N   UNL     1      -4.864  -3.220  18.656  0.00  0.00    -0.372 N 
ATOM      4  C   UNL     1      -4.903  -4.549  18.514  0.00  0.00    +0.166 C 
ATOM      5  H   UNL     1      -5.967  -6.199  18.004  0.00  0.00    +0.163 HD
ATOM      6  H   UNL     1      -2.939  -4.786  19.074  0.00  0.00    +0.159 HD
ATOM      7  H   UNL     1      -3.761  -6.254  18.700  0.00  0.00    +0.159 HD
ATOM      8  H   UNL     1      -5.670  -2.638  18.469  0.00  0.00    +0.159 HD
ATOM      9  H   UNL     1      -4.019  -2.743  18.944  0.00  0.00    +0.159 HD
ENDROOT
BRANCH   1  10
ATOM     10  C   UNL     1      -7.291  -4.536  17.866  0.00  0.00    +0.151 C 
BRANCH  10  11
ATOM     11  C   UNL     1      -7.565  -4.556  16.387  0.00  0.00    -0.028 A 
ATOM     12  C   UNL     1      -8.089  -3.425  15.745  0.00  0.00    +0.005 A 
ATOM     13  C   UNL     1      -7.299  -5.702  15.622  0.00  0.00    +0.005 A 
ATOM     14  C   UNL     1      -8.316  -3.433  14.367  0.00  0.00    +0.000 A 
ATOM     15  C   UNL     1      -7.528  -5.707  14.247  0.00  0.00    +0.000 A 
ATOM     16  C   UNL     1      -8.034  -4.571  13.619  0.00  0.00    +0.000 A 
ENDBRANCH  10  11
ENDBRANCH   1  10
TORSDOF 2
ENDMDL
