MODEL 1
REMARK VINA RESULT:    -6.220      0.000      0.000
REMARK INTER + INTRA:          -7.115
REMARK INTER:                  -6.947
REMARK INTRA:                  -0.167
REMARK UNBOUND:                -0.167
REMARK  Name = 1550473
REMARK  2 active torsions:
REMARK  status: ('A' for Active; 'I' for Inactive)
REMARK    1  A    between atoms: N_1  and  C_4
REMARK    2  A    between atoms: C_4  and  C_5
REMARK                            x       y       z     vdW  Elec       q    Type
REMARK                         _______ _______ _______ _____ _____    ______ ____
ROOT
ATOM      1  N   UNL     1       1.772   0.040  -5.499  0.00  0.00    -0.354 N 
ATOM      2  N   UNL     1       2.861   0.652  -3.549  0.00  0.00    -0.372 N 
ATOM      3  N   UNL     1       1.774   2.266  -4.765  0.00  0.00    -0.372 N 
ATOM      4  C   UNL     1       2.128   0.985  -4.618  0.00  0.00    +0.166 C 
ATOM      5  H   UNL     1       2.098  -0.908  -5.346  0.00  0.00    +0.163 HD
ATOM      6  H   UNL     1       3.142   1.343  -2.865  0.00  0.00    +0.159 HD
ATOM      7  H   UNL     1       3.147  -0.303  -3.375  0.00  0.00    +0.159 HD
ATOM      8  H   UNL     1       1.225   2.582  -5.554  0.00  0.00    +0.159 HD
ATOM      9  H   UNL     1       2.055   2.973  -4.098  0.00  0.00    +0.159 HD
ENDROOT
BRANCH   1  10
ATOM     10  C   UNL     1       0.929   0.287  -6.667  0.00  0.00    +0.151 C 
BRANCH  10  11
ATOM     11  C   UNL     1      -0.505   0.018  -6.304  0.00  0.00    -0.028 A 
ATOM     12  C   UNL     1      -0.857  -1.151  -5.615  0.00  0.00    +0.005 A 
ATOM     13  C   UNL     1      -1.516   0.931  -6.642  0.00  0.00    +0.005 A 
ATOM     14  C   UNL     1      -2.185  -1.387  -5.251  0.00  0.00    +0.000 A 
ATOM     15  C   UNL     1      -2.840   0.691  -6.278  0.00  0.00    +0.000 A 
ATOM     16  C   UNL     1      -3.174  -0.467  -5.580  0.00  0.00    +0.000 A 
ENDBRANCH  10  11
ENDBRANCH   1  10
TORSDOF 2
ENDMDL
MODEL 2
REMARK VINA RESULT:    -6.035      2.131      3.548
REMARK INTER + INTRA:          -6.908
REMARK INTER:                  -6.768
REMARK INTRA:                  -0.140
REMARK UNBOUND:                -0.167
REMARK  Name = 1550473
REMARK  2 active torsions:
REMARK  status: ('A' for Active; 'I' for Inactive)
REMARK    1  A    between atoms: N_1  and  C_4
REMARK    2  A    between atoms: C_4  and  C_5
REMARK                            x       y       z     vdW  Elec       q    Type
REMARK                         _______ _______ _______ _____ _____    ______ ____
ROOT
ATOM      1  N   UNL     1       3.879  -0.759  -3.643  0.00  0.00    -0.354 N 
ATOM      2  N   UNL     1       5.666   0.327  -2.648  0.00  0.00    -0.372 N 
ATOM      3  N   UNL     1       4.086  -0.662  -1.311  0.00  0.00    -0.372 N 
ATOM      4  C   UNL     1       4.531  -0.372  -2.538  0.00  0.00    +0.166 C 
ATOM      5  H   UNL     1       4.253  -0.482  -4.544  0.00  0.00    +0.163 HD
ATOM      6  H   UNL     1       6.182   0.629  -1.832  0.00  0.00    +0.159 HD
ATOM      7  H   UNL     1       6.062   0.563  -3.550  0.00  0.00    +0.159 HD
ATOM      8  H   UNL     1       3.232  -1.182  -1.160  0.00  0.00    +0.159 HD
ATOM      9  H   UNL     1       4.581  -0.358  -0.482  0.00  0.00    +0.159 HD
ENDROOT
BRANCH   1  10
ATOM     10  C   UNL     1       2.663  -1.570  -3.634  0.00  0.00    +0.151 C 
BRANCH  10  11
ATOM     11  C   UNL     1       1.683  -0.997  -4.620  0.00  0.00    -0.028 A 
ATOM     12  C   UNL     1       2.014   0.137  -5.376  0.00  0.00    +0.005 A 
ATOM     13  C   UNL     1       0.424  -1.588  -4.808  0.00  0.00    +0.005 A 
ATOM     14  C   UNL     1       1.116   0.652  -6.314  0.00  0.00    +0.000 A 
ATOM     15  C   UNL     1      -0.470  -1.070  -5.745  0.00  0.00    +0.000 A 
ATOM     16  C   UNL     1      -0.123   0.048  -6.499  0.00  0.00    +0.000 A 
ENDBRANCH  10  11
ENDBRANCH   1  10
TORSDOF 2
ENDMDL
MODEL 3
REMARK VINA RESULT:    -5.985      1.667      2.496
REMARK INTER + INTRA:          -6.852
REMARK INTER:                  -6.762
REMARK INTRA:                  -0.091
REMARK UNBOUND:                -0.167
REMARK  Name = 1550473
REMARK  2 active torsions:
REMARK  status: ('A' for Active; 'I' for Inactive)
REMARK    1  A    between atoms: N_1  and  C_4
REMARK    2  A    between atoms: C_4  and  C_5
REMARK                            x       y       z     vdW  Elec       q    Type
REMARK                         _______ _______ _______ _____ _____    ______ ____
ROOT
ATOM      1  N   UNL     1       2.764  -0.099  -3.388  0.00  0.00    -0.354 N 
ATOM      2  N   UNL     1       3.929   0.417  -1.454  0.00  0.00    -0.372 N 
ATOM      3  N   UNL     1       5.073  -0.470  -3.234  0.00  0.00    -0.372 N 
ATOM      4  C   UNL     1       3.916  -0.055  -2.707  0.00  0.00    +0.166 C 
ATOM      5  H   UNL     1       1.916   0.202  -2.921  0.00  0.00    +0.163 HD
ATOM      6  H   UNL     1       4.783   0.466  -0.916  0.00  0.00    +0.159 HD
ATOM      7  H   UNL     1       3.088   0.760  -1.006  0.00  0.00    +0.159 HD
ATOM      8  H   UNL     1       5.130  -0.842  -4.173  0.00  0.00    +0.159 HD
ATOM      9  H   UNL     1       5.937  -0.440  -2.708  0.00  0.00    +0.159 HD
ENDROOT
BRANCH   1  10
ATOM     10  C   UNL     1       2.651  -0.545  -4.776  0.00  0.00    +0.151 C 
BRANCH  10  11
ATOM     11  C   UNL     1       1.216  -0.435  -5.212  0.00  0.00    -0.028 A 
ATOM     12  C   UNL     1       0.336  -1.513  -5.040  0.00  0.00    +0.005 A 
ATOM     13  C   UNL     1       0.730   0.746  -5.794  0.00  0.00    +0.005 A 
ATOM     14  C   UNL     1      -1.005  -1.401  -5.418  0.00  0.00    +0.000 A 
ATOM     15  C   UNL     1      -0.609   0.853  -6.170  0.00  0.00    +0.000 A 
ATOM     16  C   UNL     1      -1.476  -0.220  -5.980  0.00  0.00    +0.000 A 
ENDBRANCH  10  11
ENDBRANCH   1  10
TORSDOF 2
ENDMDL
MODEL 4
REMARK VINA RESULT:    -5.624     15.409     16.996
REMARK INTER + INTRA:          -6.448
REMARK INTER:                  -6.325
REMARK INTRA:                  -0.123
REMARK UNBOUND:                -0.167
REMARK  Name = 1550473
REMARK  2 active torsions:
REMARK  status: ('A' for Active; 'I' for Inactive)
REMARK    1  A    between atoms: N_1  and  C_4
REMARK    2  A    between atoms: C_4  and  C_5
REMARK                            x       y       z     vdW  Elec       q    Type
REMARK                         _______ _______ _______ _____ _____    ______ ____
ROOT
ATOM      1  N   UNL     1       4.026  -8.761   6.231  0.00  0.00    -0.354 N 
ATOM      2  N   UNL     1       3.659  -9.713   4.152  0.00  0.00    -0.372 N 
ATOM      3  N   UNL     1       5.017  -7.869   4.304  0.00  0.00    -0.372 N 
ATOM      4  C   UNL     1       4.238  -8.773   4.908  0.00  0.00    +0.166 C 
ATOM      5  H   UNL     1       3.401  -9.455   6.625  0.00  0.00    +0.163 HD
ATOM      6  H   UNL     1       3.803  -9.749   3.152  0.00  0.00    +0.159 HD
ATOM      7  H   UNL     1       3.071 -10.433   4.554  0.00  0.00    +0.159 HD
ATOM      8  H   UNL     1       5.478  -7.130   4.817  0.00  0.00    +0.159 HD
ATOM      9  H   UNL     1       5.164  -7.882   3.302  0.00  0.00    +0.159 HD
ENDROOT
BRANCH   1  10
ATOM     10  C   UNL     1       4.652  -7.813   7.151  0.00  0.00    +0.151 C 
BRANCH  10  11
ATOM     11  C   UNL     1       5.978  -8.364   7.597  0.00  0.00    -0.028 A 
ATOM     12  C   UNL     1       6.121  -9.729   7.887  0.00  0.00    +0.005 A 
ATOM     13  C   UNL     1       7.098  -7.528   7.727  0.00  0.00    +0.005 A 
ATOM     14  C   UNL     1       7.360 -10.247   8.273  0.00  0.00    +0.000 A 
ATOM     15  C   UNL     1       8.333  -8.048   8.113  0.00  0.00    +0.000 A 
ATOM     16  C   UNL     1       8.464  -9.408   8.383  0.00  0.00    +0.000 A 
ENDBRANCH  10  11
ENDBRANCH   1  10
TORSDOF 2
ENDMDL
MODEL 5
REMARK VINA RESULT:    -5.556      3.100      4.327
REMARK INTER + INTRA:          -6.373
REMARK INTER:                  -6.264
REMARK INTRA:                  -0.110
REMARK UNBOUND:                -0.167
REMARK  Name = 1550473
REMARK  2 active torsions:
REMARK  status: ('A' for Active; 'I' for Inactive)
REMARK    1  A    between atoms: N_1  and  C_4
REMARK    2  A    between atoms: C_4  and  C_5
REMARK                            x       y       z     vdW  Elec       q    Type
REMARK                         _______ _______ _______ _____ _____    ______ ____
ROOT
ATOM      1  N   UNL     1       3.706  -2.135  -2.648  0.00  0.00    -0.354 N 
ATOM      2  N   UNL     1       3.817  -2.878  -0.457  0.00  0.00    -0.372 N 
ATOM      3  N   UNL     1       5.071  -1.059  -1.076  0.00  0.00    -0.372 N 
ATOM      4  C   UNL     1       4.199  -2.017  -1.408  0.00  0.00    +0.166 C 
ATOM      5  H   UNL     1       3.072  -2.901  -2.843  0.00  0.00    +0.163 HD
ATOM      6  H   UNL     1       4.170  -2.812   0.488  0.00  0.00    +0.159 HD
ATOM      7  H   UNL     1       3.148  -3.615  -0.643  0.00  0.00    +0.159 HD
ATOM      8  H   UNL     1       5.404  -0.381  -1.749  0.00  0.00    +0.159 HD
ATOM      9  H   UNL     1       5.444  -0.983  -0.138  0.00  0.00    +0.159 HD
ENDROOT
BRANCH   1  10
ATOM     10  C   UNL     1       4.017  -1.217  -3.742  0.00  0.00    +0.151 C 
BRANCH  10  11
ATOM     11  C   UNL     1       2.825  -1.118  -4.654  0.00  0.00    -0.028 A 
ATOM     12  C   UNL     1       2.181  -2.276  -5.112  0.00  0.00    +0.005 A 
ATOM     13  C   UNL     1       2.331   0.132  -5.058  0.00  0.00    +0.005 A 
ATOM     14  C   UNL     1       1.055  -2.184  -5.934  0.00  0.00    +0.000 A 
ATOM     15  C   UNL     1       1.207   0.220  -5.880  0.00  0.00    +0.000 A 
ATOM     16  C   UNL     1       0.568  -0.938  -6.316  0.00  0.00    +0.000 A 
ENDBRANCH  10  11
ENDBRANCH   1  10
TORSDOF 2
ENDMDL
MODEL 6
REMARK VINA RESULT:    -5.410      3.819      4.943
REMARK INTER + INTRA:          -6.210
REMARK INTER:                  -6.074
REMARK INTRA:                  -0.136
REMARK UNBOUND:                -0.167
REMARK  Name = 1550473
REMARK  2 active torsions:
REMARK  status: ('A' for Active; 'I' for Inactive)
REMARK    1  A    between atoms: N_1  and  C_4
REMARK    2  A    between atoms: C_4  and  C_5
REMARK                            x       y       z     vdW  Elec       q    Type
REMARK                         _______ _______ _______ _____ _____    ______ ____
ROOT
ATOM      1  N   UNL     1       3.321  -2.724  -1.797  0.00  0.00    -0.354 N 
ATOM      2  N   UNL     1       5.394  -3.465  -1.077  0.00  0.00    -0.372 N 
ATOM      3  N   UNL     1       4.967  -1.210  -1.095  0.00  0.00    -0.372 N 
ATOM      4  C   UNL     1       4.547  -2.459  -1.328  0.00  0.00    +0.166 C 
ATOM      5  H   UNL     1       3.074  -3.689  -1.981  0.00  0.00    +0.163 HD
ATOM      6  H   UNL     1       6.324  -3.296  -0.719  0.00  0.00    +0.159 HD
ATOM      7  H   UNL     1       5.128  -4.432  -1.218  0.00  0.00    +0.159 HD
ATOM      8  H   UNL     1       4.379  -0.407  -1.269  0.00  0.00    +0.159 HD
ATOM      9  H   UNL     1       5.899  -1.020  -0.748  0.00  0.00    +0.159 HD
ENDROOT
BRANCH   1  10
ATOM     10  C   UNL     1       2.305  -1.704  -2.052  0.00  0.00    +0.151 C 
BRANCH  10  11
ATOM     11  C   UNL     1       1.904  -1.761  -3.500  0.00  0.00    -0.028 A 
ATOM     12  C   UNL     1       2.037  -0.631  -4.320  0.00  0.00    +0.005 A 
ATOM     13  C   UNL     1       1.396  -2.943  -4.059  0.00  0.00    +0.005 A 
ATOM     14  C   UNL     1       1.693  -0.692  -5.673  0.00  0.00    +0.000 A 
ATOM     15  C   UNL     1       1.053  -3.000  -5.410  0.00  0.00    +0.000 A 
ATOM     16  C   UNL     1       1.204  -1.875  -6.217  0.00  0.00    +0.000 A 
ENDBRANCH  10  11
ENDBRANCH   1  10
TORSDOF 2
ENDMDL
MODEL 7
REMARK VINA RESULT:    -5.319     15.116     16.996
REMARK INTER + INTRA:          -6.109
REMARK INTER:                  -5.936
REMARK INTRA:                  -0.173
REMARK UNBOUND:                -0.167
REMARK  Name = 1550473
REMARK  2 active torsions:
REMARK  status: ('A' for Active; 'I' for Inactive)
REMARK    1  A    between atoms: N_1  and  C_4
REMARK    2  A    between atoms: C_4  and  C_5
REMARK                            x       y       z     vdW  Elec       q    Type
REMARK                         _______ _______ _______ _____ _____    ______ ____
ROOT
ATOM      1  N   UNL     1       5.206  -7.184   5.888  0.00  0.00    -0.354 N 
ATOM      2  N   UNL     1       4.022  -8.447   4.349  0.00  0.00    -0.372 N 
ATOM      3  N   UNL     1       3.798  -8.924   6.582  0.00  0.00    -0.372 N 
ATOM      4  C   UNL     1       4.349  -8.178   5.619  0.00  0.00    +0.166 C 
ATOM      5  H   UNL     1       5.612  -6.675   5.111  0.00  0.00    +0.163 HD
ATOM      6  H   UNL     1       3.375  -9.188   4.115  0.00  0.00    +0.159 HD
ATOM      7  H   UNL     1       4.394  -7.907   3.577  0.00  0.00    +0.159 HD
ATOM      8  H   UNL     1       4.008  -8.776   7.560  0.00  0.00    +0.159 HD
ATOM      9  H   UNL     1       3.158  -9.678   6.367  0.00  0.00    +0.159 HD
ENDROOT
BRANCH   1  10
ATOM     10  C   UNL     1       5.586  -6.775   7.239  0.00  0.00    +0.151 C 
BRANCH  10  11
ATOM     11  C   UNL     1       6.994  -7.228   7.511  0.00  0.00    -0.028 A 
ATOM     12  C   UNL     1       8.076  -6.616   6.861  0.00  0.00    +0.005 A 
ATOM     13  C   UNL     1       7.253  -8.264   8.421  0.00  0.00    +0.005 A 
ATOM     14  C   UNL     1       9.386  -7.015   7.136  0.00  0.00    +0.000 A 
ATOM     15  C   UNL     1       8.563  -8.660   8.692  0.00  0.00    +0.000 A 
ATOM     16  C   UNL     1       9.629  -8.034   8.051  0.00  0.00    +0.000 A 
ENDBRANCH  10  11
ENDBRANCH   1  10
TORSDOF 2
ENDMDL
MODEL 8
REMARK VINA RESULT:    -5.272     17.347     18.304
REMARK INTER + INTRA:          -6.055
REMARK INTER:                  -5.913
REMARK INTRA:                  -0.142
REMARK UNBOUND:                -0.167
REMARK  Name = 1550473
REMARK  2 active torsions:
REMARK  status: ('A' for Active; 'I' for Inactive)
REMARK    1  A    between atoms: N_1  and  C_4
REMARK    2  A    between atoms: C_4  and  C_5
REMARK                            x       y       z     vdW  Elec       q    Type
REMARK                         _______ _______ _______ _____ _____    ______ ____
ROOT
ATOM      1  N   UNL     1       3.883 -12.611 -16.547  0.00  0.00    -0.354 N 
ATOM      2  N   UNL     1       2.823 -10.820 -17.562  0.00  0.00    -0.372 N 
ATOM      3  N   UNL     1       2.139 -11.474 -15.472  0.00  0.00    -0.372 N 
ATOM      4  C   UNL     1       2.954 -11.647 -16.518  0.00  0.00    +0.166 C 
ATOM      5  H   UNL     1       4.449 -12.709 -17.382  0.00  0.00    +0.163 HD
ATOM      6  H   UNL     1       2.133 -10.081 -17.567  0.00  0.00    +0.159 HD
ATOM      7  H   UNL     1       3.421 -10.891 -18.377  0.00  0.00    +0.159 HD
ATOM      8  H   UNL     1       2.183 -12.068 -14.655  0.00  0.00    +0.159 HD
ATOM      9  H   UNL     1       1.435 -10.747 -15.463  0.00  0.00    +0.159 HD
ENDROOT
BRANCH   1  10
ATOM     10  C   UNL     1       4.143 -13.530 -15.440  0.00  0.00    +0.151 C 
BRANCH  10  11
ATOM     11  C   UNL     1       3.298 -14.761 -15.615  0.00  0.00    -0.028 A 
ATOM     12  C   UNL     1       3.588 -15.686 -16.629  0.00  0.00    +0.005 A 
ATOM     13  C   UNL     1       2.209 -15.012 -14.766  0.00  0.00    +0.005 A 
ATOM     14  C   UNL     1       2.822 -16.845 -16.772  0.00  0.00    +0.000 A 
ATOM     15  C   UNL     1       1.446 -16.170 -14.913  0.00  0.00    +0.000 A 
ATOM     16  C   UNL     1       1.754 -17.087 -15.915  0.00  0.00    +0.000 A 
ENDBRANCH  10  11
ENDBRANCH   1  10
TORSDOF 2
ENDMDL
MODEL 9
REMARK VINA RESULT:    -5.029      5.802      6.744
REMARK INTER + INTRA:          -5.785
REMARK INTER:                  -5.610
REMARK INTRA:                  -0.174
REMARK UNBOUND:                -0.167
REMARK  Name = 1550473
REMARK  2 active torsions:
REMARK  status: ('A' for Active; 'I' for Inactive)
REMARK    1  A    between atoms: N_1  and  C_4
REMARK    2  A    between atoms: C_4  and  C_5
REMARK                            x       y       z     vdW  Elec       q    Type
REMARK                         _______ _______ _______ _____ _____    ______ ____
ROOT
ATOM      1  N   UNL     1       0.966   3.170 -11.808  0.00  0.00    -0.354 N 
ATOM      2  N   UNL     1       2.787   2.361 -12.989  0.00  0.00    -0.372 N 
ATOM      3  N   UNL     1       2.376   1.541 -10.886  0.00  0.00    -0.372 N 
ATOM      4  C   UNL     1       2.031   2.361 -11.884  0.00  0.00    +0.166 C 
ATOM      5  H   UNL     1       0.776   3.790 -12.587  0.00  0.00    +0.163 HD
ATOM      6  H   UNL     1       3.594   1.759 -13.077  0.00  0.00    +0.159 HD
ATOM      7  H   UNL     1       2.567   2.948 -13.785  0.00  0.00    +0.159 HD
ATOM      8  H   UNL     1       1.850   1.497 -10.023  0.00  0.00    +0.159 HD
ATOM      9  H   UNL     1       3.188   0.939 -10.950  0.00  0.00    +0.159 HD
ENDROOT
BRANCH   1  10
ATOM     10  C   UNL     1       0.048   3.208 -10.672  0.00  0.00    +0.151 C 
BRANCH  10  11
ATOM     11  C   UNL     1      -1.255   2.572 -11.071  0.00  0.00    -0.028 A 
ATOM     12  C   UNL     1      -2.302   3.353 -11.583  0.00  0.00    +0.005 A 
ATOM     13  C   UNL     1      -1.448   1.187 -10.947  0.00  0.00    +0.005 A 
ATOM     14  C   UNL     1      -3.501   2.759 -11.982  0.00  0.00    +0.000 A 
ATOM     15  C   UNL     1      -2.647   0.598 -11.346  0.00  0.00    +0.000 A 
ATOM     16  C   UNL     1      -3.673   1.384 -11.866  0.00  0.00    +0.000 A 
ENDBRANCH  10  11
ENDBRANCH   1  10
TORSDOF 2
ENDMDL
