MODEL 1
REMARK VINA RESULT:    -4.998      0.000      0.000
REMARK INTER + INTRA:          -5.734
REMARK INTER:                  -5.582
REMARK INTRA:                  -0.151
REMARK UNBOUND:                -0.151
REMARK  Name = 1550473
REMARK  2 active torsions:
REMARK  status: ('A' for Active; 'I' for Inactive)
REMARK    1  A    between atoms: N_1  and  C_4
REMARK    2  A    between atoms: C_4  and  C_5
REMARK                            x       y       z     vdW  Elec       q    Type
REMARK                         _______ _______ _______ _____ _____    ______ ____
ROOT
ATOM      1  N   UNL     1      -1.936  17.699  -6.298  0.00  0.00    -0.354 N 
ATOM      2  N   UNL     1      -2.421  16.319  -8.094  0.00  0.00    -0.372 N 
ATOM      3  N   UNL     1      -3.705  18.190  -7.754  0.00  0.00    -0.372 N 
ATOM      4  C   UNL     1      -2.686  17.414  -7.371  0.00  0.00    +0.166 C 
ATOM      5  H   UNL     1      -1.197  17.054  -6.043  0.00  0.00    +0.163 HD
ATOM      6  H   UNL     1      -2.968  16.080  -8.911  0.00  0.00    +0.159 HD
ATOM      7  H   UNL     1      -1.653  15.701  -7.863  0.00  0.00    +0.159 HD
ATOM      8  H   UNL     1      -3.961  19.027  -7.247  0.00  0.00    +0.159 HD
ATOM      9  H   UNL     1      -4.272  17.961  -8.561  0.00  0.00    +0.159 HD
ENDROOT
BRANCH   1  10
ATOM     10  C   UNL     1      -2.107  18.894  -5.475  0.00  0.00    +0.151 C 
BRANCH  10  11
ATOM     11  C   UNL     1      -2.360  18.478  -4.052  0.00  0.00    -0.028 A 
ATOM     12  C   UNL     1      -1.343  18.575  -3.091  0.00  0.00    +0.005 A 
ATOM     13  C   UNL     1      -3.616  17.992  -3.657  0.00  0.00    +0.005 A 
ATOM     14  C   UNL     1      -1.586  18.217  -1.762  0.00  0.00    +0.000 A 
ATOM     15  C   UNL     1      -3.854  17.634  -2.330  0.00  0.00    +0.000 A 
ATOM     16  C   UNL     1      -2.840  17.749  -1.383  0.00  0.00    +0.000 A 
ENDBRANCH  10  11
ENDBRANCH   1  10
TORSDOF 2
ENDMDL
MODEL 2
REMARK VINA RESULT:    -4.902     22.188     24.215
REMARK INTER + INTRA:          -5.627
REMARK INTER:                  -5.481
REMARK INTRA:                  -0.146
REMARK UNBOUND:                -0.151
REMARK  Name = 1550473
REMARK  2 active torsions:
REMARK  status: ('A' for Active; 'I' for Inactive)
REMARK    1  A    between atoms: N_1  and  C_4
REMARK    2  A    between atoms: C_4  and  C_5
REMARK                            x       y       z     vdW  Elec       q    Type
REMARK                         _______ _______ _______ _____ _____    ______ ____
ROOT
ATOM      1  N   UNL     1     -13.571   3.037 -19.141  0.00  0.00    -0.354 N 
ATOM      2  N   UNL     1     -14.508   4.448 -17.562  0.00  0.00    -0.372 N 
ATOM      3  N   UNL     1     -12.428   4.942 -18.395  0.00  0.00    -0.372 N 
ATOM      4  C   UNL     1     -13.494   4.134 -18.376  0.00  0.00    +0.166 C 
ATOM      5  H   UNL     1     -14.393   2.450 -19.059  0.00  0.00    +0.163 HD
ATOM      6  H   UNL     1     -14.480   5.272 -16.976  0.00  0.00    +0.159 HD
ATOM      7  H   UNL     1     -15.349   3.885 -17.515  0.00  0.00    +0.159 HD
ATOM      8  H   UNL     1     -11.626   4.757 -18.983  0.00  0.00    +0.159 HD
ATOM      9  H   UNL     1     -12.376   5.764 -17.807  0.00  0.00    +0.159 HD
ENDROOT
BRANCH   1  10
ATOM     10  C   UNL     1     -12.545   2.635 -20.101  0.00  0.00    +0.151 C 
BRANCH  10  11
ATOM     11  C   UNL     1     -12.120   1.223 -19.804  0.00  0.00    -0.028 A 
ATOM     12  C   UNL     1     -11.064   0.633 -20.514  0.00  0.00    +0.005 A 
ATOM     13  C   UNL     1     -12.766   0.472 -18.811  0.00  0.00    +0.005 A 
ATOM     14  C   UNL     1     -10.650  -0.668 -20.218  0.00  0.00    +0.000 A 
ATOM     15  C   UNL     1     -12.350  -0.827 -18.519  0.00  0.00    +0.000 A 
ATOM     16  C   UNL     1     -11.290  -1.395 -19.221  0.00  0.00    +0.000 A 
ENDBRANCH  10  11
ENDBRANCH   1  10
TORSDOF 2
ENDMDL
MODEL 3
REMARK VINA RESULT:    -4.872     22.229     24.267
REMARK INTER + INTRA:          -5.593
REMARK INTER:                  -5.449
REMARK INTRA:                  -0.144
REMARK UNBOUND:                -0.151
REMARK  Name = 1550473
REMARK  2 active torsions:
REMARK  status: ('A' for Active; 'I' for Inactive)
REMARK    1  A    between atoms: N_1  and  C_4
REMARK    2  A    between atoms: C_4  and  C_5
REMARK                            x       y       z     vdW  Elec       q    Type
REMARK                         _______ _______ _______ _____ _____    ______ ____
ROOT
ATOM      1  N   UNL     1     -13.562   2.966 -19.153  0.00  0.00    -0.354 N 
ATOM      2  N   UNL     1     -14.514   4.383 -17.588  0.00  0.00    -0.372 N 
ATOM      3  N   UNL     1     -12.401   4.840 -18.358  0.00  0.00    -0.372 N 
ATOM      4  C   UNL     1     -13.483   4.055 -18.377  0.00  0.00    +0.166 C 
ATOM      5  H   UNL     1     -14.398   2.395 -19.099  0.00  0.00    +0.163 HD
ATOM      6  H   UNL     1     -14.485   5.201 -16.994  0.00  0.00    +0.159 HD
ATOM      7  H   UNL     1     -15.366   3.837 -17.570  0.00  0.00    +0.159 HD
ATOM      8  H   UNL     1     -11.587   4.643 -18.925  0.00  0.00    +0.159 HD
ATOM      9  H   UNL     1     -12.348   5.656 -17.761  0.00  0.00    +0.159 HD
ENDROOT
BRANCH   1  10
ATOM     10  C   UNL     1     -12.517   2.551 -20.088  0.00  0.00    +0.151 C 
BRANCH  10  11
ATOM     11  C   UNL     1     -12.091   1.147 -19.756  0.00  0.00    -0.028 A 
ATOM     12  C   UNL     1     -12.720   0.437 -18.723  0.00  0.00    +0.005 A 
ATOM     13  C   UNL     1     -11.062   0.520 -20.475  0.00  0.00    +0.005 A 
ATOM     14  C   UNL     1     -12.344  -0.877 -18.434  0.00  0.00    +0.000 A 
ATOM     15  C   UNL     1     -10.689  -0.792 -20.183  0.00  0.00    +0.000 A 
ATOM     16  C   UNL     1     -11.332  -1.491 -19.164  0.00  0.00    +0.000 A 
ENDBRANCH  10  11
ENDBRANCH   1  10
TORSDOF 2
ENDMDL
MODEL 4
REMARK VINA RESULT:    -4.810     27.505     28.973
REMARK INTER + INTRA:          -5.524
REMARK INTER:                  -5.414
REMARK INTRA:                  -0.110
REMARK UNBOUND:                -0.151
REMARK  Name = 1550473
REMARK  2 active torsions:
REMARK  status: ('A' for Active; 'I' for Inactive)
REMARK    1  A    between atoms: N_1  and  C_4
REMARK    2  A    between atoms: C_4  and  C_5
REMARK                            x       y       z     vdW  Elec       q    Type
REMARK                         _______ _______ _______ _____ _____    ______ ____
ROOT
ATOM      1  N   UNL     1      12.093  -4.613 -17.531  0.00  0.00    -0.354 N 
ATOM      2  N   UNL     1      11.359  -6.639 -16.683  0.00  0.00    -0.372 N 
ATOM      3  N   UNL     1      13.008  -5.501 -15.565  0.00  0.00    -0.372 N 
ATOM      4  C   UNL     1      12.160  -5.570 -16.597  0.00  0.00    +0.166 C 
ATOM      5  H   UNL     1      11.451  -4.739 -18.305  0.00  0.00    +0.163 HD
ATOM      6  H   UNL     1      11.384  -7.376 -15.991  0.00  0.00    +0.159 HD
ATOM      7  H   UNL     1      10.685  -6.740 -17.432  0.00  0.00    +0.159 HD
ATOM      8  H   UNL     1      13.644  -4.724 -15.446  0.00  0.00    +0.159 HD
ATOM      9  H   UNL     1      13.057  -6.234 -14.869  0.00  0.00    +0.159 HD
ENDROOT
BRANCH   1  10
ATOM     10  C   UNL     1      12.884  -3.384 -17.501  0.00  0.00    +0.151 C 
BRANCH  10  11
ATOM     11  C   UNL     1      12.119  -2.290 -18.192  0.00  0.00    -0.028 A 
ATOM     12  C   UNL     1      11.506  -2.523 -19.432  0.00  0.00    +0.005 A 
ATOM     13  C   UNL     1      11.998  -1.018 -17.610  0.00  0.00    +0.005 A 
ATOM     14  C   UNL     1      10.770  -1.516 -20.061  0.00  0.00    +0.000 A 
ATOM     15  C   UNL     1      11.262  -0.015 -18.241  0.00  0.00    +0.000 A 
ATOM     16  C   UNL     1      10.646  -0.265 -19.465  0.00  0.00    +0.000 A 
ENDBRANCH  10  11
ENDBRANCH   1  10
TORSDOF 2
ENDMDL
MODEL 5
REMARK VINA RESULT:    -4.692      6.574      8.273
REMARK INTER + INTRA:          -5.392
REMARK INTER:                  -5.257
REMARK INTRA:                  -0.136
REMARK UNBOUND:                -0.151
REMARK  Name = 1550473
REMARK  2 active torsions:
REMARK  status: ('A' for Active; 'I' for Inactive)
REMARK    1  A    between atoms: N_1  and  C_4
REMARK    2  A    between atoms: C_4  and  C_5
REMARK                            x       y       z     vdW  Elec       q    Type
REMARK                         _______ _______ _______ _____ _____    ______ ____
ROOT
ATOM      1  N   UNL     1      -0.307  19.335   1.498  0.00  0.00    -0.354 N 
ATOM      2  N   UNL     1      -1.425  18.511  -0.355  0.00  0.00    -0.372 N 
ATOM      3  N   UNL     1       0.829  18.908  -0.506  0.00  0.00    -0.372 N 
ATOM      4  C   UNL     1      -0.291  18.924   0.223  0.00  0.00    +0.166 C 
ATOM      5  H   UNL     1      -1.195  19.352   1.987  0.00  0.00    +0.163 HD
ATOM      6  H   UNL     1      -1.444  18.192  -1.315  0.00  0.00    +0.159 HD
ATOM      7  H   UNL     1      -2.303  18.485   0.150  0.00  0.00    +0.159 HD
ATOM      8  H   UNL     1       1.717  19.212  -0.130  0.00  0.00    +0.159 HD
ATOM      9  H   UNL     1       0.829  18.603  -1.472  0.00  0.00    +0.159 HD
ENDROOT
BRANCH   1  10
ATOM     10  C   UNL     1       0.882  19.753   2.237  0.00  0.00    +0.151 C 
BRANCH  10  11
ATOM     11  C   UNL     1       1.037  18.881   3.452  0.00  0.00    -0.028 A 
ATOM     12  C   UNL     1       1.311  19.447   4.706  0.00  0.00    +0.005 A 
ATOM     13  C   UNL     1       0.905  17.487   3.358  0.00  0.00    +0.005 A 
ATOM     14  C   UNL     1       1.426  18.640   5.840  0.00  0.00    +0.000 A 
ATOM     15  C   UNL     1       1.021  16.684   4.493  0.00  0.00    +0.000 A 
ATOM     16  C   UNL     1       1.279  17.261   5.734  0.00  0.00    +0.000 A 
ENDBRANCH  10  11
ENDBRANCH   1  10
TORSDOF 2
ENDMDL
MODEL 6
REMARK VINA RESULT:    -4.528     26.123     28.412
REMARK INTER + INTRA:          -5.209
REMARK INTER:                  -5.039
REMARK INTRA:                  -0.170
REMARK UNBOUND:                -0.151
REMARK  Name = 1550473
REMARK  2 active torsions:
REMARK  status: ('A' for Active; 'I' for Inactive)
REMARK    1  A    between atoms: N_1  and  C_4
REMARK    2  A    between atoms: C_4  and  C_5
REMARK                            x       y       z     vdW  Elec       q    Type
REMARK                         _______ _______ _______ _____ _____    ______ ____
ROOT
ATOM      1  N   UNL     1     -12.634  -1.553 -20.008  0.00  0.00    -0.354 N 
ATOM      2  N   UNL     1     -12.482  -0.279 -18.079  0.00  0.00    -0.372 N 
ATOM      3  N   UNL     1     -10.670  -1.527 -18.729  0.00  0.00    -0.372 N 
ATOM      4  C   UNL     1     -11.927  -1.129 -18.951  0.00  0.00    +0.166 C 
ATOM      5  H   UNL     1     -13.592  -1.238 -20.103  0.00  0.00    +0.163 HD
ATOM      6  H   UNL     1     -11.973   0.060 -17.274  0.00  0.00    +0.159 HD
ATOM      7  H   UNL     1     -13.425   0.069 -18.202  0.00  0.00    +0.159 HD
ATOM      8  H   UNL     1     -10.195  -2.172 -19.347  0.00  0.00    +0.159 HD
ATOM      9  H   UNL     1     -10.147  -1.207 -17.923  0.00  0.00    +0.159 HD
ENDROOT
BRANCH   1  10
ATOM     10  C   UNL     1     -12.104  -2.436 -21.045  0.00  0.00    +0.151 C 
BRANCH  10  11
ATOM     11  C   UNL     1     -12.515  -3.851 -20.742  0.00  0.00    -0.028 A 
ATOM     12  C   UNL     1     -13.850  -4.155 -20.441  0.00  0.00    +0.005 A 
ATOM     13  C   UNL     1     -11.574  -4.892 -20.761  0.00  0.00    +0.005 A 
ATOM     14  C   UNL     1     -14.238  -5.474 -20.189  0.00  0.00    +0.000 A 
ATOM     15  C   UNL     1     -11.965  -6.207 -20.509  0.00  0.00    +0.000 A 
ATOM     16  C   UNL     1     -13.298  -6.498 -20.225  0.00  0.00    +0.000 A 
ENDBRANCH  10  11
ENDBRANCH   1  10
TORSDOF 2
ENDMDL
MODEL 7
REMARK VINA RESULT:    -4.503     25.882     27.583
REMARK INTER + INTRA:          -5.181
REMARK INTER:                  -5.012
REMARK INTRA:                  -0.169
REMARK UNBOUND:                -0.151
REMARK  Name = 1550473
REMARK  2 active torsions:
REMARK  status: ('A' for Active; 'I' for Inactive)
REMARK    1  A    between atoms: N_1  and  C_4
REMARK    2  A    between atoms: C_4  and  C_5
REMARK                            x       y       z     vdW  Elec       q    Type
REMARK                         _______ _______ _______ _____ _____    ______ ____
ROOT
ATOM      1  N   UNL     1     -11.104  -3.579 -20.453  0.00  0.00    -0.354 N 
ATOM      2  N   UNL     1     -10.667  -5.853 -20.422  0.00  0.00    -0.372 N 
ATOM      3  N   UNL     1     -12.194  -5.037 -21.928  0.00  0.00    -0.372 N 
ATOM      4  C   UNL     1     -11.327  -4.808 -20.936  0.00  0.00    +0.166 C 
ATOM      5  H   UNL     1     -10.456  -3.476 -19.680  0.00  0.00    +0.163 HD
ATOM      6  H   UNL     1     -10.812  -6.792 -20.769  0.00  0.00    +0.159 HD
ATOM      7  H   UNL     1      -9.986  -5.741 -19.681  0.00  0.00    +0.159 HD
ATOM      8  H   UNL     1     -12.728  -4.292 -22.355  0.00  0.00    +0.159 HD
ATOM      9  H   UNL     1     -12.362  -5.971 -22.280  0.00  0.00    +0.159 HD
ENDROOT
BRANCH   1  10
ATOM     10  C   UNL     1     -11.730  -2.367 -20.979  0.00  0.00    +0.151 C 
BRANCH  10  11
ATOM     11  C   UNL     1     -12.673  -1.814 -19.946  0.00  0.00    -0.028 A 
ATOM     12  C   UNL     1     -12.227  -0.874 -19.006  0.00  0.00    +0.005 A 
ATOM     13  C   UNL     1     -14.016  -2.222 -19.907  0.00  0.00    +0.005 A 
ATOM     14  C   UNL     1     -13.110  -0.338 -18.065  0.00  0.00    +0.000 A 
ATOM     15  C   UNL     1     -14.894  -1.684 -18.966  0.00  0.00    +0.000 A 
ATOM     16  C   UNL     1     -14.441  -0.740 -18.047  0.00  0.00    +0.000 A 
ENDBRANCH  10  11
ENDBRANCH   1  10
TORSDOF 2
ENDMDL
MODEL 8
REMARK VINA RESULT:    -4.480     34.637     35.256
REMARK INTER + INTRA:          -5.156
REMARK INTER:                  -5.034
REMARK INTRA:                  -0.121
REMARK UNBOUND:                -0.151
REMARK  Name = 1550473
REMARK  2 active torsions:
REMARK  status: ('A' for Active; 'I' for Inactive)
REMARK    1  A    between atoms: N_1  and  C_4
REMARK    2  A    between atoms: C_4  and  C_5
REMARK                            x       y       z     vdW  Elec       q    Type
REMARK                         _______ _______ _______ _____ _____    ______ ____
ROOT
ATOM      1  N   UNL     1       9.618 -16.015   0.240  0.00  0.00    -0.354 N 
ATOM      2  N   UNL     1      10.350 -17.948   1.284  0.00  0.00    -0.372 N 
ATOM      3  N   UNL     1       8.966 -16.524   2.433  0.00  0.00    -0.372 N 
ATOM      4  C   UNL     1       9.638 -16.815   1.315  0.00  0.00    +0.166 C 
ATOM      5  H   UNL     1      10.173 -16.277  -0.566  0.00  0.00    +0.163 HD
ATOM      6  H   UNL     1      10.382 -18.574   2.078  0.00  0.00    +0.159 HD
ATOM      7  H   UNL     1      10.868 -18.231   0.461  0.00  0.00    +0.159 HD
ATOM      8  H   UNL     1       8.414 -15.682   2.522  0.00  0.00    +0.159 HD
ATOM      9  H   UNL     1       8.995 -17.132   3.242  0.00  0.00    +0.159 HD
ENDROOT
BRANCH   1  10
ATOM     10  C   UNL     1       8.831 -14.786   0.151  0.00  0.00    +0.151 C 
BRANCH  10  11
ATOM     11  C   UNL     1       9.612 -13.757  -0.618  0.00  0.00    -0.028 A 
ATOM     12  C   UNL     1       9.530 -12.399  -0.277  0.00  0.00    +0.005 A 
ATOM     13  C   UNL     1      10.442 -14.135  -1.685  0.00  0.00    +0.005 A 
ATOM     14  C   UNL     1      10.279 -11.447  -0.973  0.00  0.00    +0.000 A 
ATOM     15  C   UNL     1      11.187 -13.181  -2.377  0.00  0.00    +0.000 A 
ATOM     16  C   UNL     1      11.107 -11.837  -2.019  0.00  0.00    +0.000 A 
ENDBRANCH  10  11
ENDBRANCH   1  10
TORSDOF 2
ENDMDL
MODEL 9
REMARK VINA RESULT:    -4.299     36.596     37.893
REMARK INTER + INTRA:          -4.953
REMARK INTER:                  -4.854
REMARK INTRA:                  -0.099
REMARK UNBOUND:                -0.151
REMARK  Name = 1550473
REMARK  2 active torsions:
REMARK  status: ('A' for Active; 'I' for Inactive)
REMARK    1  A    between atoms: N_1  and  C_4
REMARK    2  A    between atoms: C_4  and  C_5
REMARK                            x       y       z     vdW  Elec       q    Type
REMARK                         _______ _______ _______ _____ _____    ______ ____
ROOT
ATOM      1  N   UNL     1       8.553 -16.282 -10.820  0.00  0.00    -0.354 N 
ATOM      2  N   UNL     1       9.313 -14.830  -9.183  0.00  0.00    -0.372 N 
ATOM      3  N   UNL     1      10.758 -15.490 -10.839  0.00  0.00    -0.372 N 
ATOM      4  C   UNL     1       9.539 -15.544 -10.293  0.00  0.00    +0.166 C 
ATOM      5  H   UNL     1       7.660 -16.304 -10.341  0.00  0.00    +0.163 HD
ATOM      6  H   UNL     1      10.037 -14.261  -8.765  0.00  0.00    +0.159 HD
ATOM      7  H   UNL     1       8.406 -14.818  -8.733  0.00  0.00    +0.159 HD
ATOM      8  H   UNL     1      10.995 -16.010 -11.673  0.00  0.00    +0.159 HD
ATOM      9  H   UNL     1      11.499 -14.936 -10.428  0.00  0.00    +0.159 HD
ENDROOT
BRANCH   1  10
ATOM     10  C   UNL     1       8.679 -17.053 -12.055  0.00  0.00    +0.151 C 
BRANCH  10  11
ATOM     11  C   UNL     1       7.601 -18.101 -12.093  0.00  0.00    -0.028 A 
ATOM     12  C   UNL     1       7.933 -19.463 -12.115  0.00  0.00    +0.005 A 
ATOM     13  C   UNL     1       6.245 -17.737 -12.101  0.00  0.00    +0.005 A 
ATOM     14  C   UNL     1       6.931 -20.437 -12.119  0.00  0.00    +0.000 A 
ATOM     15  C   UNL     1       5.249 -18.713 -12.107  0.00  0.00    +0.000 A 
ATOM     16  C   UNL     1       5.592 -20.063 -12.113  0.00  0.00    +0.000 A 
ENDBRANCH  10  11
ENDBRANCH   1  10
TORSDOF 2
ENDMDL
