MODEL 1
REMARK VINA RESULT:    -4.681      0.000      0.000
REMARK INTER + INTRA:          -5.349
REMARK INTER:                  -5.229
REMARK INTRA:                  -0.120
REMARK UNBOUND:                -0.120
REMARK  Name = 1550473
REMARK  2 active torsions:
REMARK  status: ('A' for Active; 'I' for Inactive)
REMARK    1  A    between atoms: N_1  and  C_4
REMARK    2  A    between atoms: C_4  and  C_5
REMARK                            x       y       z     vdW  Elec       q    Type
REMARK                         _______ _______ _______ _____ _____    ______ ____
ROOT
ATOM      1  N   UNL     1     -15.632  -3.079   5.558  0.00  0.00    -0.354 N 
ATOM      2  N   UNL     1     -15.513  -2.253   7.718  0.00  0.00    -0.372 N 
ATOM      3  N   UNL     1     -16.611  -4.233   7.347  0.00  0.00    -0.372 N 
ATOM      4  C   UNL     1     -15.921  -3.196   6.860  0.00  0.00    +0.166 C 
ATOM      5  H   UNL     1     -15.131  -2.254   5.248  0.00  0.00    +0.163 HD
ATOM      6  H   UNL     1     -15.714  -2.315   8.707  0.00  0.00    +0.159 HD
ATOM      7  H   UNL     1     -14.973  -1.452   7.412  0.00  0.00    +0.159 HD
ATOM      8  H   UNL     1     -16.953  -4.975   6.751  0.00  0.00    +0.159 HD
ATOM      9  H   UNL     1     -16.832  -4.307   8.332  0.00  0.00    +0.159 HD
ENDROOT
BRANCH   1  10
ATOM     10  C   UNL     1     -15.983  -4.078   4.549  0.00  0.00    +0.151 C 
BRANCH  10  11
ATOM     11  C   UNL     1     -15.442  -3.641   3.216  0.00  0.00    -0.028 A 
ATOM     12  C   UNL     1     -15.314  -4.559   2.164  0.00  0.00    +0.005 A 
ATOM     13  C   UNL     1     -15.061  -2.308   2.996  0.00  0.00    +0.005 A 
ATOM     14  C   UNL     1     -14.840  -4.147   0.916  0.00  0.00    +0.000 A 
ATOM     15  C   UNL     1     -14.588  -1.901   1.749  0.00  0.00    +0.000 A 
ATOM     16  C   UNL     1     -14.480  -2.820   0.709  0.00  0.00    +0.000 A 
ENDBRANCH  10  11
ENDBRANCH   1  10
TORSDOF 2
ENDMDL
MODEL 2
REMARK VINA RESULT:    -4.637     22.000     22.592
REMARK INTER + INTRA:          -5.299
REMARK INTER:                  -5.179
REMARK INTRA:                  -0.120
REMARK UNBOUND:                -0.120
REMARK  Name = 1550473
REMARK  2 active torsions:
REMARK  status: ('A' for Active; 'I' for Inactive)
REMARK    1  A    between atoms: N_1  and  C_4
REMARK    2  A    between atoms: C_4  and  C_5
REMARK                            x       y       z     vdW  Elec       q    Type
REMARK                         _______ _______ _______ _____ _____    ______ ____
ROOT
ATOM      1  N   UNL     1       7.003   1.087   7.969  0.00  0.00    -0.354 N 
ATOM      2  N   UNL     1       7.460   2.976   6.710  0.00  0.00    -0.372 N 
ATOM      3  N   UNL     1       8.976   1.254   6.715  0.00  0.00    -0.372 N 
ATOM      4  C   UNL     1       7.812   1.758   7.139  0.00  0.00    +0.166 C 
ATOM      5  H   UNL     1       6.149   1.537   8.278  0.00  0.00    +0.163 HD
ATOM      6  H   UNL     1       8.048   3.505   6.080  0.00  0.00    +0.159 HD
ATOM      7  H   UNL     1       6.584   3.405   6.984  0.00  0.00    +0.159 HD
ATOM      8  H   UNL     1       9.302   0.342   7.007  0.00  0.00    +0.159 HD
ATOM      9  H   UNL     1       9.584   1.773   6.094  0.00  0.00    +0.159 HD
ENDROOT
BRANCH   1  10
ATOM     10  C   UNL     1       7.269  -0.267   8.452  0.00  0.00    +0.151 C 
BRANCH  10  11
ATOM     11  C   UNL     1       5.961  -0.948   8.750  0.00  0.00    -0.028 A 
ATOM     12  C   UNL     1       4.846  -0.201   9.154  0.00  0.00    +0.005 A 
ATOM     13  C   UNL     1       5.830  -2.339   8.623  0.00  0.00    +0.005 A 
ATOM     14  C   UNL     1       3.623  -0.829   9.402  0.00  0.00    +0.000 A 
ATOM     15  C   UNL     1       4.608  -2.963   8.872  0.00  0.00    +0.000 A 
ATOM     16  C   UNL     1       3.504  -2.207   9.259  0.00  0.00    +0.000 A 
ENDBRANCH  10  11
ENDBRANCH   1  10
TORSDOF 2
ENDMDL
MODEL 3
REMARK VINA RESULT:    -4.548     16.754     18.360
REMARK INTER + INTRA:          -5.200
REMARK INTER:                  -5.083
REMARK INTRA:                  -0.117
REMARK UNBOUND:                -0.120
REMARK  Name = 1550473
REMARK  2 active torsions:
REMARK  status: ('A' for Active; 'I' for Inactive)
REMARK    1  A    between atoms: N_1  and  C_4
REMARK    2  A    between atoms: C_4  and  C_5
REMARK                            x       y       z     vdW  Elec       q    Type
REMARK                         _______ _______ _______ _____ _____    ______ ____
ROOT
ATOM      1  N   UNL     1      -2.979   7.132  14.151  0.00  0.00    -0.354 N 
ATOM      2  N   UNL     1      -1.773   8.995  13.490  0.00  0.00    -0.372 N 
ATOM      3  N   UNL     1      -0.637   7.084  14.060  0.00  0.00    -0.372 N 
ATOM      4  C   UNL     1      -1.802   7.723  13.906  0.00  0.00    +0.166 C 
ATOM      5  H   UNL     1      -3.825   7.679  14.044  0.00  0.00    +0.163 HD
ATOM      6  H   UNL     1      -0.900   9.467  13.293  0.00  0.00    +0.159 HD
ATOM      7  H   UNL     1      -2.622   9.526  13.339  0.00  0.00    +0.159 HD
ATOM      8  H   UNL     1      -0.591   6.125  14.377  0.00  0.00    +0.159 HD
ATOM      9  H   UNL     1       0.247   7.543  13.880  0.00  0.00    +0.159 HD
ENDROOT
BRANCH   1  10
ATOM     10  C   UNL     1      -3.123   5.734  14.556  0.00  0.00    +0.151 C 
BRANCH  10  11
ATOM     11  C   UNL     1      -4.578   5.359  14.516  0.00  0.00    -0.028 A 
ATOM     12  C   UNL     1      -5.430   5.911  13.548  0.00  0.00    +0.005 A 
ATOM     13  C   UNL     1      -5.111   4.446  15.440  0.00  0.00    +0.005 A 
ATOM     14  C   UNL     1      -6.775   5.540  13.492  0.00  0.00    +0.000 A 
ATOM     15  C   UNL     1      -6.455   4.079  15.381  0.00  0.00    +0.000 A 
ATOM     16  C   UNL     1      -7.286   4.624  14.405  0.00  0.00    +0.000 A 
ENDBRANCH  10  11
ENDBRANCH   1  10
TORSDOF 2
ENDMDL
MODEL 4
REMARK VINA RESULT:    -4.343     24.498     25.083
REMARK INTER + INTRA:          -4.971
REMARK INTER:                  -4.838
REMARK INTRA:                  -0.133
REMARK UNBOUND:                -0.120
REMARK  Name = 1550473
REMARK  2 active torsions:
REMARK  status: ('A' for Active; 'I' for Inactive)
REMARK    1  A    between atoms: N_1  and  C_4
REMARK    2  A    between atoms: C_4  and  C_5
REMARK                            x       y       z     vdW  Elec       q    Type
REMARK                         _______ _______ _______ _____ _____    ______ ____
ROOT
ATOM      1  N   UNL     1       7.522   1.100   8.205  0.00  0.00    -0.354 N 
ATOM      2  N   UNL     1       5.263   1.270   8.685  0.00  0.00    -0.372 N 
ATOM      3  N   UNL     1       5.985   1.750   6.560  0.00  0.00    -0.372 N 
ATOM      4  C   UNL     1       6.272   1.373   7.811  0.00  0.00    +0.166 C 
ATOM      5  H   UNL     1       7.678   0.849   9.174  0.00  0.00    +0.163 HD
ATOM      6  H   UNL     1       4.308   1.466   8.416  0.00  0.00    +0.159 HD
ATOM      7  H   UNL     1       5.415   0.974   9.641  0.00  0.00    +0.159 HD
ATOM      8  H   UNL     1       6.701   1.853   5.854  0.00  0.00    +0.159 HD
ATOM      9  H   UNL     1       5.037   1.963   6.275  0.00  0.00    +0.159 HD
ENDROOT
BRANCH   1  10
ATOM     10  C   UNL     1       8.684   1.130   7.318  0.00  0.00    +0.151 C 
BRANCH  10  11
ATOM     11  C   UNL     1       9.665   0.078   7.757  0.00  0.00    -0.028 A 
ATOM     12  C   UNL     1      10.987   0.098   7.290  0.00  0.00    +0.005 A 
ATOM     13  C   UNL     1       9.280  -0.938   8.646  0.00  0.00    +0.005 A 
ATOM     14  C   UNL     1      11.907  -0.861   7.722  0.00  0.00    +0.000 A 
ATOM     15  C   UNL     1      10.201  -1.894   9.073  0.00  0.00    +0.000 A 
ATOM     16  C   UNL     1      11.515  -1.854   8.613  0.00  0.00    +0.000 A 
ENDBRANCH  10  11
ENDBRANCH   1  10
TORSDOF 2
ENDMDL
MODEL 5
REMARK VINA RESULT:    -4.289     28.448     29.279
REMARK INTER + INTRA:          -4.910
REMARK INTER:                  -4.772
REMARK INTRA:                  -0.138
REMARK UNBOUND:                -0.120
REMARK  Name = 1550473
REMARK  2 active torsions:
REMARK  status: ('A' for Active; 'I' for Inactive)
REMARK    1  A    between atoms: N_1  and  C_4
REMARK    2  A    between atoms: C_4  and  C_5
REMARK                            x       y       z     vdW  Elec       q    Type
REMARK                         _______ _______ _______ _____ _____    ______ ____
ROOT
ATOM      1  N   UNL     1      13.022 -11.633  -2.180  0.00  0.00    -0.354 N 
ATOM      2  N   UNL     1      14.668 -13.025  -3.027  0.00  0.00    -0.372 N 
ATOM      3  N   UNL     1      12.571 -13.094  -3.956  0.00  0.00    -0.372 N 
ATOM      4  C   UNL     1      13.407 -12.576  -3.050  0.00  0.00    +0.166 C 
ATOM      5  H   UNL     1      13.695 -11.303  -1.499  0.00  0.00    +0.163 HD
ATOM      6  H   UNL     1      14.988 -13.734  -3.673  0.00  0.00    +0.159 HD
ATOM      7  H   UNL     1      15.351 -12.660  -2.375  0.00  0.00    +0.159 HD
ATOM      8  H   UNL     1      11.605 -12.802  -4.022  0.00  0.00    +0.159 HD
ATOM      9  H   UNL     1      12.870 -13.812  -4.604  0.00  0.00    +0.159 HD
ENDROOT
BRANCH   1  10
ATOM     10  C   UNL     1      11.687 -11.037  -2.158  0.00  0.00    +0.151 C 
BRANCH  10  11
ATOM     11  C   UNL     1      11.240 -10.887  -0.730  0.00  0.00    -0.028 A 
ATOM     12  C   UNL     1      12.093 -11.246   0.325  0.00  0.00    +0.005 A 
ATOM     13  C   UNL     1       9.967 -10.382  -0.424  0.00  0.00    +0.005 A 
ATOM     14  C   UNL     1      11.689 -11.079   1.652  0.00  0.00    +0.000 A 
ATOM     15  C   UNL     1       9.568 -10.217   0.902  0.00  0.00    +0.000 A 
ATOM     16  C   UNL     1      10.430 -10.563   1.939  0.00  0.00    +0.000 A 
ENDBRANCH  10  11
ENDBRANCH   1  10
TORSDOF 2
ENDMDL
MODEL 6
REMARK VINA RESULT:    -4.266     12.614     14.330
REMARK INTER + INTRA:          -4.885
REMARK INTER:                  -4.784
REMARK INTRA:                  -0.101
REMARK UNBOUND:                -0.120
REMARK  Name = 1550473
REMARK  2 active torsions:
REMARK  status: ('A' for Active; 'I' for Inactive)
REMARK    1  A    between atoms: N_1  and  C_4
REMARK    2  A    between atoms: C_4  and  C_5
REMARK                            x       y       z     vdW  Elec       q    Type
REMARK                         _______ _______ _______ _____ _____    ______ ____
ROOT
ATOM      1  N   UNL     1      -8.695  -2.347  17.599  0.00  0.00    -0.354 N 
ATOM      2  N   UNL     1      -7.616  -3.805  19.040  0.00  0.00    -0.372 N 
ATOM      3  N   UNL     1      -6.510  -1.922  18.333  0.00  0.00    -0.372 N 
ATOM      4  C   UNL     1      -7.612  -2.680  18.314  0.00  0.00    +0.166 C 
ATOM      5  H   UNL     1      -9.487  -2.980  17.602  0.00  0.00    +0.163 HD
ATOM      6  H   UNL     1      -6.815  -4.080  19.592  0.00  0.00    +0.159 HD
ATOM      7  H   UNL     1      -8.426  -4.412  19.078  0.00  0.00    +0.159 HD
ATOM      8  H   UNL     1      -6.441  -1.064  17.803  0.00  0.00    +0.159 HD
ATOM      9  H   UNL     1      -5.694  -2.187  18.871  0.00  0.00    +0.159 HD
ENDROOT
BRANCH   1  10
ATOM     10  C   UNL     1      -8.812  -1.117  16.818  0.00  0.00    +0.151 C 
BRANCH  10  11
ATOM     11  C   UNL     1     -10.151  -1.097  16.132  0.00  0.00    -0.028 A 
ATOM     12  C   UNL     1     -11.047  -0.042  16.352  0.00  0.00    +0.005 A 
ATOM     13  C   UNL     1     -10.525  -2.128  15.256  0.00  0.00    +0.005 A 
ATOM     14  C   UNL     1     -12.278  -0.007  15.692  0.00  0.00    +0.000 A 
ATOM     15  C   UNL     1     -11.755  -2.090  14.600  0.00  0.00    +0.000 A 
ATOM     16  C   UNL     1     -12.630  -1.029  14.816  0.00  0.00    +0.000 A 
ENDBRANCH  10  11
ENDBRANCH   1  10
TORSDOF 2
ENDMDL
MODEL 7
REMARK VINA RESULT:    -4.224     15.555     16.412
REMARK INTER + INTRA:          -4.838
REMARK INTER:                  -4.713
REMARK INTRA:                  -0.125
REMARK UNBOUND:                -0.120
REMARK  Name = 1550473
REMARK  2 active torsions:
REMARK  status: ('A' for Active; 'I' for Inactive)
REMARK    1  A    between atoms: N_1  and  C_4
REMARK    2  A    between atoms: C_4  and  C_5
REMARK                            x       y       z     vdW  Elec       q    Type
REMARK                         _______ _______ _______ _____ _____    ______ ____
ROOT
ATOM      1  N   UNL     1      -7.563   4.730  15.084  0.00  0.00    -0.354 N 
ATOM      2  N   UNL     1      -7.498   5.523  12.909  0.00  0.00    -0.372 N 
ATOM      3  N   UNL     1      -5.560   5.496  14.138  0.00  0.00    -0.372 N 
ATOM      4  C   UNL     1      -6.871   5.245  14.059  0.00  0.00    +0.166 C 
ATOM      5  H   UNL     1      -8.560   4.591  14.971  0.00  0.00    +0.163 HD
ATOM      6  H   UNL     1      -7.002   5.909  12.117  0.00  0.00    +0.159 HD
ATOM      7  H   UNL     1      -8.486   5.340  12.783  0.00  0.00    +0.159 HD
ATOM      8  H   UNL     1      -5.030   5.315  14.980  0.00  0.00    +0.159 HD
ATOM      9  H   UNL     1      -5.049   5.893  13.360  0.00  0.00    +0.159 HD
ENDROOT
BRANCH   1  10
ATOM     10  C   UNL     1      -6.965   4.342  16.361  0.00  0.00    +0.151 C 
BRANCH  10  11
ATOM     11  C   UNL     1      -7.319   2.911  16.654  0.00  0.00    -0.028 A 
ATOM     12  C   UNL     1      -6.323   1.925  16.694  0.00  0.00    +0.005 A 
ATOM     13  C   UNL     1      -8.649   2.534  16.898  0.00  0.00    +0.005 A 
ATOM     14  C   UNL     1      -6.647   0.600  16.996  0.00  0.00    +0.000 A 
ATOM     15  C   UNL     1      -8.969   1.210  17.199  0.00  0.00    +0.000 A 
ATOM     16  C   UNL     1      -7.967   0.244  17.250  0.00  0.00    +0.000 A 
ENDBRANCH  10  11
ENDBRANCH   1  10
TORSDOF 2
ENDMDL
MODEL 8
REMARK VINA RESULT:    -4.104     16.788     18.425
REMARK INTER + INTRA:          -4.704
REMARK INTER:                  -4.564
REMARK INTRA:                  -0.140
REMARK UNBOUND:                -0.120
REMARK  Name = 1550473
REMARK  2 active torsions:
REMARK  status: ('A' for Active; 'I' for Inactive)
REMARK    1  A    between atoms: N_1  and  C_4
REMARK    2  A    between atoms: C_4  and  C_5
REMARK                            x       y       z     vdW  Elec       q    Type
REMARK                         _______ _______ _______ _____ _____    ______ ____
ROOT
ATOM      1  N   UNL     1      -2.124   5.389  14.145  0.00  0.00    -0.354 N 
ATOM      2  N   UNL     1      -0.010   4.602  14.670  0.00  0.00    -0.372 N 
ATOM      3  N   UNL     1      -0.802   6.463  15.754  0.00  0.00    -0.372 N 
ATOM      4  C   UNL     1      -0.993   5.492  14.854  0.00  0.00    +0.166 C 
ATOM      5  H   UNL     1      -2.195   4.648  13.456  0.00  0.00    +0.163 HD
ATOM      6  H   UNL     1       0.853   4.652  15.194  0.00  0.00    +0.159 HD
ATOM      7  H   UNL     1      -0.102   3.836  14.015  0.00  0.00    +0.159 HD
ATOM      8  H   UNL     1      -1.502   7.170  15.936  0.00  0.00    +0.159 HD
ATOM      9  H   UNL     1       0.060   6.537  16.280  0.00  0.00    +0.159 HD
ENDROOT
BRANCH   1  10
ATOM     10  C   UNL     1      -3.275   6.275  14.308  0.00  0.00    +0.151 C 
BRANCH  10  11
ATOM     11  C   UNL     1      -4.505   5.443  14.551  0.00  0.00    -0.028 A 
ATOM     12  C   UNL     1      -4.492   4.416  15.506  0.00  0.00    +0.005 A 
ATOM     13  C   UNL     1      -5.687   5.681  13.832  0.00  0.00    +0.005 A 
ATOM     14  C   UNL     1      -5.643   3.663  15.753  0.00  0.00    +0.000 A 
ATOM     15  C   UNL     1      -6.833   4.926  14.081  0.00  0.00    +0.000 A 
ATOM     16  C   UNL     1      -6.811   3.919  15.043  0.00  0.00    +0.000 A 
ENDBRANCH  10  11
ENDBRANCH   1  10
TORSDOF 2
ENDMDL
MODEL 9
REMARK VINA RESULT:    -4.082     30.858     32.099
REMARK INTER + INTRA:          -4.680
REMARK INTER:                  -4.499
REMARK INTRA:                  -0.181
REMARK UNBOUND:                -0.120
REMARK  Name = 1550473
REMARK  2 active torsions:
REMARK  status: ('A' for Active; 'I' for Inactive)
REMARK    1  A    between atoms: N_1  and  C_4
REMARK    2  A    between atoms: C_4  and  C_5
REMARK                            x       y       z     vdW  Elec       q    Type
REMARK                         _______ _______ _______ _____ _____    ______ ____
ROOT
ATOM      1  N   UNL     1      11.038  14.647   0.368  0.00  0.00    -0.354 N 
ATOM      2  N   UNL     1       9.299  14.634  -1.163  0.00  0.00    -0.372 N 
ATOM      3  N   UNL     1       9.656  12.770   0.126  0.00  0.00    -0.372 N 
ATOM      4  C   UNL     1      10.009  14.014  -0.212  0.00  0.00    +0.166 C 
ATOM      5  H   UNL     1      11.273  15.579   0.046  0.00  0.00    +0.163 HD
ATOM      6  H   UNL     1       8.516  14.184  -1.615  0.00  0.00    +0.159 HD
ATOM      7  H   UNL     1       9.508  15.583  -1.450  0.00  0.00    +0.159 HD
ATOM      8  H   UNL     1      10.155  12.245   0.832  0.00  0.00    +0.159 HD
ATOM      9  H   UNL     1       8.882  12.297  -0.324  0.00  0.00    +0.159 HD
ENDROOT
BRANCH   1  10
ATOM     10  C   UNL     1      11.841  14.081   1.450  0.00  0.00    +0.151 C 
BRANCH  10  11
ATOM     11  C   UNL     1      11.389  14.671   2.757  0.00  0.00    -0.028 A 
ATOM     12  C   UNL     1      11.911  15.894   3.205  0.00  0.00    +0.005 A 
ATOM     13  C   UNL     1      10.435  14.015   3.551  0.00  0.00    +0.005 A 
ATOM     14  C   UNL     1      11.469  16.457   4.404  0.00  0.00    +0.000 A 
ATOM     15  C   UNL     1       9.998  14.581   4.748  0.00  0.00    +0.000 A 
ATOM     16  C   UNL     1      10.513  15.802   5.174  0.00  0.00    +0.000 A 
ENDBRANCH  10  11
ENDBRANCH   1  10
TORSDOF 2
ENDMDL
