MODEL 1
REMARK VINA RESULT:    -5.554      0.000      0.000
REMARK INTER + INTRA:          -6.294
REMARK INTER:                  -6.204
REMARK INTRA:                  -0.090
REMARK UNBOUND:                -0.090
REMARK  Name = 1550473
REMARK  2 active torsions:
REMARK  status: ('A' for Active; 'I' for Inactive)
REMARK    1  A    between atoms: N_1  and  C_4
REMARK    2  A    between atoms: C_4  and  C_5
REMARK                            x       y       z     vdW  Elec       q    Type
REMARK                         _______ _______ _______ _____ _____    ______ ____
ROOT
ATOM      1  N   UNL     1      11.274   1.771   2.251  0.00  0.00    -0.354 N 
ATOM      2  N   UNL     1      10.485   1.909   4.424  0.00  0.00    -0.372 N 
ATOM      3  N   UNL     1      12.313   0.593   3.991  0.00  0.00    -0.372 N 
ATOM      4  C   UNL     1      11.365   1.421   3.542  0.00  0.00    +0.166 C 
ATOM      5  H   UNL     1      10.514   2.379   1.969  0.00  0.00    +0.163 HD
ATOM      6  H   UNL     1      10.530   1.666   5.405  0.00  0.00    +0.159 HD
ATOM      7  H   UNL     1       9.753   2.553   4.148  0.00  0.00    +0.159 HD
ATOM      8  H   UNL     1      13.004   0.186   3.374  0.00  0.00    +0.159 HD
ATOM      9  H   UNL     1      12.368   0.329   4.966  0.00  0.00    +0.159 HD
ENDROOT
BRANCH   1  10
ATOM     10  C   UNL     1      12.214   1.338   1.219  0.00  0.00    +0.151 C 
BRANCH  10  11
ATOM     11  C   UNL     1      11.888   2.042  -0.069  0.00  0.00    -0.028 A 
ATOM     12  C   UNL     1      12.500   3.263  -0.388  0.00  0.00    +0.005 A 
ATOM     13  C   UNL     1      10.972   1.490  -0.978  0.00  0.00    +0.005 A 
ATOM     14  C   UNL     1      12.220   3.902  -1.598  0.00  0.00    +0.000 A 
ATOM     15  C   UNL     1      10.694   2.132  -2.185  0.00  0.00    +0.000 A 
ATOM     16  C   UNL     1      11.320   3.336  -2.495  0.00  0.00    +0.000 A 
ENDBRANCH  10  11
ENDBRANCH   1  10
TORSDOF 2
ENDMDL
MODEL 2
REMARK VINA RESULT:    -5.364     15.276     16.227
REMARK INTER + INTRA:          -6.082
REMARK INTER:                  -5.901
REMARK INTRA:                  -0.181
REMARK UNBOUND:                -0.090
REMARK  Name = 1550473
REMARK  2 active torsions:
REMARK  status: ('A' for Active; 'I' for Inactive)
REMARK    1  A    between atoms: N_1  and  C_4
REMARK    2  A    between atoms: C_4  and  C_5
REMARK                            x       y       z     vdW  Elec       q    Type
REMARK                         _______ _______ _______ _____ _____    ______ ____
ROOT
ATOM      1  N   UNL     1       2.390 -11.146   6.371  0.00  0.00    -0.354 N 
ATOM      2  N   UNL     1       1.130  -9.208   6.512  0.00  0.00    -0.372 N 
ATOM      3  N   UNL     1       2.808  -9.553   8.039  0.00  0.00    -0.372 N 
ATOM      4  C   UNL     1       2.119  -9.981   6.976  0.00  0.00    +0.166 C 
ATOM      5  H   UNL     1       1.812 -11.428   5.588  0.00  0.00    +0.163 HD
ATOM      6  H   UNL     1       0.904  -8.322   6.945  0.00  0.00    +0.159 HD
ATOM      7  H   UNL     1       0.583  -9.470   5.701  0.00  0.00    +0.159 HD
ATOM      8  H   UNL     1       3.562 -10.093   8.441  0.00  0.00    +0.159 HD
ATOM      9  H   UNL     1       2.589  -8.675   8.493  0.00  0.00    +0.159 HD
ENDROOT
BRANCH   1  10
ATOM     10  C   UNL     1       3.481 -12.036   6.764  0.00  0.00    +0.151 C 
BRANCH  10  11
ATOM     11  C   UNL     1       4.622 -11.870   5.799  0.00  0.00    -0.028 A 
ATOM     12  C   UNL     1       5.801 -11.223   6.196  0.00  0.00    +0.005 A 
ATOM     13  C   UNL     1       4.532 -12.363   4.488  0.00  0.00    +0.005 A 
ATOM     14  C   UNL     1       6.873 -11.095   5.309  0.00  0.00    +0.000 A 
ATOM     15  C   UNL     1       5.604 -12.233   3.605  0.00  0.00    +0.000 A 
ATOM     16  C   UNL     1       6.775 -11.601   4.017  0.00  0.00    +0.000 A 
ENDBRANCH  10  11
ENDBRANCH   1  10
TORSDOF 2
ENDMDL
MODEL 3
REMARK VINA RESULT:    -5.306     24.465     25.347
REMARK INTER + INTRA:          -6.017
REMARK INTER:                  -5.892
REMARK INTRA:                  -0.125
REMARK UNBOUND:                -0.090
REMARK  Name = 1550473
REMARK  2 active torsions:
REMARK  status: ('A' for Active; 'I' for Inactive)
REMARK    1  A    between atoms: N_1  and  C_4
REMARK    2  A    between atoms: C_4  and  C_5
REMARK                            x       y       z     vdW  Elec       q    Type
REMARK                         _______ _______ _______ _____ _____    ______ ____
ROOT
ATOM      1  N   UNL     1      -9.983   6.298  11.640  0.00  0.00    -0.354 N 
ATOM      2  N   UNL     1      -9.621   6.177  13.924  0.00  0.00    -0.372 N 
ATOM      3  N   UNL     1     -10.676   4.431  12.875  0.00  0.00    -0.372 N 
ATOM      4  C   UNL     1     -10.097   5.633  12.798  0.00  0.00    +0.166 C 
ATOM      5  H   UNL     1      -9.561   7.219  11.653  0.00  0.00    +0.163 HD
ATOM      6  H   UNL     1      -9.689   5.698  14.812  0.00  0.00    +0.159 HD
ATOM      7  H   UNL     1      -9.158   7.078  13.927  0.00  0.00    +0.159 HD
ATOM      8  H   UNL     1     -11.062   3.969  12.062  0.00  0.00    +0.159 HD
ATOM      9  H   UNL     1     -10.765   3.940  13.756  0.00  0.00    +0.159 HD
ENDROOT
BRANCH   1  10
ATOM     10  C   UNL     1     -10.421   5.771  10.348  0.00  0.00    +0.151 C 
BRANCH  10  11
ATOM     11  C   UNL     1     -11.340   6.768   9.697  0.00  0.00    -0.028 A 
ATOM     12  C   UNL     1     -10.877   8.049   9.361  0.00  0.00    +0.005 A 
ATOM     13  C   UNL     1     -12.672   6.436   9.408  0.00  0.00    +0.005 A 
ATOM     14  C   UNL     1     -11.721   8.965   8.729  0.00  0.00    +0.000 A 
ATOM     15  C   UNL     1     -13.512   7.353   8.778  0.00  0.00    +0.000 A 
ATOM     16  C   UNL     1     -13.036   8.617   8.436  0.00  0.00    +0.000 A 
ENDBRANCH  10  11
ENDBRANCH   1  10
TORSDOF 2
ENDMDL
MODEL 4
REMARK VINA RESULT:    -5.276     24.816     26.402
REMARK INTER + INTRA:          -5.983
REMARK INTER:                  -5.800
REMARK INTRA:                  -0.183
REMARK UNBOUND:                -0.090
REMARK  Name = 1550473
REMARK  2 active torsions:
REMARK  status: ('A' for Active; 'I' for Inactive)
REMARK    1  A    between atoms: N_1  and  C_4
REMARK    2  A    between atoms: C_4  and  C_5
REMARK                            x       y       z     vdW  Elec       q    Type
REMARK                         _______ _______ _______ _____ _____    ______ ____
ROOT
ATOM      1  N   UNL     1       2.347  21.447  18.162  0.00  0.00    -0.354 N 
ATOM      2  N   UNL     1       1.360  20.294  19.912  0.00  0.00    -0.372 N 
ATOM      3  N   UNL     1       1.506  19.281  17.858  0.00  0.00    -0.372 N 
ATOM      4  C   UNL     1       1.744  20.346  18.630  0.00  0.00    +0.166 C 
ATOM      5  H   UNL     1       2.471  22.232  18.791  0.00  0.00    +0.163 HD
ATOM      6  H   UNL     1       0.906  19.476  20.294  0.00  0.00    +0.159 HD
ATOM      7  H   UNL     1       1.527  21.063  20.550  0.00  0.00    +0.159 HD
ATOM      8  H   UNL     1       1.766  19.259  16.881  0.00  0.00    +0.159 HD
ATOM      9  H   UNL     1       1.042  18.457  18.220  0.00  0.00    +0.159 HD
ENDROOT
BRANCH   1  10
ATOM     10  C   UNL     1       2.852  21.585  16.797  0.00  0.00    +0.151 C 
BRANCH  10  11
ATOM     11  C   UNL     1       4.325  21.283  16.786  0.00  0.00    -0.028 A 
ATOM     12  C   UNL     1       4.804  20.093  16.218  0.00  0.00    +0.005 A 
ATOM     13  C   UNL     1       5.248  22.187  17.335  0.00  0.00    +0.005 A 
ATOM     14  C   UNL     1       6.175  19.827  16.180  0.00  0.00    +0.000 A 
ATOM     15  C   UNL     1       6.616  21.916  17.296  0.00  0.00    +0.000 A 
ATOM     16  C   UNL     1       7.079  20.738  16.716  0.00  0.00    +0.000 A 
ENDBRANCH  10  11
ENDBRANCH   1  10
TORSDOF 2
ENDMDL
MODEL 5
REMARK VINA RESULT:    -5.198      1.154      2.024
REMARK INTER + INTRA:          -5.897
REMARK INTER:                  -5.743
REMARK INTRA:                  -0.154
REMARK UNBOUND:                -0.090
REMARK  Name = 1550473
REMARK  2 active torsions:
REMARK  status: ('A' for Active; 'I' for Inactive)
REMARK    1  A    between atoms: N_1  and  C_4
REMARK    2  A    between atoms: C_4  and  C_5
REMARK                            x       y       z     vdW  Elec       q    Type
REMARK                         _______ _______ _______ _____ _____    ______ ____
ROOT
ATOM      1  N   UNL     1      12.158   2.202   2.775  0.00  0.00    -0.354 N 
ATOM      2  N   UNL     1      10.528   1.980   4.404  0.00  0.00    -0.372 N 
ATOM      3  N   UNL     1      10.965   4.064   3.550  0.00  0.00    -0.372 N 
ATOM      4  C   UNL     1      11.228   2.753   3.565  0.00  0.00    +0.166 C 
ATOM      5  H   UNL     1      12.331   1.207   2.856  0.00  0.00    +0.163 HD
ATOM      6  H   UNL     1       9.816   2.366   5.010  0.00  0.00    +0.159 HD
ATOM      7  H   UNL     1      10.670   0.978   4.450  0.00  0.00    +0.159 HD
ATOM      8  H   UNL     1      11.462   4.703   2.944  0.00  0.00    +0.159 HD
ATOM      9  H   UNL     1      10.265   4.471   4.157  0.00  0.00    +0.159 HD
ENDROOT
BRANCH   1  10
ATOM     10  C   UNL     1      12.938   2.948   1.788  0.00  0.00    +0.151 C 
BRANCH  10  11
ATOM     11  C   UNL     1      12.259   2.850   0.450  0.00  0.00    -0.028 A 
ATOM     12  C   UNL     1      11.626   1.661   0.057  0.00  0.00    +0.005 A 
ATOM     13  C   UNL     1      12.240   3.944  -0.428  0.00  0.00    +0.005 A 
ATOM     14  C   UNL     1      10.970   1.580  -1.173  0.00  0.00    +0.000 A 
ATOM     15  C   UNL     1      11.584   3.859  -1.656  0.00  0.00    +0.000 A 
ATOM     16  C   UNL     1      10.947   2.677  -2.027  0.00  0.00    +0.000 A 
ENDBRANCH  10  11
ENDBRANCH   1  10
TORSDOF 2
ENDMDL
MODEL 6
REMARK VINA RESULT:    -4.923     15.157     16.234
REMARK INTER + INTRA:          -5.589
REMARK INTER:                  -5.442
REMARK INTRA:                  -0.146
REMARK UNBOUND:                -0.090
REMARK  Name = 1550473
REMARK  2 active torsions:
REMARK  status: ('A' for Active; 'I' for Inactive)
REMARK    1  A    between atoms: N_1  and  C_4
REMARK    2  A    between atoms: C_4  and  C_5
REMARK                            x       y       z     vdW  Elec       q    Type
REMARK                         _______ _______ _______ _____ _____    ______ ____
ROOT
ATOM      1  N   UNL     1       3.952 -10.728   8.116  0.00  0.00    -0.354 N 
ATOM      2  N   UNL     1       3.048 -12.298   9.559  0.00  0.00    -0.372 N 
ATOM      3  N   UNL     1       1.924 -11.793   7.624  0.00  0.00    -0.372 N 
ATOM      4  C   UNL     1       2.979 -11.596   8.421  0.00  0.00    +0.166 C 
ATOM      5  H   UNL     1       4.710 -10.602   8.777  0.00  0.00    +0.163 HD
ATOM      6  H   UNL     1       2.330 -12.962   9.814  0.00  0.00    +0.159 HD
ATOM      7  H   UNL     1       3.830 -12.204  10.196  0.00  0.00    +0.159 HD
ATOM      8  H   UNL     1       1.809 -11.290   6.754  0.00  0.00    +0.159 HD
ATOM      9  H   UNL     1       1.189 -12.445   7.868  0.00  0.00    +0.159 HD
ENDROOT
BRANCH   1  10
ATOM     10  C   UNL     1       3.999  -9.954   6.877  0.00  0.00    +0.151 C 
BRANCH  10  11
ATOM     11  C   UNL     1       5.000 -10.578   5.945  0.00  0.00    -0.028 A 
ATOM     12  C   UNL     1       4.906 -10.377   4.560  0.00  0.00    +0.005 A 
ATOM     13  C   UNL     1       6.049 -11.368   6.440  0.00  0.00    +0.005 A 
ATOM     14  C   UNL     1       5.853 -10.932   3.696  0.00  0.00    +0.000 A 
ATOM     15  C   UNL     1       6.992 -11.921   5.575  0.00  0.00    +0.000 A 
ATOM     16  C   UNL     1       6.896 -11.701   4.203  0.00  0.00    +0.000 A 
ENDBRANCH  10  11
ENDBRANCH   1  10
TORSDOF 2
ENDMDL
MODEL 7
REMARK VINA RESULT:    -4.913     24.800     25.924
REMARK INTER + INTRA:          -5.577
REMARK INTER:                  -5.469
REMARK INTRA:                  -0.109
REMARK UNBOUND:                -0.090
REMARK  Name = 1550473
REMARK  2 active torsions:
REMARK  status: ('A' for Active; 'I' for Inactive)
REMARK    1  A    between atoms: N_1  and  C_4
REMARK    2  A    between atoms: C_4  and  C_5
REMARK                            x       y       z     vdW  Elec       q    Type
REMARK                         _______ _______ _______ _____ _____    ______ ____
ROOT
ATOM      1  N   UNL     1     -11.874   6.080  12.429  0.00  0.00    -0.354 N 
ATOM      2  N   UNL     1     -10.789   4.122  13.020  0.00  0.00    -0.372 N 
ATOM      3  N   UNL     1      -9.988   6.118  13.819  0.00  0.00    -0.372 N 
ATOM      4  C   UNL     1     -10.889   5.455  13.087  0.00  0.00    +0.166 C 
ATOM      5  H   UNL     1     -12.507   5.523  11.866  0.00  0.00    +0.163 HD
ATOM      6  H   UNL     1     -10.058   3.622  13.509  0.00  0.00    +0.159 HD
ATOM      7  H   UNL     1     -11.450   3.563  12.494  0.00  0.00    +0.159 HD
ATOM      8  H   UNL     1     -10.006   7.125  13.906  0.00  0.00    +0.159 HD
ATOM      9  H   UNL     1      -9.243   5.636  14.306  0.00  0.00    +0.159 HD
ENDROOT
BRANCH   1  10
ATOM     10  C   UNL     1     -12.104   7.523  12.479  0.00  0.00    +0.151 C 
BRANCH  10  11
ATOM     11  C   UNL     1     -11.897   8.102  11.107  0.00  0.00    -0.028 A 
ATOM     12  C   UNL     1     -12.634   9.219  10.687  0.00  0.00    +0.005 A 
ATOM     13  C   UNL     1     -10.962   7.541  10.224  0.00  0.00    +0.005 A 
ATOM     14  C   UNL     1     -12.420   9.775   9.424  0.00  0.00    +0.000 A 
ATOM     15  C   UNL     1     -10.752   8.099   8.963  0.00  0.00    +0.000 A 
ATOM     16  C   UNL     1     -11.480   9.218   8.564  0.00  0.00    +0.000 A 
ENDBRANCH  10  11
ENDBRANCH   1  10
TORSDOF 2
ENDMDL
MODEL 8
REMARK VINA RESULT:    -4.696     22.153     23.952
REMARK INTER + INTRA:          -5.335
REMARK INTER:                  -5.237
REMARK INTRA:                  -0.098
REMARK UNBOUND:                -0.090
REMARK  Name = 1550473
REMARK  2 active torsions:
REMARK  status: ('A' for Active; 'I' for Inactive)
REMARK    1  A    between atoms: N_1  and  C_4
REMARK    2  A    between atoms: C_4  and  C_5
REMARK                            x       y       z     vdW  Elec       q    Type
REMARK                         _______ _______ _______ _____ _____    ______ ____
ROOT
ATOM      1  N   UNL     1       6.580  -0.812 -20.799  0.00  0.00    -0.354 N 
ATOM      2  N   UNL     1       7.655   0.788 -19.515  0.00  0.00    -0.372 N 
ATOM      3  N   UNL     1       5.436   0.356 -19.120  0.00  0.00    -0.372 N 
ATOM      4  C   UNL     1       6.547   0.101 -19.819  0.00  0.00    +0.166 C 
ATOM      5  H   UNL     1       7.445  -0.937 -21.312  0.00  0.00    +0.163 HD
ATOM      6  H   UNL     1       7.661   1.481 -18.778  0.00  0.00    +0.159 HD
ATOM      7  H   UNL     1       8.530   0.628 -19.998  0.00  0.00    +0.159 HD
ATOM      8  H   UNL     1       4.565  -0.124 -19.304  0.00  0.00    +0.159 HD
ATOM      9  H   UNL     1       5.420   1.054 -18.386  0.00  0.00    +0.159 HD
ENDROOT
BRANCH   1  10
ATOM     10  C   UNL     1       5.443  -1.652 -21.172  0.00  0.00    +0.151 C 
BRANCH  10  11
ATOM     11  C   UNL     1       5.620  -2.116 -22.592  0.00  0.00    -0.028 A 
ATOM     12  C   UNL     1       4.732  -1.697 -23.594  0.00  0.00    +0.005 A 
ATOM     13  C   UNL     1       6.677  -2.969 -22.943  0.00  0.00    +0.005 A 
ATOM     14  C   UNL     1       4.914  -2.103 -24.918  0.00  0.00    +0.000 A 
ATOM     15  C   UNL     1       6.855  -3.373 -24.266  0.00  0.00    +0.000 A 
ATOM     16  C   UNL     1       5.974  -2.938 -25.254  0.00  0.00    +0.000 A 
ENDBRANCH  10  11
ENDBRANCH   1  10
TORSDOF 2
ENDMDL
MODEL 9
REMARK VINA RESULT:    -4.690     20.132     21.072
REMARK INTER + INTRA:          -5.329
REMARK INTER:                  -5.202
REMARK INTRA:                  -0.127
REMARK UNBOUND:                -0.090
REMARK  Name = 1550473
REMARK  2 active torsions:
REMARK  status: ('A' for Active; 'I' for Inactive)
REMARK    1  A    between atoms: N_1  and  C_4
REMARK    2  A    between atoms: C_4  and  C_5
REMARK                            x       y       z     vdW  Elec       q    Type
REMARK                         _______ _______ _______ _____ _____    ______ ____
ROOT
ATOM      1  N   UNL     1      -6.221 -11.430  -1.305  0.00  0.00    -0.354 N 
ATOM      2  N   UNL     1      -7.703 -11.533  -3.082  0.00  0.00    -0.372 N 
ATOM      3  N   UNL     1      -7.215  -9.489  -2.162  0.00  0.00    -0.372 N 
ATOM      4  C   UNL     1      -7.037 -10.814  -2.171  0.00  0.00    +0.166 C 
ATOM      5  H   UNL     1      -6.152 -12.441  -1.344  0.00  0.00    +0.163 HD
ATOM      6  H   UNL     1      -8.323 -11.095  -3.750  0.00  0.00    +0.159 HD
ATOM      7  H   UNL     1      -7.598 -12.538  -3.148  0.00  0.00    +0.159 HD
ATOM      8  H   UNL     1      -6.746  -8.890  -1.496  0.00  0.00    +0.159 HD
ATOM      9  H   UNL     1      -7.840  -9.033  -2.815  0.00  0.00    +0.159 HD
ENDROOT
BRANCH   1  10
ATOM     10  C   UNL     1      -5.408 -10.734  -0.309  0.00  0.00    +0.151 C 
BRANCH  10  11
ATOM     11  C   UNL     1      -3.974 -10.732  -0.760  0.00  0.00    -0.028 A 
ATOM     12  C   UNL     1      -3.010 -11.482  -0.070  0.00  0.00    +0.005 A 
ATOM     13  C   UNL     1      -3.572  -9.987  -1.880  0.00  0.00    +0.005 A 
ATOM     14  C   UNL     1      -1.683 -11.505  -0.506  0.00  0.00    +0.000 A 
ATOM     15  C   UNL     1      -2.246 -10.012  -2.311  0.00  0.00    +0.000 A 
ATOM     16  C   UNL     1      -1.302 -10.773  -1.625  0.00  0.00    +0.000 A 
ENDBRANCH  10  11
ENDBRANCH   1  10
TORSDOF 2
ENDMDL
