MODEL 1
REMARK VINA RESULT:    -5.405      0.000      0.000
REMARK INTER + INTRA:          -6.133
REMARK INTER:                  -6.037
REMARK INTRA:                  -0.096
REMARK UNBOUND:                -0.096
REMARK  Name = 1550473
REMARK  2 active torsions:
REMARK  status: ('A' for Active; 'I' for Inactive)
REMARK    1  A    between atoms: N_1  and  C_4
REMARK    2  A    between atoms: C_4  and  C_5
REMARK                            x       y       z     vdW  Elec       q    Type
REMARK                         _______ _______ _______ _____ _____    ______ ____
ROOT
ATOM      1  N   UNL     1      -0.142  -4.659  -3.654  0.00  0.00    -0.354 N 
ATOM      2  N   UNL     1      -0.567  -5.839  -5.601  0.00  0.00    -0.372 N 
ATOM      3  N   UNL     1       0.305  -3.722  -5.756  0.00  0.00    -0.372 N 
ATOM      4  C   UNL     1      -0.131  -4.730  -4.992  0.00  0.00    +0.166 C 
ATOM      5  H   UNL     1      -0.513  -5.445  -3.134  0.00  0.00    +0.163 HD
ATOM      6  H   UNL     1      -0.568  -5.923  -6.609  0.00  0.00    +0.159 HD
ATOM      7  H   UNL     1      -0.895  -6.641  -5.077  0.00  0.00    +0.159 HD
ATOM      8  H   UNL     1       0.641  -2.856  -5.358  0.00  0.00    +0.159 HD
ATOM      9  H   UNL     1       0.301  -3.783  -6.766  0.00  0.00    +0.159 HD
ENDROOT
BRANCH   1  10
ATOM     10  C   UNL     1       0.362  -3.517  -2.892  0.00  0.00    +0.151 C 
BRANCH  10  11
ATOM     11  C   UNL     1       0.094  -3.747  -1.430  0.00  0.00    -0.028 A 
ATOM     12  C   UNL     1      -1.212  -3.671  -0.925  0.00  0.00    +0.005 A 
ATOM     13  C   UNL     1       1.142  -4.045  -0.546  0.00  0.00    +0.005 A 
ATOM     14  C   UNL     1      -1.465  -3.914   0.427  0.00  0.00    +0.000 A 
ATOM     15  C   UNL     1       0.886  -4.286   0.804  0.00  0.00    +0.000 A 
ATOM     16  C   UNL     1      -0.418  -4.222   1.290  0.00  0.00    +0.000 A 
ENDBRANCH  10  11
ENDBRANCH   1  10
TORSDOF 2
ENDMDL
MODEL 2
REMARK VINA RESULT:    -5.288      9.778     10.778
REMARK INTER + INTRA:          -6.001
REMARK INTER:                  -5.868
REMARK INTRA:                  -0.133
REMARK UNBOUND:                -0.096
REMARK  Name = 1550473
REMARK  2 active torsions:
REMARK  status: ('A' for Active; 'I' for Inactive)
REMARK    1  A    between atoms: N_1  and  C_4
REMARK    2  A    between atoms: C_4  and  C_5
REMARK                            x       y       z     vdW  Elec       q    Type
REMARK                         _______ _______ _______ _____ _____    ______ ____
ROOT
ATOM      1  N   UNL     1       7.583  -7.311  -6.511  0.00  0.00    -0.354 N 
ATOM      2  N   UNL     1       6.834  -9.079  -7.806  0.00  0.00    -0.372 N 
ATOM      3  N   UNL     1       8.714  -9.363  -6.523  0.00  0.00    -0.372 N 
ATOM      4  C   UNL     1       7.718  -8.574  -6.937  0.00  0.00    +0.166 C 
ATOM      5  H   UNL     1       6.823  -6.755  -6.887  0.00  0.00    +0.163 HD
ATOM      6  H   UNL     1       6.908 -10.030  -8.143  0.00  0.00    +0.159 HD
ATOM      7  H   UNL     1       6.049  -8.536  -8.144  0.00  0.00    +0.159 HD
ATOM      8  H   UNL     1       9.418  -9.040  -5.872  0.00  0.00    +0.159 HD
ATOM      9  H   UNL     1       8.812 -10.313  -6.857  0.00  0.00    +0.159 HD
ENDROOT
BRANCH   1  10
ATOM     10  C   UNL     1       8.460  -6.682  -5.525  0.00  0.00    +0.151 C 
BRANCH  10  11
ATOM     11  C   UNL     1       9.061  -5.440  -6.123  0.00  0.00    -0.028 A 
ATOM     12  C   UNL     1       9.418  -5.404  -7.479  0.00  0.00    +0.005 A 
ATOM     13  C   UNL     1       9.271  -4.295  -5.340  0.00  0.00    +0.005 A 
ATOM     14  C   UNL     1       9.949  -4.241  -8.042  0.00  0.00    +0.000 A 
ATOM     15  C   UNL     1       9.802  -3.136  -5.906  0.00  0.00    +0.000 A 
ATOM     16  C   UNL     1      10.139  -3.108  -7.257  0.00  0.00    +0.000 A 
ENDBRANCH  10  11
ENDBRANCH   1  10
TORSDOF 2
ENDMDL
MODEL 3
REMARK VINA RESULT:    -5.264      3.674      4.147
REMARK INTER + INTRA:          -5.975
REMARK INTER:                  -5.816
REMARK INTRA:                  -0.159
REMARK UNBOUND:                -0.096
REMARK  Name = 1550473
REMARK  2 active torsions:
REMARK  status: ('A' for Active; 'I' for Inactive)
REMARK    1  A    between atoms: N_1  and  C_4
REMARK    2  A    between atoms: C_4  and  C_5
REMARK                            x       y       z     vdW  Elec       q    Type
REMARK                         _______ _______ _______ _____ _____    ______ ____
ROOT
ATOM      1  N   UNL     1       1.578  -0.696  -0.698  0.00  0.00    -0.354 N 
ATOM      2  N   UNL     1       2.402  -0.628  -2.862  0.00  0.00    -0.372 N 
ATOM      3  N   UNL     1       3.644  -1.665  -1.235  0.00  0.00    -0.372 N 
ATOM      4  C   UNL     1       2.538  -0.998  -1.583  0.00  0.00    +0.166 C 
ATOM      5  H   UNL     1       0.779  -0.162  -1.019  0.00  0.00    +0.163 HD
ATOM      6  H   UNL     1       3.108  -0.844  -3.553  0.00  0.00    +0.159 HD
ATOM      7  H   UNL     1       1.580  -0.134  -3.189  0.00  0.00    +0.159 HD
ATOM      8  H   UNL     1       3.810  -1.967  -0.284  0.00  0.00    +0.159 HD
ATOM      9  H   UNL     1       4.367  -1.880  -1.910  0.00  0.00    +0.159 HD
ENDROOT
BRANCH   1  10
ATOM     10  C   UNL     1       1.605  -1.100   0.706  0.00  0.00    +0.151 C 
BRANCH  10  11
ATOM     11  C   UNL     1       0.455  -2.032   0.971  0.00  0.00    -0.028 A 
ATOM     12  C   UNL     1      -0.765  -1.539   1.455  0.00  0.00    +0.005 A 
ATOM     13  C   UNL     1       0.578  -3.410   0.736  0.00  0.00    +0.005 A 
ATOM     14  C   UNL     1      -1.843  -2.400   1.672  0.00  0.00    +0.000 A 
ATOM     15  C   UNL     1      -0.500  -4.268   0.955  0.00  0.00    +0.000 A 
ATOM     16  C   UNL     1      -1.711  -3.762   1.421  0.00  0.00    +0.000 A 
ENDBRANCH  10  11
ENDBRANCH   1  10
TORSDOF 2
ENDMDL
MODEL 4
REMARK VINA RESULT:    -5.130      1.877      2.839
REMARK INTER + INTRA:          -5.825
REMARK INTER:                  -5.665
REMARK INTRA:                  -0.160
REMARK UNBOUND:                -0.096
REMARK  Name = 1550473
REMARK  2 active torsions:
REMARK  status: ('A' for Active; 'I' for Inactive)
REMARK    1  A    between atoms: N_1  and  C_4
REMARK    2  A    between atoms: C_4  and  C_5
REMARK                            x       y       z     vdW  Elec       q    Type
REMARK                         _______ _______ _______ _____ _____    ______ ____
ROOT
ATOM      1  N   UNL     1       0.851  -2.846  -3.459  0.00  0.00    -0.354 N 
ATOM      2  N   UNL     1       2.057  -0.973  -4.091  0.00  0.00    -0.372 N 
ATOM      3  N   UNL     1      -0.139  -0.722  -3.476  0.00  0.00    -0.372 N 
ATOM      4  C   UNL     1       0.912  -1.525  -3.671  0.00  0.00    +0.166 C 
ATOM      5  H   UNL     1       1.674  -3.404  -3.654  0.00  0.00    +0.163 HD
ATOM      6  H   UNL     1       2.135   0.022  -4.256  0.00  0.00    +0.159 HD
ATOM      7  H   UNL     1       2.892  -1.526  -4.241  0.00  0.00    +0.159 HD
ATOM      8  H   UNL     1      -1.034  -1.077  -3.165  0.00  0.00    +0.159 HD
ATOM      9  H   UNL     1      -0.085   0.274  -3.647  0.00  0.00    +0.159 HD
ENDROOT
BRANCH   1  10
ATOM     10  C   UNL     1      -0.332  -3.538  -2.950  0.00  0.00    +0.151 C 
BRANCH  10  11
ATOM     11  C   UNL     1      -0.157  -3.793  -1.478  0.00  0.00    -0.028 A 
ATOM     12  C   UNL     1       1.117  -4.042  -0.946  0.00  0.00    +0.005 A 
ATOM     13  C   UNL     1      -1.259  -3.781  -0.610  0.00  0.00    +0.005 A 
ATOM     14  C   UNL     1       1.284  -4.249   0.426  0.00  0.00    +0.000 A 
ATOM     15  C   UNL     1      -1.088  -3.989   0.758  0.00  0.00    +0.000 A 
ATOM     16  C   UNL     1       0.184  -4.220   1.276  0.00  0.00    +0.000 A 
ENDBRANCH  10  11
ENDBRANCH   1  10
TORSDOF 2
ENDMDL
MODEL 5
REMARK VINA RESULT:    -4.835      3.771      4.775
REMARK INTER + INTRA:          -5.496
REMARK INTER:                  -5.390
REMARK INTRA:                  -0.106
REMARK UNBOUND:                -0.096
REMARK  Name = 1550473
REMARK  2 active torsions:
REMARK  status: ('A' for Active; 'I' for Inactive)
REMARK    1  A    between atoms: N_1  and  C_4
REMARK    2  A    between atoms: C_4  and  C_5
REMARK                            x       y       z     vdW  Elec       q    Type
REMARK                         _______ _______ _______ _____ _____    ______ ____
ROOT
ATOM      1  N   UNL     1       0.617  -0.893  -0.702  0.00  0.00    -0.354 N 
ATOM      2  N   UNL     1       2.797  -0.879  -1.482  0.00  0.00    -0.372 N 
ATOM      3  N   UNL     1       1.310  -2.382  -2.373  0.00  0.00    -0.372 N 
ATOM      4  C   UNL     1       1.559  -1.387  -1.515  0.00  0.00    +0.166 C 
ATOM      5  H   UNL     1       0.878  -0.158  -0.053  0.00  0.00    +0.163 HD
ATOM      6  H   UNL     1       3.528  -1.230  -2.087  0.00  0.00    +0.159 HD
ATOM      7  H   UNL     1       3.044  -0.115  -0.866  0.00  0.00    +0.159 HD
ATOM      8  H   UNL     1       0.397  -2.813  -2.442  0.00  0.00    +0.159 HD
ATOM      9  H   UNL     1       2.031  -2.755  -2.977  0.00  0.00    +0.159 HD
ENDROOT
BRANCH   1  10
ATOM     10  C   UNL     1      -0.775  -1.338  -0.697  0.00  0.00    +0.151 C 
BRANCH  10  11
ATOM     11  C   UNL     1      -1.371  -1.075   0.659  0.00  0.00    -0.028 A 
ATOM     12  C   UNL     1      -0.988  -1.847   1.766  0.00  0.00    +0.005 A 
ATOM     13  C   UNL     1      -2.314  -0.053   0.844  0.00  0.00    +0.005 A 
ATOM     14  C   UNL     1      -1.519  -1.583   3.031  0.00  0.00    +0.000 A 
ATOM     15  C   UNL     1      -2.841   0.207   2.108  0.00  0.00    +0.000 A 
ATOM     16  C   UNL     1      -2.442  -0.557   3.202  0.00  0.00    +0.000 A 
ENDBRANCH  10  11
ENDBRANCH   1  10
TORSDOF 2
ENDMDL
MODEL 6
REMARK VINA RESULT:    -4.753      2.506      3.295
REMARK INTER + INTRA:          -5.404
REMARK INTER:                  -5.234
REMARK INTRA:                  -0.170
REMARK UNBOUND:                -0.096
REMARK  Name = 1550473
REMARK  2 active torsions:
REMARK  status: ('A' for Active; 'I' for Inactive)
REMARK    1  A    between atoms: N_1  and  C_4
REMARK    2  A    between atoms: C_4  and  C_5
REMARK                            x       y       z     vdW  Elec       q    Type
REMARK                         _______ _______ _______ _____ _____    ______ ____
ROOT
ATOM      1  N   UNL     1       0.990  -2.893  -1.657  0.00  0.00    -0.354 N 
ATOM      2  N   UNL     1       2.090  -0.855  -1.605  0.00  0.00    -0.372 N 
ATOM      3  N   UNL     1       0.274  -1.101  -2.987  0.00  0.00    -0.372 N 
ATOM      4  C   UNL     1       1.109  -1.629  -2.086  0.00  0.00    +0.166 C 
ATOM      5  H   UNL     1       1.672  -3.243  -0.995  0.00  0.00    +0.163 HD
ATOM      6  H   UNL     1       2.203   0.103  -1.908  0.00  0.00    +0.159 HD
ATOM      7  H   UNL     1       2.743  -1.194  -0.910  0.00  0.00    +0.159 HD
ATOM      8  H   UNL     1      -0.483  -1.634  -3.393  0.00  0.00    +0.159 HD
ATOM      9  H   UNL     1       0.378  -0.147  -3.311  0.00  0.00    +0.159 HD
ENDROOT
BRANCH   1  10
ATOM     10  C   UNL     1      -0.076  -3.801  -2.077  0.00  0.00    +0.151 C 
BRANCH  10  11
ATOM     11  C   UNL     1      -1.142  -3.831  -1.017  0.00  0.00    -0.028 A 
ATOM     12  C   UNL     1      -2.499  -3.823  -1.371  0.00  0.00    +0.005 A 
ATOM     13  C   UNL     1      -0.802  -3.873   0.344  0.00  0.00    +0.005 A 
ATOM     14  C   UNL     1      -3.490  -3.881  -0.388  0.00  0.00    +0.000 A 
ATOM     15  C   UNL     1      -1.794  -3.930   1.323  0.00  0.00    +0.000 A 
ATOM     16  C   UNL     1      -3.138  -3.937   0.956  0.00  0.00    +0.000 A 
ENDBRANCH  10  11
ENDBRANCH   1  10
TORSDOF 2
ENDMDL
MODEL 7
REMARK VINA RESULT:    -4.590     21.278     22.126
REMARK INTER + INTRA:          -5.223
REMARK INTER:                  -5.126
REMARK INTRA:                  -0.097
REMARK UNBOUND:                -0.096
REMARK  Name = 1550473
REMARK  2 active torsions:
REMARK  status: ('A' for Active; 'I' for Inactive)
REMARK    1  A    between atoms: N_1  and  C_4
REMARK    2  A    between atoms: C_4  and  C_5
REMARK                            x       y       z     vdW  Elec       q    Type
REMARK                         _______ _______ _______ _____ _____    ______ ____
ROOT
ATOM      1  N   UNL     1       9.353  -2.075  17.771  0.00  0.00    -0.354 N 
ATOM      2  N   UNL     1      10.820  -3.706  18.516  0.00  0.00    -0.372 N 
ATOM      3  N   UNL     1      11.640  -1.963  17.269  0.00  0.00    -0.372 N 
ATOM      4  C   UNL     1      10.596  -2.569  17.845  0.00  0.00    +0.166 C 
ATOM      5  H   UNL     1       8.601  -2.598  18.204  0.00  0.00    +0.163 HD
ATOM      6  H   UNL     1      11.747  -4.101  18.592  0.00  0.00    +0.159 HD
ATOM      7  H   UNL     1      10.073  -4.202  18.987  0.00  0.00    +0.159 HD
ATOM      8  H   UNL     1      11.537  -1.105  16.743  0.00  0.00    +0.159 HD
ATOM      9  H   UNL     1      12.574  -2.349  17.324  0.00  0.00    +0.159 HD
ENDROOT
BRANCH   1  10
ATOM     10  C   UNL     1       9.012  -0.816  17.111  0.00  0.00    +0.151 C 
BRANCH  10  11
ATOM     11  C   UNL     1       7.650  -0.375  17.570  0.00  0.00    -0.028 A 
ATOM     12  C   UNL     1       6.512  -1.131  17.253  0.00  0.00    +0.005 A 
ATOM     13  C   UNL     1       7.491   0.796  18.328  0.00  0.00    +0.005 A 
ATOM     14  C   UNL     1       5.250  -0.737  17.705  0.00  0.00    +0.000 A 
ATOM     15  C   UNL     1       6.229   1.186  18.776  0.00  0.00    +0.000 A 
ATOM     16  C   UNL     1       5.109   0.418  18.466  0.00  0.00    +0.000 A 
ENDBRANCH  10  11
ENDBRANCH   1  10
TORSDOF 2
ENDMDL
MODEL 8
REMARK VINA RESULT:    -4.552     10.255     11.244
REMARK INTER + INTRA:          -5.179
REMARK INTER:                  -5.049
REMARK INTRA:                  -0.131
REMARK UNBOUND:                -0.096
REMARK  Name = 1550473
REMARK  2 active torsions:
REMARK  status: ('A' for Active; 'I' for Inactive)
REMARK    1  A    between atoms: N_1  and  C_4
REMARK    2  A    between atoms: C_4  and  C_5
REMARK                            x       y       z     vdW  Elec       q    Type
REMARK                         _______ _______ _______ _____ _____    ______ ____
ROOT
ATOM      1  N   UNL     1       9.480  -7.796  -8.615  0.00  0.00    -0.354 N 
ATOM      2  N   UNL     1       8.781 -10.004  -8.612  0.00  0.00    -0.372 N 
ATOM      3  N   UNL     1       7.462  -8.425  -9.628  0.00  0.00    -0.372 N 
ATOM      4  C   UNL     1       8.577  -8.726  -8.953  0.00  0.00    +0.166 C 
ATOM      5  H   UNL     1      10.289  -8.083  -8.077  0.00  0.00    +0.163 HD
ATOM      6  H   UNL     1       8.119 -10.728  -8.855  0.00  0.00    +0.159 HD
ATOM      7  H   UNL     1       9.613 -10.296  -8.114  0.00  0.00    +0.159 HD
ATOM      8  H   UNL     1       7.246  -7.478  -9.910  0.00  0.00    +0.159 HD
ATOM      9  H   UNL     1       6.782  -9.134  -9.871  0.00  0.00    +0.159 HD
ENDROOT
BRANCH   1  10
ATOM     10  C   UNL     1       9.379  -6.385  -8.986  0.00  0.00    +0.151 C 
BRANCH  10  11
ATOM     11  C   UNL     1       9.420  -5.546  -7.738  0.00  0.00    -0.028 A 
ATOM     12  C   UNL     1       9.801  -4.197  -7.800  0.00  0.00    +0.005 A 
ATOM     13  C   UNL     1       9.075  -6.092  -6.493  0.00  0.00    +0.005 A 
ATOM     14  C   UNL     1       9.811  -3.409  -6.647  0.00  0.00    +0.000 A 
ATOM     15  C   UNL     1       9.088  -5.302  -5.343  0.00  0.00    +0.000 A 
ATOM     16  C   UNL     1       9.453  -3.960  -5.421  0.00  0.00    +0.000 A 
ENDBRANCH  10  11
ENDBRANCH   1  10
TORSDOF 2
ENDMDL
MODEL 9
REMARK VINA RESULT:    -4.449     28.857     29.961
REMARK INTER + INTRA:          -5.065
REMARK INTER:                  -4.928
REMARK INTRA:                  -0.137
REMARK UNBOUND:                -0.096
REMARK  Name = 1550473
REMARK  2 active torsions:
REMARK  status: ('A' for Active; 'I' for Inactive)
REMARK    1  A    between atoms: N_1  and  C_4
REMARK    2  A    between atoms: C_4  and  C_5
REMARK                            x       y       z     vdW  Elec       q    Type
REMARK                         _______ _______ _______ _____ _____    ______ ____
ROOT
ATOM      1  N   UNL     1     -29.616 -14.453  -1.782  0.00  0.00    -0.354 N 
ATOM      2  N   UNL     1     -30.317 -16.447  -2.731  0.00  0.00    -0.372 N 
ATOM      3  N   UNL     1     -31.517 -14.536  -3.150  0.00  0.00    -0.372 N 
ATOM      4  C   UNL     1     -30.481 -15.131  -2.549  0.00  0.00    +0.166 C 
ATOM      5  H   UNL     1     -28.869 -14.968  -1.329  0.00  0.00    +0.163 HD
ATOM      6  H   UNL     1     -30.951 -16.983  -3.307  0.00  0.00    +0.159 HD
ATOM      7  H   UNL     1     -29.543 -16.950  -2.314  0.00  0.00    +0.159 HD
ATOM      8  H   UNL     1     -31.700 -13.547  -3.048  0.00  0.00    +0.159 HD
ATOM      9  H   UNL     1     -32.170 -15.059  -3.721  0.00  0.00    +0.159 HD
ENDROOT
BRANCH   1  10
ATOM     10  C   UNL     1     -29.675 -13.009  -1.563  0.00  0.00    +0.151 C 
BRANCH  10  11
ATOM     11  C   UNL     1     -28.275 -12.459  -1.544  0.00  0.00    -0.028 A 
ATOM     12  C   UNL     1     -27.193 -13.251  -1.952  0.00  0.00    +0.005 A 
ATOM     13  C   UNL     1     -28.026 -11.143  -1.124  0.00  0.00    +0.005 A 
ATOM     14  C   UNL     1     -25.896 -12.730  -1.962  0.00  0.00    +0.000 A 
ATOM     15  C   UNL     1     -26.730 -10.627  -1.135  0.00  0.00    +0.000 A 
ATOM     16  C   UNL     1     -25.666 -11.420  -1.557  0.00  0.00    +0.000 A 
ENDBRANCH  10  11
ENDBRANCH   1  10
TORSDOF 2
ENDMDL
