MODEL 1
REMARK VINA RESULT:    -5.665      0.000      0.000
REMARK INTER + INTRA:          -6.422
REMARK INTER:                  -6.327
REMARK INTRA:                  -0.095
REMARK UNBOUND:                -0.095
REMARK  Name = 1550473
REMARK  2 active torsions:
REMARK  status: ('A' for Active; 'I' for Inactive)
REMARK    1  A    between atoms: N_1  and  C_4
REMARK    2  A    between atoms: C_4  and  C_5
REMARK                            x       y       z     vdW  Elec       q    Type
REMARK                         _______ _______ _______ _____ _____    ______ ____
ROOT
ATOM      1  N   UNL     1     -12.284   4.220 -12.247  0.00  0.00    -0.354 N 
ATOM      2  N   UNL     1     -12.677   1.982 -12.698  0.00  0.00    -0.372 N 
ATOM      3  N   UNL     1     -11.266   2.535 -10.974  0.00  0.00    -0.372 N 
ATOM      4  C   UNL     1     -12.071   2.927 -11.968  0.00  0.00    +0.166 C 
ATOM      5  H   UNL     1     -12.881   4.451 -13.033  0.00  0.00    +0.163 HD
ATOM      6  H   UNL     1     -12.538   0.999 -12.509  0.00  0.00    +0.159 HD
ATOM      7  H   UNL     1     -13.309   2.216 -13.453  0.00  0.00    +0.159 HD
ATOM      8  H   UNL     1     -10.775   3.199 -10.391  0.00  0.00    +0.159 HD
ATOM      9  H   UNL     1     -11.106   1.556 -10.777  0.00  0.00    +0.159 HD
ENDROOT
BRANCH   1  10
ATOM     10  C   UNL     1     -11.715   5.326 -11.479  0.00  0.00    +0.151 C 
BRANCH  10  11
ATOM     11  C   UNL     1     -12.392   6.606 -11.887  0.00  0.00    -0.028 A 
ATOM     12  C   UNL     1     -12.192   7.140 -13.168  0.00  0.00    +0.005 A 
ATOM     13  C   UNL     1     -13.239   7.286 -10.998  0.00  0.00    +0.005 A 
ATOM     14  C   UNL     1     -12.845   8.313 -13.557  0.00  0.00    +0.000 A 
ATOM     15  C   UNL     1     -13.887   8.456 -11.390  0.00  0.00    +0.000 A 
ATOM     16  C   UNL     1     -13.692   8.968 -12.670  0.00  0.00    +0.000 A 
ENDBRANCH  10  11
ENDBRANCH   1  10
TORSDOF 2
ENDMDL
MODEL 2
REMARK VINA RESULT:    -5.457     13.877     15.157
REMARK INTER + INTRA:          -6.191
REMARK INTER:                  -6.046
REMARK INTRA:                  -0.144
REMARK UNBOUND:                -0.095
REMARK  Name = 1550473
REMARK  2 active torsions:
REMARK  status: ('A' for Active; 'I' for Inactive)
REMARK    1  A    between atoms: N_1  and  C_4
REMARK    2  A    between atoms: C_4  and  C_5
REMARK                            x       y       z     vdW  Elec       q    Type
REMARK                         _______ _______ _______ _____ _____    ______ ____
ROOT
ATOM      1  N   UNL     1      -0.069   6.230  -8.186  0.00  0.00    -0.354 N 
ATOM      2  N   UNL     1      -0.840   6.664  -6.046  0.00  0.00    -0.372 N 
ATOM      3  N   UNL     1      -0.532   4.484  -6.693  0.00  0.00    -0.372 N 
ATOM      4  C   UNL     1      -0.475   5.787  -6.989  0.00  0.00    +0.166 C 
ATOM      5  H   UNL     1      -0.077   7.229  -8.358  0.00  0.00    +0.163 HD
ATOM      6  H   UNL     1      -1.149   6.359  -5.132  0.00  0.00    +0.159 HD
ATOM      7  H   UNL     1      -0.804   7.663  -6.205  0.00  0.00    +0.159 HD
ATOM      8  H   UNL     1      -0.276   3.771  -7.363  0.00  0.00    +0.159 HD
ATOM      9  H   UNL     1      -0.849   4.159  -5.788  0.00  0.00    +0.159 HD
ENDROOT
BRANCH   1  10
ATOM     10  C   UNL     1       0.401   5.361  -9.264  0.00  0.00    +0.151 C 
BRANCH  10  11
ATOM     11  C   UNL     1       1.893   5.501  -9.393  0.00  0.00    -0.028 A 
ATOM     12  C   UNL     1       2.646   4.516 -10.049  0.00  0.00    +0.005 A 
ATOM     13  C   UNL     1       2.558   6.618  -8.866  0.00  0.00    +0.005 A 
ATOM     14  C   UNL     1       4.028   4.660 -10.195  0.00  0.00    +0.000 A 
ATOM     15  C   UNL     1       3.938   6.758  -9.014  0.00  0.00    +0.000 A 
ATOM     16  C   UNL     1       4.672   5.780  -9.681  0.00  0.00    +0.000 A 
ENDBRANCH  10  11
ENDBRANCH   1  10
TORSDOF 2
ENDMDL
MODEL 3
REMARK VINA RESULT:    -5.428      2.415      3.222
REMARK INTER + INTRA:          -6.158
REMARK INTER:                  -6.078
REMARK INTRA:                  -0.080
REMARK UNBOUND:                -0.095
REMARK  Name = 1550473
REMARK  2 active torsions:
REMARK  status: ('A' for Active; 'I' for Inactive)
REMARK    1  A    between atoms: N_1  and  C_4
REMARK    2  A    between atoms: C_4  and  C_5
REMARK                            x       y       z     vdW  Elec       q    Type
REMARK                         _______ _______ _______ _____ _____    ______ ____
ROOT
ATOM      1  N   UNL     1     -12.776   3.184 -10.469  0.00  0.00    -0.354 N 
ATOM      2  N   UNL     1     -10.827   2.510 -11.524  0.00  0.00    -0.372 N 
ATOM      3  N   UNL     1     -12.649   3.057 -12.806  0.00  0.00    -0.372 N 
ATOM      4  C   UNL     1     -12.098   2.922 -11.595  0.00  0.00    +0.166 C 
ATOM      5  H   UNL     1     -12.311   3.032  -9.582  0.00  0.00    +0.163 HD
ATOM      6  H   UNL     1     -10.289   2.308 -12.356  0.00  0.00    +0.159 HD
ATOM      7  H   UNL     1     -10.350   2.404 -10.636  0.00  0.00    +0.159 HD
ATOM      8  H   UNL     1     -13.607   3.358 -12.928  0.00  0.00    +0.159 HD
ATOM      9  H   UNL     1     -12.131   2.848 -13.650  0.00  0.00    +0.159 HD
ENDROOT
BRANCH   1  10
ATOM     10  C   UNL     1     -14.147   3.689 -10.439  0.00  0.00    +0.151 C 
BRANCH  10  11
ATOM     11  C   UNL     1     -14.138   5.106  -9.936  0.00  0.00    -0.028 A 
ATOM     12  C   UNL     1     -15.298   5.674  -9.388  0.00  0.00    +0.005 A 
ATOM     13  C   UNL     1     -12.972   5.883  -9.998  0.00  0.00    +0.005 A 
ATOM     14  C   UNL     1     -15.282   6.980  -8.893  0.00  0.00    +0.000 A 
ATOM     15  C   UNL     1     -12.960   7.187  -9.503  0.00  0.00    +0.000 A 
ATOM     16  C   UNL     1     -14.115   7.734  -8.948  0.00  0.00    +0.000 A 
ENDBRANCH  10  11
ENDBRANCH   1  10
TORSDOF 2
ENDMDL
MODEL 4
REMARK VINA RESULT:    -4.764      2.246      3.290
REMARK INTER + INTRA:          -5.416
REMARK INTER:                  -5.237
REMARK INTRA:                  -0.179
REMARK UNBOUND:                -0.095
REMARK  Name = 1550473
REMARK  2 active torsions:
REMARK  status: ('A' for Active; 'I' for Inactive)
REMARK    1  A    between atoms: N_1  and  C_4
REMARK    2  A    between atoms: C_4  and  C_5
REMARK                            x       y       z     vdW  Elec       q    Type
REMARK                         _______ _______ _______ _____ _____    ______ ____
ROOT
ATOM      1  N   UNL     1     -14.299   2.246 -11.543  0.00  0.00    -0.354 N 
ATOM      2  N   UNL     1     -15.399   1.455 -13.421  0.00  0.00    -0.372 N 
ATOM      3  N   UNL     1     -13.105   1.506 -13.419  0.00  0.00    -0.372 N 
ATOM      4  C   UNL     1     -14.258   1.741 -12.783  0.00  0.00    +0.166 C 
ATOM      5  H   UNL     1     -15.205   2.429 -11.128  0.00  0.00    +0.163 HD
ATOM      6  H   UNL     1     -15.399   1.069 -14.356  0.00  0.00    +0.159 HD
ATOM      7  H   UNL     1     -16.302   1.595 -12.986  0.00  0.00    +0.159 HD
ATOM      8  H   UNL     1     -12.209   1.706 -12.994  0.00  0.00    +0.159 HD
ATOM      9  H   UNL     1     -13.085   1.132 -14.359  0.00  0.00    +0.159 HD
ENDROOT
BRANCH   1  10
ATOM     10  C   UNL     1     -13.113   2.542 -10.741  0.00  0.00    +0.151 C 
BRANCH  10  11
ATOM     11  C   UNL     1     -12.887   4.028 -10.727  0.00  0.00    -0.028 A 
ATOM     12  C   UNL     1     -13.702   4.865  -9.950  0.00  0.00    +0.005 A 
ATOM     13  C   UNL     1     -11.857   4.606 -11.485  0.00  0.00    +0.005 A 
ATOM     14  C   UNL     1     -13.474   6.243  -9.914  0.00  0.00    +0.000 A 
ATOM     15  C   UNL     1     -11.633   5.982 -11.446  0.00  0.00    +0.000 A 
ATOM     16  C   UNL     1     -12.440   6.800 -10.659  0.00  0.00    +0.000 A 
ENDBRANCH  10  11
ENDBRANCH   1  10
TORSDOF 2
ENDMDL
MODEL 5
REMARK VINA RESULT:    -4.721     25.378     27.918
REMARK INTER + INTRA:          -5.368
REMARK INTER:                  -5.204
REMARK INTRA:                  -0.164
REMARK UNBOUND:                -0.095
REMARK  Name = 1550473
REMARK  2 active torsions:
REMARK  status: ('A' for Active; 'I' for Inactive)
REMARK    1  A    between atoms: N_1  and  C_4
REMARK    2  A    between atoms: C_4  and  C_5
REMARK                            x       y       z     vdW  Elec       q    Type
REMARK                         _______ _______ _______ _____ _____    ______ ____
ROOT
ATOM      1  N   UNL     1     -13.309 -13.133   5.431  0.00  0.00    -0.354 N 
ATOM      2  N   UNL     1     -14.465 -11.188   4.938  0.00  0.00    -0.372 N 
ATOM      3  N   UNL     1     -12.594 -11.061   6.259  0.00  0.00    -0.372 N 
ATOM      4  C   UNL     1     -13.446 -11.806   5.548  0.00  0.00    +0.166 C 
ATOM      5  H   UNL     1     -14.006 -13.645   4.902  0.00  0.00    +0.163 HD
ATOM      6  H   UNL     1     -14.593 -10.187   5.005  0.00  0.00    +0.159 HD
ATOM      7  H   UNL     1     -15.134 -11.696   4.372  0.00  0.00    +0.159 HD
ATOM      8  H   UNL     1     -11.808 -11.467   6.749  0.00  0.00    +0.159 HD
ATOM      9  H   UNL     1     -12.712 -10.059   6.348  0.00  0.00    +0.159 HD
ENDROOT
BRANCH   1  10
ATOM     10  C   UNL     1     -12.204 -13.895   6.011  0.00  0.00    +0.151 C 
BRANCH  10  11
ATOM     11  C   UNL     1     -12.695 -14.616   7.236  0.00  0.00    -0.028 A 
ATOM     12  C   UNL     1     -13.089 -15.960   7.161  0.00  0.00    +0.005 A 
ATOM     13  C   UNL     1     -12.762 -13.962   8.476  0.00  0.00    +0.005 A 
ATOM     14  C   UNL     1     -13.516 -16.639   8.305  0.00  0.00    +0.000 A 
ATOM     15  C   UNL     1     -13.190 -14.643   9.616  0.00  0.00    +0.000 A 
ATOM     16  C   UNL     1     -13.565 -15.982   9.530  0.00  0.00    +0.000 A 
ENDBRANCH  10  11
ENDBRANCH   1  10
TORSDOF 2
ENDMDL
MODEL 6
REMARK VINA RESULT:    -4.720      8.388      9.221
REMARK INTER + INTRA:          -5.367
REMARK INTER:                  -5.272
REMARK INTRA:                  -0.095
REMARK UNBOUND:                -0.095
REMARK  Name = 1550473
REMARK  2 active torsions:
REMARK  status: ('A' for Active; 'I' for Inactive)
REMARK    1  A    between atoms: N_1  and  C_4
REMARK    2  A    between atoms: C_4  and  C_5
REMARK                            x       y       z     vdW  Elec       q    Type
REMARK                         _______ _______ _______ _____ _____    ______ ____
ROOT
ATOM      1  N   UNL     1      -5.770   6.279 -17.890  0.00  0.00    -0.354 N 
ATOM      2  N   UNL     1      -6.305   4.063 -18.299  0.00  0.00    -0.372 N 
ATOM      3  N   UNL     1      -7.501   5.707 -19.363  0.00  0.00    -0.372 N 
ATOM      4  C   UNL     1      -6.524   5.365 -18.516  0.00  0.00    +0.166 C 
ATOM      5  H   UNL     1      -5.065   5.956 -17.237  0.00  0.00    +0.163 HD
ATOM      6  H   UNL     1      -6.855   3.350 -18.759  0.00  0.00    +0.159 HD
ATOM      7  H   UNL     1      -5.570   3.742 -17.681  0.00  0.00    +0.159 HD
ATOM      8  H   UNL     1      -7.720   6.673 -19.566  0.00  0.00    +0.159 HD
ATOM      9  H   UNL     1      -8.070   5.008 -19.825  0.00  0.00    +0.159 HD
ENDROOT
BRANCH   1  10
ATOM     10  C   UNL     1      -5.891   7.721 -18.099  0.00  0.00    +0.151 C 
BRANCH  10  11
ATOM     11  C   UNL     1      -5.265   8.440 -16.936  0.00  0.00    -0.028 A 
ATOM     12  C   UNL     1      -3.873   8.441 -16.766  0.00  0.00    +0.005 A 
ATOM     13  C   UNL     1      -6.058   9.126 -16.004  0.00  0.00    +0.005 A 
ATOM     14  C   UNL     1      -3.289   9.134 -15.702  0.00  0.00    +0.000 A 
ATOM     15  C   UNL     1      -5.471   9.816 -14.943  0.00  0.00    +0.000 A 
ATOM     16  C   UNL     1      -4.087   9.822 -14.794  0.00  0.00    +0.000 A 
ENDBRANCH  10  11
ENDBRANCH   1  10
TORSDOF 2
ENDMDL
MODEL 7
REMARK VINA RESULT:    -4.664     25.137     27.829
REMARK INTER + INTRA:          -5.304
REMARK INTER:                  -5.169
REMARK INTRA:                  -0.135
REMARK UNBOUND:                -0.095
REMARK  Name = 1550473
REMARK  2 active torsions:
REMARK  status: ('A' for Active; 'I' for Inactive)
REMARK    1  A    between atoms: N_1  and  C_4
REMARK    2  A    between atoms: C_4  and  C_5
REMARK                            x       y       z     vdW  Elec       q    Type
REMARK                         _______ _______ _______ _____ _____    ______ ____
ROOT
ATOM      1  N   UNL     1     -13.123 -13.081   5.285  0.00  0.00    -0.354 N 
ATOM      2  N   UNL     1     -14.451 -11.197   5.056  0.00  0.00    -0.372 N 
ATOM      3  N   UNL     1     -12.566 -11.074   6.359  0.00  0.00    -0.372 N 
ATOM      4  C   UNL     1     -13.369 -11.795   5.570  0.00  0.00    +0.166 C 
ATOM      5  H   UNL     1     -13.787 -13.581   4.705  0.00  0.00    +0.163 HD
ATOM      6  H   UNL     1     -14.661 -10.227   5.250  0.00  0.00    +0.159 HD
ATOM      7  H   UNL     1     -15.088 -11.686   4.439  0.00  0.00    +0.159 HD
ATOM      8  H   UNL     1     -11.738 -11.468   6.783  0.00  0.00    +0.159 HD
ATOM      9  H   UNL     1     -12.766 -10.105   6.575  0.00  0.00    +0.159 HD
ENDROOT
BRANCH   1  10
ATOM     10  C   UNL     1     -11.945 -13.810   5.751  0.00  0.00    +0.151 C 
BRANCH  10  11
ATOM     11  C   UNL     1     -12.381 -15.127   6.333  0.00  0.00    -0.028 A 
ATOM     12  C   UNL     1     -13.054 -15.174   7.562  0.00  0.00    +0.005 A 
ATOM     13  C   UNL     1     -12.128 -16.330   5.657  0.00  0.00    +0.005 A 
ATOM     14  C   UNL     1     -13.485 -16.394   8.089  0.00  0.00    +0.000 A 
ATOM     15  C   UNL     1     -12.560 -17.546   6.186  0.00  0.00    +0.000 A 
ATOM     16  C   UNL     1     -13.240 -17.577   7.401  0.00  0.00    +0.000 A 
ENDBRANCH  10  11
ENDBRANCH   1  10
TORSDOF 2
ENDMDL
MODEL 8
REMARK VINA RESULT:    -4.611     26.389     27.283
REMARK INTER + INTRA:          -5.245
REMARK INTER:                  -5.158
REMARK INTRA:                  -0.087
REMARK UNBOUND:                -0.095
REMARK  Name = 1550473
REMARK  2 active torsions:
REMARK  status: ('A' for Active; 'I' for Inactive)
REMARK    1  A    between atoms: N_1  and  C_4
REMARK    2  A    between atoms: C_4  and  C_5
REMARK                            x       y       z     vdW  Elec       q    Type
REMARK                         _______ _______ _______ _____ _____    ______ ____
ROOT
ATOM      1  N   UNL     1       9.144  10.993   1.271  0.00  0.00    -0.354 N 
ATOM      2  N   UNL     1       7.672  10.660   3.027  0.00  0.00    -0.372 N 
ATOM      3  N   UNL     1       7.177  12.253   1.451  0.00  0.00    -0.372 N 
ATOM      4  C   UNL     1       8.006  11.306   1.904  0.00  0.00    +0.166 C 
ATOM      5  H   UNL     1       9.745  10.287   1.682  0.00  0.00    +0.163 HD
ATOM      6  H   UNL     1       6.817  10.873   3.525  0.00  0.00    +0.159 HD
ATOM      7  H   UNL     1       8.251   9.923   3.411  0.00  0.00    +0.159 HD
ATOM      8  H   UNL     1       7.374  12.781   0.612  0.00  0.00    +0.159 HD
ATOM      9  H   UNL     1       6.323  12.488   1.941  0.00  0.00    +0.159 HD
ENDROOT
BRANCH   1  10
ATOM     10  C   UNL     1       9.574  11.599   0.012  0.00  0.00    +0.151 C 
BRANCH  10  11
ATOM     11  C   UNL     1      10.722  12.532   0.282  0.00  0.00    -0.028 A 
ATOM     12  C   UNL     1      11.910  12.431  -0.455  0.00  0.00    +0.005 A 
ATOM     13  C   UNL     1      10.625  13.523   1.271  0.00  0.00    +0.005 A 
ATOM     14  C   UNL     1      12.966  13.317  -0.225  0.00  0.00    +0.000 A 
ATOM     15  C   UNL     1      11.682  14.405   1.498  0.00  0.00    +0.000 A 
ATOM     16  C   UNL     1      12.851  14.303   0.748  0.00  0.00    +0.000 A 
ENDBRANCH  10  11
ENDBRANCH   1  10
TORSDOF 2
ENDMDL
MODEL 9
REMARK VINA RESULT:    -4.442     25.442     26.951
REMARK INTER + INTRA:          -5.056
REMARK INTER:                  -4.961
REMARK INTRA:                  -0.095
REMARK UNBOUND:                -0.095
REMARK  Name = 1550473
REMARK  2 active torsions:
REMARK  status: ('A' for Active; 'I' for Inactive)
REMARK    1  A    between atoms: N_1  and  C_4
REMARK    2  A    between atoms: C_4  and  C_5
REMARK                            x       y       z     vdW  Elec       q    Type
REMARK                         _______ _______ _______ _____ _____    ______ ____
ROOT
ATOM      1  N   UNL     1     -13.872 -16.089   5.313  0.00  0.00    -0.354 N 
ATOM      2  N   UNL     1     -14.231 -17.999   4.054  0.00  0.00    -0.372 N 
ATOM      3  N   UNL     1     -15.634 -17.551   5.813  0.00  0.00    -0.372 N 
ATOM      4  C   UNL     1     -14.579 -17.201   5.070  0.00  0.00    +0.166 C 
ATOM      5  H   UNL     1     -13.065 -15.895   4.732  0.00  0.00    +0.163 HD
ATOM      6  H   UNL     1     -14.747 -18.843   3.844  0.00  0.00    +0.159 HD
ATOM      7  H   UNL     1     -13.451 -17.779   3.446  0.00  0.00    +0.159 HD
ATOM      8  H   UNL     1     -15.945 -16.995   6.598  0.00  0.00    +0.159 HD
ATOM      9  H   UNL     1     -16.156 -18.398   5.626  0.00  0.00    +0.159 HD
ENDROOT
BRANCH   1  10
ATOM     10  C   UNL     1     -14.201 -15.124   6.362  0.00  0.00    +0.151 C 
BRANCH  10  11
ATOM     11  C   UNL     1     -13.586 -13.796   6.017  0.00  0.00    -0.028 A 
ATOM     12  C   UNL     1     -12.250 -13.523   6.343  0.00  0.00    +0.005 A 
ATOM     13  C   UNL     1     -14.334 -12.807   5.359  0.00  0.00    +0.005 A 
ATOM     14  C   UNL     1     -11.670 -12.300   5.996  0.00  0.00    +0.000 A 
ATOM     15  C   UNL     1     -13.752 -11.587   5.015  0.00  0.00    +0.000 A 
ATOM     16  C   UNL     1     -12.419 -11.335   5.332  0.00  0.00    +0.000 A 
ENDBRANCH  10  11
ENDBRANCH   1  10
TORSDOF 2
ENDMDL
