MODEL 1
REMARK VINA RESULT:    -5.751      0.000      0.000
REMARK INTER + INTRA:          -6.609
REMARK INTER:                  -6.424
REMARK INTRA:                  -0.185
REMARK UNBOUND:                -0.185
REMARK  Name = 1550473
REMARK  2 active torsions:
REMARK  status: ('A' for Active; 'I' for Inactive)
REMARK    1  A    between atoms: N_1  and  C_4
REMARK    2  A    between atoms: C_4  and  C_5
REMARK                            x       y       z     vdW  Elec       q    Type
REMARK                         _______ _______ _______ _____ _____    ______ ____
ROOT
ATOM      1  N   UNL     1      13.587   5.946 -11.514  0.00  0.00    -0.354 N 
ATOM      2  N   UNL     1      14.158   7.914 -12.595  0.00  0.00    -0.372 N 
ATOM      3  N   UNL     1      13.477   6.117 -13.849  0.00  0.00    -0.372 N 
ATOM      4  C   UNL     1      13.736   6.644 -12.648  0.00  0.00    +0.166 C 
ATOM      5  H   UNL     1      13.829   6.394 -10.638  0.00  0.00    +0.163 HD
ATOM      6  H   UNL     1      14.277   8.466 -13.434  0.00  0.00    +0.159 HD
ATOM      7  H   UNL     1      14.355   8.373 -11.715  0.00  0.00    +0.159 HD
ATOM      8  H   UNL     1      13.161   5.162 -13.958  0.00  0.00    +0.159 HD
ATOM      9  H   UNL     1      13.601   6.650 -14.700  0.00  0.00    +0.159 HD
ENDROOT
BRANCH   1  10
ATOM     10  C   UNL     1      13.082   4.575 -11.459  0.00  0.00    +0.151 C 
BRANCH  10  11
ATOM     11  C   UNL     1      11.626   4.603 -11.087  0.00  0.00    -0.028 A 
ATOM     12  C   UNL     1      11.231   4.906  -9.775  0.00  0.00    +0.005 A 
ATOM     13  C   UNL     1      10.634   4.332 -12.043  0.00  0.00    +0.005 A 
ATOM     14  C   UNL     1       9.877   4.961  -9.437  0.00  0.00    +0.000 A 
ATOM     15  C   UNL     1       9.284   4.387 -11.700  0.00  0.00    +0.000 A 
ATOM     16  C   UNL     1       8.905   4.704 -10.398  0.00  0.00    +0.000 A 
ENDBRANCH  10  11
ENDBRANCH   1  10
TORSDOF 2
ENDMDL
MODEL 2
REMARK VINA RESULT:    -5.363      3.628      5.997
REMARK INTER + INTRA:          -6.175
REMARK INTER:                  -6.052
REMARK INTRA:                  -0.122
REMARK UNBOUND:                -0.185
REMARK  Name = 1550473
REMARK  2 active torsions:
REMARK  status: ('A' for Active; 'I' for Inactive)
REMARK    1  A    between atoms: N_1  and  C_4
REMARK    2  A    between atoms: C_4  and  C_5
REMARK                            x       y       z     vdW  Elec       q    Type
REMARK                         _______ _______ _______ _____ _____    ______ ____
ROOT
ATOM      1  N   UNL     1      13.515   7.271 -11.744  0.00  0.00    -0.354 N 
ATOM      2  N   UNL     1      13.152   5.582 -13.287  0.00  0.00    -0.372 N 
ATOM      3  N   UNL     1      13.259   5.045 -11.058  0.00  0.00    -0.372 N 
ATOM      4  C   UNL     1      13.311   5.975 -12.017  0.00  0.00    +0.166 C 
ATOM      5  H   UNL     1      13.574   7.922 -12.519  0.00  0.00    +0.163 HD
ATOM      6  H   UNL     1      12.994   4.611 -13.523  0.00  0.00    +0.159 HD
ATOM      7  H   UNL     1      13.166   6.241 -14.055  0.00  0.00    +0.159 HD
ATOM      8  H   UNL     1      13.377   5.276 -10.081  0.00  0.00    +0.159 HD
ATOM      9  H   UNL     1      13.113   4.067 -11.276  0.00  0.00    +0.159 HD
ENDROOT
BRANCH   1  10
ATOM     10  C   UNL     1      13.646   7.811 -10.392  0.00  0.00    +0.151 C 
BRANCH  10  11
ATOM     11  C   UNL     1      14.217   9.200 -10.472  0.00  0.00    -0.028 A 
ATOM     12  C   UNL     1      14.226   9.898 -11.688  0.00  0.00    +0.005 A 
ATOM     13  C   UNL     1      14.747   9.825  -9.332  0.00  0.00    +0.005 A 
ATOM     14  C   UNL     1      14.729  11.200 -11.756  0.00  0.00    +0.000 A 
ATOM     15  C   UNL     1      15.249  11.125  -9.404  0.00  0.00    +0.000 A 
ATOM     16  C   UNL     1      15.238  11.812 -10.615  0.00  0.00    +0.000 A 
ENDBRANCH  10  11
ENDBRANCH   1  10
TORSDOF 2
ENDMDL
MODEL 3
REMARK VINA RESULT:    -5.222      3.378      4.882
REMARK INTER + INTRA:          -6.017
REMARK INTER:                  -5.891
REMARK INTRA:                  -0.126
REMARK UNBOUND:                -0.185
REMARK  Name = 1550473
REMARK  2 active torsions:
REMARK  status: ('A' for Active; 'I' for Inactive)
REMARK    1  A    between atoms: N_1  and  C_4
REMARK    2  A    between atoms: C_4  and  C_5
REMARK                            x       y       z     vdW  Elec       q    Type
REMARK                         _______ _______ _______ _____ _____    ______ ____
ROOT
ATOM      1  N   UNL     1      14.228  10.281 -10.134  0.00  0.00    -0.354 N 
ATOM      2  N   UNL     1      14.536  12.332 -11.165  0.00  0.00    -0.372 N 
ATOM      3  N   UNL     1      16.352  10.966 -10.848  0.00  0.00    -0.372 N 
ATOM      4  C   UNL     1      15.040  11.179 -10.709  0.00  0.00    +0.166 C 
ATOM      5  H   UNL     1      13.247  10.515 -10.031  0.00  0.00    +0.163 HD
ATOM      6  H   UNL     1      15.123  13.027 -11.606  0.00  0.00    +0.159 HD
ATOM      7  H   UNL     1      13.548  12.544 -11.102  0.00  0.00    +0.159 HD
ATOM      8  H   UNL     1      16.795  10.118 -10.520  0.00  0.00    +0.159 HD
ATOM      9  H   UNL     1      16.958  11.654 -11.277  0.00  0.00    +0.159 HD
ENDROOT
BRANCH   1  10
ATOM     10  C   UNL     1      14.667   8.972  -9.653  0.00  0.00    +0.151 C 
BRANCH  10  11
ATOM     11  C   UNL     1      14.111   7.905 -10.556  0.00  0.00    -0.028 A 
ATOM     12  C   UNL     1      14.467   7.864 -11.912  0.00  0.00    +0.005 A 
ATOM     13  C   UNL     1      13.234   6.929 -10.060  0.00  0.00    +0.005 A 
ATOM     14  C   UNL     1      13.975   6.856 -12.744  0.00  0.00    +0.000 A 
ATOM     15  C   UNL     1      12.744   5.925 -10.894  0.00  0.00    +0.000 A 
ATOM     16  C   UNL     1      13.116   5.887 -12.236  0.00  0.00    +0.000 A 
ENDBRANCH  10  11
ENDBRANCH   1  10
TORSDOF 2
ENDMDL
MODEL 4
REMARK VINA RESULT:    -4.869     20.815     22.584
REMARK INTER + INTRA:          -5.623
REMARK INTER:                  -5.484
REMARK INTRA:                  -0.139
REMARK UNBOUND:                -0.185
REMARK  Name = 1550473
REMARK  2 active torsions:
REMARK  status: ('A' for Active; 'I' for Inactive)
REMARK    1  A    between atoms: N_1  and  C_4
REMARK    2  A    between atoms: C_4  and  C_5
REMARK                            x       y       z     vdW  Elec       q    Type
REMARK                         _______ _______ _______ _____ _____    ______ ____
ROOT
ATOM      1  N   UNL     1      -5.219  -1.035  -1.141  0.00  0.00    -0.354 N 
ATOM      2  N   UNL     1      -3.487   0.291  -1.918  0.00  0.00    -0.372 N 
ATOM      3  N   UNL     1      -3.391  -0.511   0.229  0.00  0.00    -0.372 N 
ATOM      4  C   UNL     1      -4.043  -0.427  -0.936  0.00  0.00    +0.166 C 
ATOM      5  H   UNL     1      -5.677  -0.908  -2.036  0.00  0.00    +0.163 HD
ATOM      6  H   UNL     1      -2.599   0.758  -1.794  0.00  0.00    +0.159 HD
ATOM      7  H   UNL     1      -3.925   0.379  -2.827  0.00  0.00    +0.159 HD
ATOM      8  H   UNL     1      -3.760  -1.034   1.013  0.00  0.00    +0.159 HD
ATOM      9  H   UNL     1      -2.507  -0.041   0.377  0.00  0.00    +0.159 HD
ENDROOT
BRANCH   1  10
ATOM     10  C   UNL     1      -5.883  -1.885  -0.154  0.00  0.00    +0.151 C 
BRANCH  10  11
ATOM     11  C   UNL     1      -7.314  -1.445  -0.010  0.00  0.00    -0.028 A 
ATOM     12  C   UNL     1      -7.672  -0.107  -0.229  0.00  0.00    +0.005 A 
ATOM     13  C   UNL     1      -8.317  -2.363   0.339  0.00  0.00    +0.005 A 
ATOM     14  C   UNL     1      -9.006   0.296  -0.124  0.00  0.00    +0.000 A 
ATOM     15  C   UNL     1      -9.647  -1.956   0.443  0.00  0.00    +0.000 A 
ATOM     16  C   UNL     1      -9.991  -0.627   0.209  0.00  0.00    +0.000 A 
ENDBRANCH  10  11
ENDBRANCH   1  10
TORSDOF 2
ENDMDL
MODEL 5
REMARK VINA RESULT:    -4.692     22.963     24.274
REMARK INTER + INTRA:          -5.426
REMARK INTER:                  -5.397
REMARK INTRA:                  -0.028
REMARK UNBOUND:                -0.185
REMARK  Name = 1550473
REMARK  2 active torsions:
REMARK  status: ('A' for Active; 'I' for Inactive)
REMARK    1  A    between atoms: N_1  and  C_4
REMARK    2  A    between atoms: C_4  and  C_5
REMARK                            x       y       z     vdW  Elec       q    Type
REMARK                         _______ _______ _______ _____ _____    ______ ____
ROOT
ATOM      1  N   UNL     1     -10.038   9.783 -16.757  0.00  0.00    -0.354 N 
ATOM      2  N   UNL     1      -9.519   7.545 -17.053  0.00  0.00    -0.372 N 
ATOM      3  N   UNL     1     -11.711   8.205 -17.212  0.00  0.00    -0.372 N 
ATOM      4  C   UNL     1     -10.429   8.525 -17.006  0.00  0.00    +0.166 C 
ATOM      5  H   UNL     1      -9.055   9.955 -16.580  0.00  0.00    +0.163 HD
ATOM      6  H   UNL     1      -9.784   6.587 -17.242  0.00  0.00    +0.159 HD
ATOM      7  H   UNL     1      -8.532   7.727 -16.921  0.00  0.00    +0.159 HD
ATOM      8  H   UNL     1     -12.447   8.898 -17.183  0.00  0.00    +0.159 HD
ATOM      9  H   UNL     1     -11.997   7.251 -17.390  0.00  0.00    +0.159 HD
ENDROOT
BRANCH   1  10
ATOM     10  C   UNL     1     -10.942  10.931 -16.738  0.00  0.00    +0.151 C 
BRANCH  10  11
ATOM     11  C   UNL     1     -11.692  10.943 -15.434  0.00  0.00    -0.028 A 
ATOM     12  C   UNL     1     -11.002  10.875 -14.215  0.00  0.00    +0.005 A 
ATOM     13  C   UNL     1     -13.093  11.030 -15.411  0.00  0.00    +0.005 A 
ATOM     14  C   UNL     1     -11.696  10.916 -13.003  0.00  0.00    +0.000 A 
ATOM     15  C   UNL     1     -13.782  11.070 -14.199  0.00  0.00    +0.000 A 
ATOM     16  C   UNL     1     -13.083  11.016 -12.996  0.00  0.00    +0.000 A 
ENDBRANCH  10  11
ENDBRANCH   1  10
TORSDOF 2
ENDMDL
MODEL 6
REMARK VINA RESULT:    -4.597     24.560     25.941
REMARK INTER + INTRA:          -5.319
REMARK INTER:                  -5.210
REMARK INTRA:                  -0.109
REMARK UNBOUND:                -0.185
REMARK  Name = 1550473
REMARK  2 active torsions:
REMARK  status: ('A' for Active; 'I' for Inactive)
REMARK    1  A    between atoms: N_1  and  C_4
REMARK    2  A    between atoms: C_4  and  C_5
REMARK                            x       y       z     vdW  Elec       q    Type
REMARK                         _______ _______ _______ _____ _____    ______ ____
ROOT
ATOM      1  N   UNL     1      -6.490   4.325   6.633  0.00  0.00    -0.354 N 
ATOM      2  N   UNL     1      -7.297   6.031   5.291  0.00  0.00    -0.372 N 
ATOM      3  N   UNL     1      -7.994   5.914   7.474  0.00  0.00    -0.372 N 
ATOM      4  C   UNL     1      -7.257   5.413   6.477  0.00  0.00    +0.166 C 
ATOM      5  H   UNL     1      -5.979   3.977   5.830  0.00  0.00    +0.163 HD
ATOM      6  H   UNL     1      -7.863   6.856   5.144  0.00  0.00    +0.159 HD
ATOM      7  H   UNL     1      -6.749   5.708   4.503  0.00  0.00    +0.159 HD
ATOM      8  H   UNL     1      -8.012   5.490   8.392  0.00  0.00    +0.159 HD
ATOM      9  H   UNL     1      -8.576   6.732   7.343  0.00  0.00    +0.159 HD
ENDROOT
BRANCH   1  10
ATOM     10  C   UNL     1      -6.334   3.609   7.898  0.00  0.00    +0.151 C 
BRANCH  10  11
ATOM     11  C   UNL     1      -5.424   2.431   7.687  0.00  0.00    -0.028 A 
ATOM     12  C   UNL     1      -5.750   1.175   8.218  0.00  0.00    +0.005 A 
ATOM     13  C   UNL     1      -4.236   2.563   6.952  0.00  0.00    +0.005 A 
ATOM     14  C   UNL     1      -4.920   0.073   7.997  0.00  0.00    +0.000 A 
ATOM     15  C   UNL     1      -3.409   1.462   6.734  0.00  0.00    +0.000 A 
ATOM     16  C   UNL     1      -3.752   0.216   7.254  0.00  0.00    +0.000 A 
ENDBRANCH  10  11
ENDBRANCH   1  10
TORSDOF 2
ENDMDL
MODEL 7
REMARK VINA RESULT:    -4.563     35.398     36.590
REMARK INTER + INTRA:          -5.281
REMARK INTER:                  -5.130
REMARK INTRA:                  -0.151
REMARK UNBOUND:                -0.185
REMARK  Name = 1550473
REMARK  2 active torsions:
REMARK  status: ('A' for Active; 'I' for Inactive)
REMARK    1  A    between atoms: N_1  and  C_4
REMARK    2  A    between atoms: C_4  and  C_5
REMARK                            x       y       z     vdW  Elec       q    Type
REMARK                         _______ _______ _______ _____ _____    ______ ____
ROOT
ATOM      1  N   UNL     1      -5.773  -5.560  17.690  0.00  0.00    -0.354 N 
ATOM      2  N   UNL     1      -7.765  -6.732  17.534  0.00  0.00    -0.372 N 
ATOM      3  N   UNL     1      -7.836  -4.453  17.786  0.00  0.00    -0.372 N 
ATOM      4  C   UNL     1      -7.113  -5.571  17.672  0.00  0.00    +0.166 C 
ATOM      5  H   UNL     1      -5.283  -6.446  17.630  0.00  0.00    +0.163 HD
ATOM      6  H   UNL     1      -8.775  -6.772  17.513  0.00  0.00    +0.159 HD
ATOM      7  H   UNL     1      -7.272  -7.611  17.428  0.00  0.00    +0.159 HD
ATOM      8  H   UNL     1      -7.404  -3.545  17.898  0.00  0.00    +0.159 HD
ATOM      9  H   UNL     1      -8.848  -4.473  17.779  0.00  0.00    +0.159 HD
ENDROOT
BRANCH   1  10
ATOM     10  C   UNL     1      -4.967  -4.344  17.781  0.00  0.00    +0.151 C 
BRANCH  10  11
ATOM     11  C   UNL     1      -4.221  -4.346  19.088  0.00  0.00    -0.028 A 
ATOM     12  C   UNL     1      -3.747  -5.547  19.635  0.00  0.00    +0.005 A 
ATOM     13  C   UNL     1      -3.982  -3.149  19.780  0.00  0.00    +0.005 A 
ATOM     14  C   UNL     1      -3.029  -5.545  20.833  0.00  0.00    +0.000 A 
ATOM     15  C   UNL     1      -3.265  -3.152  20.976  0.00  0.00    +0.000 A 
ATOM     16  C   UNL     1      -2.786  -4.350  21.501  0.00  0.00    +0.000 A 
ENDBRANCH  10  11
ENDBRANCH   1  10
TORSDOF 2
ENDMDL
MODEL 8
REMARK VINA RESULT:    -4.561     31.138     32.560
REMARK INTER + INTRA:          -5.279
REMARK INTER:                  -5.164
REMARK INTRA:                  -0.115
REMARK UNBOUND:                -0.185
REMARK  Name = 1550473
REMARK  2 active torsions:
REMARK  status: ('A' for Active; 'I' for Inactive)
REMARK    1  A    between atoms: N_1  and  C_4
REMARK    2  A    between atoms: C_4  and  C_5
REMARK                            x       y       z     vdW  Elec       q    Type
REMARK                         _______ _______ _______ _____ _____    ______ ____
ROOT
ATOM      1  N   UNL     1      -4.629   8.636  15.575  0.00  0.00    -0.354 N 
ATOM      2  N   UNL     1      -3.322  10.542  15.728  0.00  0.00    -0.372 N 
ATOM      3  N   UNL     1      -2.300   8.524  15.344  0.00  0.00    -0.372 N 
ATOM      4  C   UNL     1      -3.424   9.219  15.548  0.00  0.00    +0.166 C 
ATOM      5  H   UNL     1      -5.440   9.214  15.764  0.00  0.00    +0.163 HD
ATOM      6  H   UNL     1      -2.427  11.010  15.710  0.00  0.00    +0.159 HD
ATOM      7  H   UNL     1      -4.139  11.124  15.871  0.00  0.00    +0.159 HD
ATOM      8  H   UNL     1      -2.308   7.522  15.207  0.00  0.00    +0.159 HD
ATOM      9  H   UNL     1      -1.393   8.973  15.333  0.00  0.00    +0.159 HD
ENDROOT
BRANCH   1  10
ATOM     10  C   UNL     1      -4.854   7.211  15.336  0.00  0.00    +0.151 C 
BRANCH  10  11
ATOM     11  C   UNL     1      -6.281   6.876  15.669  0.00  0.00    -0.028 A 
ATOM     12  C   UNL     1      -6.913   7.470  16.771  0.00  0.00    +0.005 A 
ATOM     13  C   UNL     1      -7.009   5.970  14.883  0.00  0.00    +0.005 A 
ATOM     14  C   UNL     1      -8.249   7.182  17.064  0.00  0.00    +0.000 A 
ATOM     15  C   UNL     1      -8.342   5.684  15.179  0.00  0.00    +0.000 A 
ATOM     16  C   UNL     1      -8.962   6.292  16.267  0.00  0.00    +0.000 A 
ENDBRANCH  10  11
ENDBRANCH   1  10
TORSDOF 2
ENDMDL
MODEL 9
REMARK VINA RESULT:    -4.474     23.330     24.759
REMARK INTER + INTRA:          -5.182
REMARK INTER:                  -5.051
REMARK INTRA:                  -0.131
REMARK UNBOUND:                -0.185
REMARK  Name = 1550473
REMARK  2 active torsions:
REMARK  status: ('A' for Active; 'I' for Inactive)
REMARK    1  A    between atoms: N_1  and  C_4
REMARK    2  A    between atoms: C_4  and  C_5
REMARK                            x       y       z     vdW  Elec       q    Type
REMARK                         _______ _______ _______ _____ _____    ______ ____
ROOT
ATOM      1  N   UNL     1      -6.587   5.348   4.346  0.00  0.00    -0.354 N 
ATOM      2  N   UNL     1      -7.517   7.321   3.568  0.00  0.00    -0.372 N 
ATOM      3  N   UNL     1      -5.394   6.757   2.903  0.00  0.00    -0.372 N 
ATOM      4  C   UNL     1      -6.490   6.463   3.610  0.00  0.00    +0.166 C 
ATOM      5  H   UNL     1      -7.433   5.197   4.883  0.00  0.00    +0.163 HD
ATOM      6  H   UNL     1      -7.474   8.168   3.018  0.00  0.00    +0.159 HD
ATOM      7  H   UNL     1      -8.379   7.145   4.069  0.00  0.00    +0.159 HD
ATOM      8  H   UNL     1      -4.583   6.154   2.897  0.00  0.00    +0.159 HD
ATOM      9  H   UNL     1      -5.328   7.606   2.356  0.00  0.00    +0.159 HD
ENDROOT
BRANCH   1  10
ATOM     10  C   UNL     1      -5.547   4.322   4.417  0.00  0.00    +0.151 C 
BRANCH  10  11
ATOM     11  C   UNL     1      -5.562   3.701   5.786  0.00  0.00    -0.028 A 
ATOM     12  C   UNL     1      -6.609   3.973   6.680  0.00  0.00    +0.005 A 
ATOM     13  C   UNL     1      -4.536   2.835   6.195  0.00  0.00    +0.005 A 
ATOM     14  C   UNL     1      -6.638   3.373   7.941  0.00  0.00    +0.000 A 
ATOM     15  C   UNL     1      -4.569   2.239   7.455  0.00  0.00    +0.000 A 
ATOM     16  C   UNL     1      -5.622   2.506   8.327  0.00  0.00    +0.000 A 
ENDBRANCH  10  11
ENDBRANCH   1  10
TORSDOF 2
ENDMDL
