MODEL 1
REMARK VINA RESULT:    -6.713      0.000      0.000
REMARK INTER + INTRA:          -7.599
REMARK INTER:                  -7.498
REMARK INTRA:                  -0.101
REMARK UNBOUND:                -0.101
REMARK  Name = 1550473
REMARK  2 active torsions:
REMARK  status: ('A' for Active; 'I' for Inactive)
REMARK    1  A    between atoms: N_1  and  C_4
REMARK    2  A    between atoms: C_4  and  C_5
REMARK                            x       y       z     vdW  Elec       q    Type
REMARK                         _______ _______ _______ _____ _____    ______ ____
ROOT
ATOM      1  N   UNL     1       0.129   1.136  -1.555  0.00  0.00    -0.354 N 
ATOM      2  N   UNL     1      -0.899   1.428  -3.610  0.00  0.00    -0.372 N 
ATOM      3  N   UNL     1      -0.914  -0.655  -2.649  0.00  0.00    -0.372 N 
ATOM      4  C   UNL     1      -0.555   0.632  -2.591  0.00  0.00    +0.166 C 
ATOM      5  H   UNL     1       0.397   2.113  -1.586  0.00  0.00    +0.163 HD
ATOM      6  H   UNL     1      -1.418   1.077  -4.403  0.00  0.00    +0.159 HD
ATOM      7  H   UNL     1      -0.670   2.415  -3.616  0.00  0.00    +0.159 HD
ATOM      8  H   UNL     1      -0.680  -1.310  -1.915  0.00  0.00    +0.159 HD
ATOM      9  H   UNL     1      -1.424  -1.028  -3.440  0.00  0.00    +0.159 HD
ENDROOT
BRANCH   1  10
ATOM     10  C   UNL     1       0.506   0.366  -0.371  0.00  0.00    +0.151 C 
BRANCH  10  11
ATOM     11  C   UNL     1       2.004   0.247  -0.319  0.00  0.00    -0.028 A 
ATOM     12  C   UNL     1       2.668   0.153   0.913  0.00  0.00    +0.005 A 
ATOM     13  C   UNL     1       2.765   0.222  -1.498  0.00  0.00    +0.005 A 
ATOM     14  C   UNL     1       4.057   0.012   0.961  0.00  0.00    +0.000 A 
ATOM     15  C   UNL     1       4.151   0.083  -1.445  0.00  0.00    +0.000 A 
ATOM     16  C   UNL     1       4.797  -0.025  -0.216  0.00  0.00    +0.000 A 
ENDBRANCH  10  11
ENDBRANCH   1  10
TORSDOF 2
ENDMDL
MODEL 2
REMARK VINA RESULT:    -5.548      2.794      4.676
REMARK INTER + INTRA:          -6.298
REMARK INTER:                  -6.152
REMARK INTRA:                  -0.145
REMARK UNBOUND:                -0.101
REMARK  Name = 1550473
REMARK  2 active torsions:
REMARK  status: ('A' for Active; 'I' for Inactive)
REMARK    1  A    between atoms: N_1  and  C_4
REMARK    2  A    between atoms: C_4  and  C_5
REMARK                            x       y       z     vdW  Elec       q    Type
REMARK                         _______ _______ _______ _____ _____    ______ ____
ROOT
ATOM      1  N   UNL     1       3.471   0.134  -0.808  0.00  0.00    -0.354 N 
ATOM      2  N   UNL     1       5.194   0.425   0.712  0.00  0.00    -0.372 N 
ATOM      3  N   UNL     1       3.369  -0.820   1.330  0.00  0.00    -0.372 N 
ATOM      4  C   UNL     1       3.998  -0.090   0.403  0.00  0.00    +0.166 C 
ATOM      5  H   UNL     1       3.985   0.721  -1.455  0.00  0.00    +0.163 HD
ATOM      6  H   UNL     1       5.619   0.270   1.617  0.00  0.00    +0.159 HD
ATOM      7  H   UNL     1       5.726   0.974   0.047  0.00  0.00    +0.159 HD
ATOM      8  H   UNL     1       2.461  -1.232   1.162  0.00  0.00    +0.159 HD
ATOM      9  H   UNL     1       3.772  -0.977   2.245  0.00  0.00    +0.159 HD
ENDROOT
BRANCH   1  10
ATOM     10  C   UNL     1       2.200  -0.426  -1.263  0.00  0.00    +0.151 C 
BRANCH  10  11
ATOM     11  C   UNL     1       1.129   0.622  -1.140  0.00  0.00    -0.028 A 
ATOM     12  C   UNL     1       0.437   0.795   0.068  0.00  0.00    +0.005 A 
ATOM     13  C   UNL     1       0.805   1.450  -2.226  0.00  0.00    +0.005 A 
ATOM     14  C   UNL     1      -0.537   1.789   0.192  0.00  0.00    +0.000 A 
ATOM     15  C   UNL     1      -0.169   2.440  -2.099  0.00  0.00    +0.000 A 
ATOM     16  C   UNL     1      -0.838   2.611  -0.889  0.00  0.00    +0.000 A 
ENDBRANCH  10  11
ENDBRANCH   1  10
TORSDOF 2
ENDMDL
MODEL 3
REMARK VINA RESULT:    -5.356     14.600     15.121
REMARK INTER + INTRA:          -6.084
REMARK INTER:                  -5.904
REMARK INTRA:                  -0.180
REMARK UNBOUND:                -0.101
REMARK  Name = 1550473
REMARK  2 active torsions:
REMARK  status: ('A' for Active; 'I' for Inactive)
REMARK    1  A    between atoms: N_1  and  C_4
REMARK    2  A    between atoms: C_4  and  C_5
REMARK                            x       y       z     vdW  Elec       q    Type
REMARK                         _______ _______ _______ _____ _____    ______ ____
ROOT
ATOM      1  N   UNL     1      -2.735  13.896   4.087  0.00  0.00    -0.354 N 
ATOM      2  N   UNL     1      -4.213  15.372   5.086  0.00  0.00    -0.372 N 
ATOM      3  N   UNL     1      -3.083  16.039   3.204  0.00  0.00    -0.372 N 
ATOM      4  C   UNL     1      -3.333  15.094   4.117  0.00  0.00    +0.166 C 
ATOM      5  H   UNL     1      -2.944  13.234   4.825  0.00  0.00    +0.163 HD
ATOM      6  H   UNL     1      -4.683  16.266   5.133  0.00  0.00    +0.159 HD
ATOM      7  H   UNL     1      -4.456  14.692   5.797  0.00  0.00    +0.159 HD
ATOM      8  H   UNL     1      -2.425  15.894   2.450  0.00  0.00    +0.159 HD
ATOM      9  H   UNL     1      -3.535  16.944   3.240  0.00  0.00    +0.159 HD
ENDROOT
BRANCH   1  10
ATOM     10  C   UNL     1      -1.801  13.474   3.044  0.00  0.00    +0.151 C 
BRANCH  10  11
ATOM     11  C   UNL     1      -0.395  13.602   3.562  0.00  0.00    -0.028 A 
ATOM     12  C   UNL     1       0.149  12.614   4.396  0.00  0.00    +0.005 A 
ATOM     13  C   UNL     1       0.400  14.706   3.218  0.00  0.00    +0.005 A 
ATOM     14  C   UNL     1       1.465  12.718   4.853  0.00  0.00    +0.000 A 
ATOM     15  C   UNL     1       1.714  14.806   3.677  0.00  0.00    +0.000 A 
ATOM     16  C   UNL     1       2.246  13.810   4.492  0.00  0.00    +0.000 A 
ENDBRANCH  10  11
ENDBRANCH   1  10
TORSDOF 2
ENDMDL
MODEL 4
REMARK VINA RESULT:    -5.299     16.452     17.372
REMARK INTER + INTRA:          -6.020
REMARK INTER:                  -5.847
REMARK INTRA:                  -0.173
REMARK UNBOUND:                -0.101
REMARK  Name = 1550473
REMARK  2 active torsions:
REMARK  status: ('A' for Active; 'I' for Inactive)
REMARK    1  A    between atoms: N_1  and  C_4
REMARK    2  A    between atoms: C_4  and  C_5
REMARK                            x       y       z     vdW  Elec       q    Type
REMARK                         _______ _______ _______ _____ _____    ______ ____
ROOT
ATOM      1  N   UNL     1      11.299  13.994  -4.909  0.00  0.00    -0.354 N 
ATOM      2  N   UNL     1      12.900  14.431  -3.293  0.00  0.00    -0.372 N 
ATOM      3  N   UNL     1      11.068  13.171  -2.727  0.00  0.00    -0.372 N 
ATOM      4  C   UNL     1      11.744  13.861  -3.652  0.00  0.00    +0.166 C 
ATOM      5  H   UNL     1      11.843  14.555  -5.555  0.00  0.00    +0.163 HD
ATOM      6  H   UNL     1      13.263  14.345  -2.353  0.00  0.00    +0.159 HD
ATOM      7  H   UNL     1      13.464  14.953  -3.953  0.00  0.00    +0.159 HD
ATOM      8  H   UNL     1      10.186  12.722  -2.932  0.00  0.00    +0.159 HD
ATOM      9  H   UNL     1      11.409  13.084  -1.778  0.00  0.00    +0.159 HD
ENDROOT
BRANCH   1  10
ATOM     10  C   UNL     1      10.079  13.368  -5.416  0.00  0.00    +0.151 C 
BRANCH  10  11
ATOM     11  C   UNL     1       8.970  14.383  -5.416  0.00  0.00    -0.028 A 
ATOM     12  C   UNL     1       9.164  15.650  -5.985  0.00  0.00    +0.005 A 
ATOM     13  C   UNL     1       7.720  14.082  -4.853  0.00  0.00    +0.005 A 
ATOM     14  C   UNL     1       8.125  16.583  -6.012  0.00  0.00    +0.000 A 
ATOM     15  C   UNL     1       6.685  15.017  -4.882  0.00  0.00    +0.000 A 
ATOM     16  C   UNL     1       6.887  16.266  -5.463  0.00  0.00    +0.000 A 
ENDBRANCH  10  11
ENDBRANCH   1  10
TORSDOF 2
ENDMDL
MODEL 5
REMARK VINA RESULT:    -5.286     18.556     19.286
REMARK INTER + INTRA:          -6.005
REMARK INTER:                  -5.907
REMARK INTRA:                  -0.099
REMARK UNBOUND:                -0.101
REMARK  Name = 1550473
REMARK  2 active torsions:
REMARK  status: ('A' for Active; 'I' for Inactive)
REMARK    1  A    between atoms: N_1  and  C_4
REMARK    2  A    between atoms: C_4  and  C_5
REMARK                            x       y       z     vdW  Elec       q    Type
REMARK                         _______ _______ _______ _____ _____    ______ ____
ROOT
ATOM      1  N   UNL     1       9.390  15.390  -6.074  0.00  0.00    -0.354 N 
ATOM      2  N   UNL     1      10.131  13.224  -5.722  0.00  0.00    -0.372 N 
ATOM      3  N   UNL     1       7.940  13.733  -5.272  0.00  0.00    -0.372 N 
ATOM      4  C   UNL     1       9.146  14.130  -5.691  0.00  0.00    +0.166 C 
ATOM      5  H   UNL     1      10.334  15.635  -6.352  0.00  0.00    +0.163 HD
ATOM      6  H   UNL     1       9.977  12.265  -5.443  0.00  0.00    +0.159 HD
ATOM      7  H   UNL     1      11.062  13.460  -6.045  0.00  0.00    +0.159 HD
ATOM      8  H   UNL     1       7.156  14.370  -5.219  0.00  0.00    +0.159 HD
ATOM      9  H   UNL     1       7.768  12.780  -4.977  0.00  0.00    +0.159 HD
ENDROOT
BRANCH   1  10
ATOM     10  C   UNL     1       8.374  16.440  -6.128  0.00  0.00    +0.151 C 
BRANCH  10  11
ATOM     11  C   UNL     1       8.754  17.438  -7.187  0.00  0.00    -0.028 A 
ATOM     12  C   UNL     1       9.852  18.291  -6.999  0.00  0.00    +0.005 A 
ATOM     13  C   UNL     1       8.025  17.531  -8.382  0.00  0.00    +0.005 A 
ATOM     14  C   UNL     1      10.224  19.198  -7.994  0.00  0.00    +0.000 A 
ATOM     15  C   UNL     1       8.400  18.439  -9.373  0.00  0.00    +0.000 A 
ATOM     16  C   UNL     1       9.500  19.270  -9.180  0.00  0.00    +0.000 A 
ENDBRANCH  10  11
ENDBRANCH   1  10
TORSDOF 2
ENDMDL
MODEL 6
REMARK VINA RESULT:    -5.224      8.934      9.960
REMARK INTER + INTRA:          -5.935
REMARK INTER:                  -5.755
REMARK INTRA:                  -0.180
REMARK UNBOUND:                -0.101
REMARK  Name = 1550473
REMARK  2 active torsions:
REMARK  status: ('A' for Active; 'I' for Inactive)
REMARK    1  A    between atoms: N_1  and  C_4
REMARK    2  A    between atoms: C_4  and  C_5
REMARK                            x       y       z     vdW  Elec       q    Type
REMARK                         _______ _______ _______ _____ _____    ______ ____
ROOT
ATOM      1  N   UNL     1      10.498  -3.201  -5.756  0.00  0.00    -0.354 N 
ATOM      2  N   UNL     1      11.992  -3.548  -7.491  0.00  0.00    -0.372 N 
ATOM      3  N   UNL     1       9.742  -3.611  -7.936  0.00  0.00    -0.372 N 
ATOM      4  C   UNL     1      10.732  -3.452  -7.051  0.00  0.00    +0.166 C 
ATOM      5  H   UNL     1      11.291  -3.121  -5.130  0.00  0.00    +0.163 HD
ATOM      6  H   UNL     1      12.200  -3.732  -8.463  0.00  0.00    +0.159 HD
ATOM      7  H   UNL     1      12.784  -3.421  -6.872  0.00  0.00    +0.159 HD
ATOM      8  H   UNL     1       8.769  -3.556  -7.666  0.00  0.00    +0.159 HD
ATOM      9  H   UNL     1       9.929  -3.808  -8.911  0.00  0.00    +0.159 HD
ENDROOT
BRANCH   1  10
ATOM     10  C   UNL     1       9.163  -3.024  -5.185  0.00  0.00    +0.151 C 
BRANCH  10  11
ATOM     11  C   UNL     1       8.864  -1.554  -5.082  0.00  0.00    -0.028 A 
ATOM     12  C   UNL     1       9.724  -0.700  -4.376  0.00  0.00    +0.005 A 
ATOM     13  C   UNL     1       7.725  -1.008  -5.694  0.00  0.00    +0.005 A 
ATOM     14  C   UNL     1       9.462   0.670  -4.305  0.00  0.00    +0.000 A 
ATOM     15  C   UNL     1       7.467   0.361  -5.621  0.00  0.00    +0.000 A 
ATOM     16  C   UNL     1       8.337   1.200  -4.928  0.00  0.00    +0.000 A 
ENDBRANCH  10  11
ENDBRANCH   1  10
TORSDOF 2
ENDMDL
MODEL 7
REMARK VINA RESULT:    -5.163     14.782     15.420
REMARK INTER + INTRA:          -5.868
REMARK INTER:                  -5.890
REMARK INTRA:                   0.022
REMARK UNBOUND:                -0.101
REMARK  Name = 1550473
REMARK  2 active torsions:
REMARK  status: ('A' for Active; 'I' for Inactive)
REMARK    1  A    between atoms: N_1  and  C_4
REMARK    2  A    between atoms: C_4  and  C_5
REMARK                            x       y       z     vdW  Elec       q    Type
REMARK                         _______ _______ _______ _____ _____    ______ ____
ROOT
ATOM      1  N   UNL     1      -3.217  14.717   4.062  0.00  0.00    -0.354 N 
ATOM      2  N   UNL     1      -3.235  16.428   2.501  0.00  0.00    -0.372 N 
ATOM      3  N   UNL     1      -2.111  16.741   4.477  0.00  0.00    -0.372 N 
ATOM      4  C   UNL     1      -2.853  15.952   3.692  0.00  0.00    +0.166 C 
ATOM      5  H   UNL     1      -3.805  14.181   3.434  0.00  0.00    +0.163 HD
ATOM      6  H   UNL     1      -2.973  17.355   2.193  0.00  0.00    +0.159 HD
ATOM      7  H   UNL     1      -3.784  15.872   1.856  0.00  0.00    +0.159 HD
ATOM      8  H   UNL     1      -1.796  16.444   5.390  0.00  0.00    +0.159 HD
ATOM      9  H   UNL     1      -1.848  17.677   4.191  0.00  0.00    +0.159 HD
ENDROOT
BRANCH   1  10
ATOM     10  C   UNL     1      -2.808  14.085   5.315  0.00  0.00    +0.151 C 
BRANCH  10  11
ATOM     11  C   UNL     1      -1.434  13.498   5.144  0.00  0.00    -0.028 A 
ATOM     12  C   UNL     1      -0.985  13.095   3.878  0.00  0.00    +0.005 A 
ATOM     13  C   UNL     1      -0.575  13.347   6.243  0.00  0.00    +0.005 A 
ATOM     14  C   UNL     1       0.303  12.578   3.714  0.00  0.00    +0.000 A 
ATOM     15  C   UNL     1       0.709  12.829   6.075  0.00  0.00    +0.000 A 
ATOM     16  C   UNL     1       1.148  12.447   4.810  0.00  0.00    +0.000 A 
ENDBRANCH  10  11
ENDBRANCH   1  10
TORSDOF 2
ENDMDL
MODEL 8
REMARK VINA RESULT:    -4.969     10.991     12.287
REMARK INTER + INTRA:          -5.651
REMARK INTER:                  -5.511
REMARK INTRA:                  -0.140
REMARK UNBOUND:                -0.101
REMARK  Name = 1550473
REMARK  2 active torsions:
REMARK  status: ('A' for Active; 'I' for Inactive)
REMARK    1  A    between atoms: N_1  and  C_4
REMARK    2  A    between atoms: C_4  and  C_5
REMARK                            x       y       z     vdW  Elec       q    Type
REMARK                         _______ _______ _______ _____ _____    ______ ____
ROOT
ATOM      1  N   UNL     1       9.247  -3.986  -6.970  0.00  0.00    -0.354 N 
ATOM      2  N   UNL     1      10.401  -2.820  -5.335  0.00  0.00    -0.372 N 
ATOM      3  N   UNL     1      11.445  -3.259  -7.331  0.00  0.00    -0.372 N 
ATOM      4  C   UNL     1      10.359  -3.363  -6.558  0.00  0.00    +0.166 C 
ATOM      5  H   UNL     1       8.468  -4.057  -6.325  0.00  0.00    +0.163 HD
ATOM      6  H   UNL     1      11.226  -2.341  -4.998  0.00  0.00    +0.159 HD
ATOM      7  H   UNL     1       9.605  -2.853  -4.710  0.00  0.00    +0.159 HD
ATOM      8  H   UNL     1      11.479  -3.652  -8.262  0.00  0.00    +0.159 HD
ATOM      9  H   UNL     1      12.284  -2.793  -7.007  0.00  0.00    +0.159 HD
ENDROOT
BRANCH   1  10
ATOM     10  C   UNL     1       9.078  -4.563  -8.302  0.00  0.00    +0.151 C 
BRANCH  10  11
ATOM     11  C   UNL     1       8.680  -6.007  -8.165  0.00  0.00    -0.028 A 
ATOM     12  C   UNL     1       8.286  -6.746  -9.290  0.00  0.00    +0.005 A 
ATOM     13  C   UNL     1       8.700  -6.642  -6.915  0.00  0.00    +0.005 A 
ATOM     14  C   UNL     1       7.945  -8.095  -9.168  0.00  0.00    +0.000 A 
ATOM     15  C   UNL     1       8.358  -7.989  -6.797  0.00  0.00    +0.000 A 
ATOM     16  C   UNL     1       7.983  -8.716  -7.924  0.00  0.00    +0.000 A 
ENDBRANCH  10  11
ENDBRANCH   1  10
TORSDOF 2
ENDMDL
MODEL 9
REMARK VINA RESULT:    -4.862      8.448      9.788
REMARK INTER + INTRA:          -5.531
REMARK INTER:                  -5.406
REMARK INTRA:                  -0.125
REMARK UNBOUND:                -0.101
REMARK  Name = 1550473
REMARK  2 active torsions:
REMARK  status: ('A' for Active; 'I' for Inactive)
REMARK    1  A    between atoms: N_1  and  C_4
REMARK    2  A    between atoms: C_4  and  C_5
REMARK                            x       y       z     vdW  Elec       q    Type
REMARK                         _______ _______ _______ _____ _____    ______ ____
ROOT
ATOM      1  N   UNL     1      10.577  -1.753  -6.367  0.00  0.00    -0.354 N 
ATOM      2  N   UNL     1      11.382  -3.553  -7.582  0.00  0.00    -0.372 N 
ATOM      3  N   UNL     1      10.653  -1.692  -8.708  0.00  0.00    -0.372 N 
ATOM      4  C   UNL     1      10.864  -2.319  -7.546  0.00  0.00    +0.166 C 
ATOM      5  H   UNL     1      10.733  -2.293  -5.523  0.00  0.00    +0.163 HD
ATOM      6  H   UNL     1      11.612  -4.005  -8.457  0.00  0.00    +0.159 HD
ATOM      7  H   UNL     1      11.579  -4.073  -6.735  0.00  0.00    +0.159 HD
ATOM      8  H   UNL     1      10.259  -0.761  -8.750  0.00  0.00    +0.159 HD
ATOM      9  H   UNL     1      10.866  -2.132  -9.595  0.00  0.00    +0.159 HD
ENDROOT
BRANCH   1  10
ATOM     10  C   UNL     1      10.061  -0.394  -6.216  0.00  0.00    +0.151 C 
BRANCH  10  11
ATOM     11  C   UNL     1       8.857  -0.422  -5.316  0.00  0.00    -0.028 A 
ATOM     12  C   UNL     1       7.675   0.236  -5.687  0.00  0.00    +0.005 A 
ATOM     13  C   UNL     1       8.889  -1.111  -4.094  0.00  0.00    +0.005 A 
ATOM     14  C   UNL     1       6.546   0.185  -4.865  0.00  0.00    +0.000 A 
ATOM     15  C   UNL     1       7.760  -1.159  -3.276  0.00  0.00    +0.000 A 
ATOM     16  C   UNL     1       6.588  -0.513  -3.663  0.00  0.00    +0.000 A 
ENDBRANCH  10  11
ENDBRANCH   1  10
TORSDOF 2
ENDMDL
