MODEL 1
REMARK VINA RESULT:    -5.471      0.000      0.000
REMARK INTER + INTRA:          -6.250
REMARK INTER:                  -6.111
REMARK INTRA:                  -0.140
REMARK UNBOUND:                -0.140
REMARK  Name = 1550473
REMARK  2 active torsions:
REMARK  status: ('A' for Active; 'I' for Inactive)
REMARK    1  A    between atoms: N_1  and  C_4
REMARK    2  A    between atoms: C_4  and  C_5
REMARK                            x       y       z     vdW  Elec       q    Type
REMARK                         _______ _______ _______ _____ _____    ______ ____
ROOT
ATOM      1  N   UNL     1     -10.713  -6.820 -12.407  0.00  0.00    -0.354 N 
ATOM      2  N   UNL     1      -9.138  -7.404 -10.812  0.00  0.00    -0.372 N 
ATOM      3  N   UNL     1      -8.575  -5.860 -12.413  0.00  0.00    -0.372 N 
ATOM      4  C   UNL     1      -9.484  -6.689 -11.889  0.00  0.00    +0.166 C 
ATOM      5  H   UNL     1     -11.346  -7.487 -11.982  0.00  0.00    +0.163 HD
ATOM      6  H   UNL     1      -8.219  -7.325 -10.398  0.00  0.00    +0.159 HD
ATOM      7  H   UNL     1      -9.788  -8.037 -10.362  0.00  0.00    +0.159 HD
ATOM      8  H   UNL     1      -8.771  -5.297 -13.230  0.00  0.00    +0.159 HD
ATOM      9  H   UNL     1      -7.646  -5.775 -12.020  0.00  0.00    +0.159 HD
ENDROOT
BRANCH   1  10
ATOM     10  C   UNL     1     -11.207  -6.047 -13.545  0.00  0.00    +0.151 C 
BRANCH  10  11
ATOM     11  C   UNL     1     -12.434  -5.285 -13.127  0.00  0.00    -0.028 A 
ATOM     12  C   UNL     1     -13.690  -5.908 -13.117  0.00  0.00    +0.005 A 
ATOM     13  C   UNL     1     -12.345  -3.941 -12.734  0.00  0.00    +0.005 A 
ATOM     14  C   UNL     1     -14.825  -5.209 -12.699  0.00  0.00    +0.000 A 
ATOM     15  C   UNL     1     -13.481  -3.246 -12.319  0.00  0.00    +0.000 A 
ATOM     16  C   UNL     1     -14.721  -3.881 -12.299  0.00  0.00    +0.000 A 
ENDBRANCH  10  11
ENDBRANCH   1  10
TORSDOF 2
ENDMDL
MODEL 2
REMARK VINA RESULT:    -5.392      9.272     10.324
REMARK INTER + INTRA:          -6.162
REMARK INTER:                  -6.036
REMARK INTRA:                  -0.126
REMARK UNBOUND:                -0.140
REMARK  Name = 1550473
REMARK  2 active torsions:
REMARK  status: ('A' for Active; 'I' for Inactive)
REMARK    1  A    between atoms: N_1  and  C_4
REMARK    2  A    between atoms: C_4  and  C_5
REMARK                            x       y       z     vdW  Elec       q    Type
REMARK                         _______ _______ _______ _____ _____    ______ ____
ROOT
ATOM      1  N   UNL     1     -15.071 -14.492 -19.176  0.00  0.00    -0.354 N 
ATOM      2  N   UNL     1     -14.314 -14.974 -21.312  0.00  0.00    -0.372 N 
ATOM      3  N   UNL     1     -12.799 -14.306 -19.723  0.00  0.00    -0.372 N 
ATOM      4  C   UNL     1     -14.064 -14.587 -20.055  0.00  0.00    +0.166 C 
ATOM      5  H   UNL     1     -16.011 -14.690 -19.499  0.00  0.00    +0.163 HD
ATOM      6  H   UNL     1     -13.574 -15.057 -21.996  0.00  0.00    +0.159 HD
ATOM      7  H   UNL     1     -15.248 -15.215 -21.619  0.00  0.00    +0.159 HD
ATOM      8  H   UNL     1     -12.545 -14.003 -18.792  0.00  0.00    +0.159 HD
ATOM      9  H   UNL     1     -12.047 -14.373 -20.396  0.00  0.00    +0.159 HD
ENDROOT
BRANCH   1  10
ATOM     10  C   UNL     1     -14.898 -14.132 -17.770  0.00  0.00    +0.151 C 
BRANCH  10  11
ATOM     11  C   UNL     1     -15.469 -12.759 -17.541  0.00  0.00    -0.028 A 
ATOM     12  C   UNL     1     -15.292 -12.111 -16.310  0.00  0.00    +0.005 A 
ATOM     13  C   UNL     1     -16.182 -12.099 -18.554  0.00  0.00    +0.005 A 
ATOM     14  C   UNL     1     -15.797 -10.824 -16.107  0.00  0.00    +0.000 A 
ATOM     15  C   UNL     1     -16.684 -10.815 -18.347  0.00  0.00    +0.000 A 
ATOM     16  C   UNL     1     -16.489 -10.177 -17.124  0.00  0.00    +0.000 A 
ENDBRANCH  10  11
ENDBRANCH   1  10
TORSDOF 2
ENDMDL
MODEL 3
REMARK VINA RESULT:    -5.327      9.559     10.731
REMARK INTER + INTRA:          -6.089
REMARK INTER:                  -5.952
REMARK INTRA:                  -0.138
REMARK UNBOUND:                -0.140
REMARK  Name = 1550473
REMARK  2 active torsions:
REMARK  status: ('A' for Active; 'I' for Inactive)
REMARK    1  A    between atoms: N_1  and  C_4
REMARK    2  A    between atoms: C_4  and  C_5
REMARK                            x       y       z     vdW  Elec       q    Type
REMARK                         _______ _______ _______ _____ _____    ______ ____
ROOT
ATOM      1  N   UNL     1     -15.325 -13.262 -20.278  0.00  0.00    -0.354 N 
ATOM      2  N   UNL     1     -14.007 -14.937 -21.184  0.00  0.00    -0.372 N 
ATOM      3  N   UNL     1     -16.187 -15.410 -20.647  0.00  0.00    -0.372 N 
ATOM      4  C   UNL     1     -15.184 -14.527 -20.696  0.00  0.00    +0.166 C 
ATOM      5  H   UNL     1     -14.518 -12.651 -20.314  0.00  0.00    +0.163 HD
ATOM      6  H   UNL     1     -13.871 -15.885 -21.510  0.00  0.00    +0.159 HD
ATOM      7  H   UNL     1     -13.215 -14.311 -21.261  0.00  0.00    +0.159 HD
ATOM      8  H   UNL     1     -17.099 -15.166 -20.284  0.00  0.00    +0.159 HD
ATOM      9  H   UNL     1     -16.067 -16.366 -20.958  0.00  0.00    +0.159 HD
ENDROOT
BRANCH   1  10
ATOM     10  C   UNL     1     -16.580 -12.701 -19.780  0.00  0.00    +0.151 C 
BRANCH  10  11
ATOM     11  C   UNL     1     -16.310 -11.946 -18.508  0.00  0.00    -0.028 A 
ATOM     12  C   UNL     1     -16.711 -10.608 -18.376  0.00  0.00    +0.005 A 
ATOM     13  C   UNL     1     -15.659 -12.564 -17.430  0.00  0.00    +0.005 A 
ATOM     14  C   UNL     1     -16.487  -9.915 -17.184  0.00  0.00    +0.000 A 
ATOM     15  C   UNL     1     -15.437 -11.868 -16.241  0.00  0.00    +0.000 A 
ATOM     16  C   UNL     1     -15.853 -10.545 -16.118  0.00  0.00    +0.000 A 
ENDBRANCH  10  11
ENDBRANCH   1  10
TORSDOF 2
ENDMDL
MODEL 4
REMARK VINA RESULT:    -5.322     14.330     15.095
REMARK INTER + INTRA:          -6.084
REMARK INTER:                  -5.913
REMARK INTRA:                  -0.171
REMARK UNBOUND:                -0.140
REMARK  Name = 1550473
REMARK  2 active torsions:
REMARK  status: ('A' for Active; 'I' for Inactive)
REMARK    1  A    between atoms: N_1  and  C_4
REMARK    2  A    between atoms: C_4  and  C_5
REMARK                            x       y       z     vdW  Elec       q    Type
REMARK                         _______ _______ _______ _____ _____    ______ ____
ROOT
ATOM      1  N   UNL     1     -11.217  -1.514   3.604  0.00  0.00    -0.354 N 
ATOM      2  N   UNL     1      -9.499  -0.774   4.970  0.00  0.00    -0.372 N 
ATOM      3  N   UNL     1      -9.456  -2.938   4.208  0.00  0.00    -0.372 N 
ATOM      4  C   UNL     1     -10.068  -1.750   4.252  0.00  0.00    +0.166 C 
ATOM      5  H   UNL     1     -11.646  -0.601   3.702  0.00  0.00    +0.163 HD
ATOM      6  H   UNL     1      -8.631  -0.921   5.467  0.00  0.00    +0.159 HD
ATOM      7  H   UNL     1      -9.906   0.151   5.029  0.00  0.00    +0.159 HD
ATOM      8  H   UNL     1      -9.837  -3.717   3.689  0.00  0.00    +0.159 HD
ATOM      9  H   UNL     1      -8.593  -3.108   4.708  0.00  0.00    +0.159 HD
ENDROOT
BRANCH   1  10
ATOM     10  C   UNL     1     -11.890  -2.492   2.751  0.00  0.00    +0.151 C 
BRANCH  10  11
ATOM     11  C   UNL     1     -11.537  -2.216   1.315  0.00  0.00    -0.028 A 
ATOM     12  C   UNL     1     -11.527  -0.903   0.824  0.00  0.00    +0.005 A 
ATOM     13  C   UNL     1     -11.205  -3.265   0.443  0.00  0.00    +0.005 A 
ATOM     14  C   UNL     1     -11.170  -0.644  -0.502  0.00  0.00    +0.000 A 
ATOM     15  C   UNL     1     -10.850  -3.002  -0.880  0.00  0.00    +0.000 A 
ATOM     16  C   UNL     1     -10.830  -1.692  -1.351  0.00  0.00    +0.000 A 
ENDBRANCH  10  11
ENDBRANCH   1  10
TORSDOF 2
ENDMDL
MODEL 5
REMARK VINA RESULT:    -5.187      9.146     10.161
REMARK INTER + INTRA:          -5.933
REMARK INTER:                  -5.813
REMARK INTRA:                  -0.120
REMARK UNBOUND:                -0.140
REMARK  Name = 1550473
REMARK  2 active torsions:
REMARK  status: ('A' for Active; 'I' for Inactive)
REMARK    1  A    between atoms: N_1  and  C_4
REMARK    2  A    between atoms: C_4  and  C_5
REMARK                            x       y       z     vdW  Elec       q    Type
REMARK                         _______ _______ _______ _____ _____    ______ ____
ROOT
ATOM      1  N   UNL     1     -15.333 -14.802 -17.564  0.00  0.00    -0.354 N 
ATOM      2  N   UNL     1     -15.552 -16.978 -18.324  0.00  0.00    -0.372 N 
ATOM      3  N   UNL     1     -14.119 -16.550 -16.584  0.00  0.00    -0.372 N 
ATOM      4  C   UNL     1     -14.998 -16.096 -17.484  0.00  0.00    +0.166 C 
ATOM      5  H   UNL     1     -15.983 -14.517 -18.288  0.00  0.00    +0.163 HD
ATOM      6  H   UNL     1     -15.321 -17.962 -18.285  0.00  0.00    +0.159 HD
ATOM      7  H   UNL     1     -16.235 -16.698 -19.017  0.00  0.00    +0.159 HD
ATOM      8  H   UNL     1     -13.661 -15.934 -15.926  0.00  0.00    +0.159 HD
ATOM      9  H   UNL     1     -13.866 -17.529 -16.537  0.00  0.00    +0.159 HD
ENDROOT
BRANCH   1  10
ATOM     10  C   UNL     1     -14.828 -13.768 -16.662  0.00  0.00    +0.151 C 
BRANCH  10  11
ATOM     11  C   UNL     1     -15.462 -12.452 -17.018  0.00  0.00    -0.028 A 
ATOM     12  C   UNL     1     -16.017 -12.251 -18.291  0.00  0.00    +0.005 A 
ATOM     13  C   UNL     1     -15.515 -11.404 -16.087  0.00  0.00    +0.005 A 
ATOM     14  C   UNL     1     -16.633 -11.039 -18.612  0.00  0.00    +0.000 A 
ATOM     15  C   UNL     1     -16.130 -10.195 -16.412  0.00  0.00    +0.000 A 
ATOM     16  C   UNL     1     -16.691 -10.014 -17.674  0.00  0.00    +0.000 A 
ENDBRANCH  10  11
ENDBRANCH   1  10
TORSDOF 2
ENDMDL
MODEL 6
REMARK VINA RESULT:    -5.110     10.939     11.653
REMARK INTER + INTRA:          -5.847
REMARK INTER:                  -5.716
REMARK INTRA:                  -0.132
REMARK UNBOUND:                -0.140
REMARK  Name = 1550473
REMARK  2 active torsions:
REMARK  status: ('A' for Active; 'I' for Inactive)
REMARK    1  A    between atoms: N_1  and  C_4
REMARK    2  A    between atoms: C_4  and  C_5
REMARK                            x       y       z     vdW  Elec       q    Type
REMARK                         _______ _______ _______ _____ _____    ______ ____
ROOT
ATOM      1  N   UNL     1     -10.599  -4.245  -2.964  0.00  0.00    -0.354 N 
ATOM      2  N   UNL     1      -9.920  -6.399  -3.479  0.00  0.00    -0.372 N 
ATOM      3  N   UNL     1      -8.411  -4.682  -3.681  0.00  0.00    -0.372 N 
ATOM      4  C   UNL     1      -9.645  -5.093  -3.372  0.00  0.00    +0.166 C 
ATOM      5  H   UNL     1     -11.523  -4.616  -2.774  0.00  0.00    +0.163 HD
ATOM      6  H   UNL     1      -9.220  -7.063  -3.781  0.00  0.00    +0.159 HD
ATOM      7  H   UNL     1     -10.832  -6.773  -3.245  0.00  0.00    +0.159 HD
ATOM      8  H   UNL     1      -8.141  -3.709  -3.627  0.00  0.00    +0.159 HD
ATOM      9  H   UNL     1      -7.700  -5.330  -3.996  0.00  0.00    +0.159 HD
ENDROOT
BRANCH   1  10
ATOM     10  C   UNL     1     -10.388  -2.813  -2.763  0.00  0.00    +0.151 C 
BRANCH  10  11
ATOM     11  C   UNL     1     -10.763  -2.455  -1.351  0.00  0.00    -0.028 A 
ATOM     12  C   UNL     1     -10.940  -1.114  -0.980  0.00  0.00    +0.005 A 
ATOM     13  C   UNL     1     -10.949  -3.452  -0.382  0.00  0.00    +0.005 A 
ATOM     14  C   UNL     1     -11.318  -0.783   0.323  0.00  0.00    +0.000 A 
ATOM     15  C   UNL     1     -11.325  -3.117   0.919  0.00  0.00    +0.000 A 
ATOM     16  C   UNL     1     -11.512  -1.783   1.270  0.00  0.00    +0.000 A 
ENDBRANCH  10  11
ENDBRANCH   1  10
TORSDOF 2
ENDMDL
MODEL 7
REMARK VINA RESULT:    -5.071      8.347      9.395
REMARK INTER + INTRA:          -5.804
REMARK INTER:                  -5.652
REMARK INTRA:                  -0.152
REMARK UNBOUND:                -0.140
REMARK  Name = 1550473
REMARK  2 active torsions:
REMARK  status: ('A' for Active; 'I' for Inactive)
REMARK    1  A    between atoms: N_1  and  C_4
REMARK    2  A    between atoms: C_4  and  C_5
REMARK                            x       y       z     vdW  Elec       q    Type
REMARK                         _______ _______ _______ _____ _____    ______ ____
ROOT
ATOM      1  N   UNL     1      -8.345  -5.818  -4.960  0.00  0.00    -0.354 N 
ATOM      2  N   UNL     1      -8.795  -7.795  -6.078  0.00  0.00    -0.372 N 
ATOM      3  N   UNL     1      -9.476  -5.813  -7.012  0.00  0.00    -0.372 N 
ATOM      4  C   UNL     1      -8.870  -6.461  -6.011  0.00  0.00    +0.166 C 
ATOM      5  H   UNL     1      -7.926  -6.369  -4.219  0.00  0.00    +0.163 HD
ATOM      6  H   UNL     1      -9.180  -8.307  -6.861  0.00  0.00    +0.159 HD
ATOM      7  H   UNL     1      -8.335  -8.340  -5.359  0.00  0.00    +0.159 HD
ATOM      8  H   UNL     1      -9.571  -4.806  -7.019  0.00  0.00    +0.159 HD
ATOM      9  H   UNL     1      -9.877  -6.309  -7.799  0.00  0.00    +0.159 HD
ENDROOT
BRANCH   1  10
ATOM     10  C   UNL     1      -8.326  -4.363  -4.817  0.00  0.00    +0.151 C 
BRANCH  10  11
ATOM     11  C   UNL     1      -9.141  -3.978  -3.613  0.00  0.00    -0.028 A 
ATOM     12  C   UNL     1      -9.655  -2.679  -3.488  0.00  0.00    +0.005 A 
ATOM     13  C   UNL     1      -9.407  -4.908  -2.597  0.00  0.00    +0.005 A 
ATOM     14  C   UNL     1     -10.437  -2.329  -2.384  0.00  0.00    +0.000 A 
ATOM     15  C   UNL     1     -10.188  -4.555  -1.497  0.00  0.00    +0.000 A 
ATOM     16  C   UNL     1     -10.705  -3.266  -1.392  0.00  0.00    +0.000 A 
ENDBRANCH  10  11
ENDBRANCH   1  10
TORSDOF 2
ENDMDL
MODEL 8
REMARK VINA RESULT:    -4.990      9.155     10.626
REMARK INTER + INTRA:          -5.713
REMARK INTER:                  -5.539
REMARK INTRA:                  -0.174
REMARK UNBOUND:                -0.140
REMARK  Name = 1550473
REMARK  2 active torsions:
REMARK  status: ('A' for Active; 'I' for Inactive)
REMARK    1  A    between atoms: N_1  and  C_4
REMARK    2  A    between atoms: C_4  and  C_5
REMARK                            x       y       z     vdW  Elec       q    Type
REMARK                         _______ _______ _______ _____ _____    ______ ____
ROOT
ATOM      1  N   UNL     1     -18.389 -10.213 -19.978  0.00  0.00    -0.354 N 
ATOM      2  N   UNL     1     -20.693 -10.437 -20.068  0.00  0.00    -0.372 N 
ATOM      3  N   UNL     1     -19.785  -8.868 -18.661  0.00  0.00    -0.372 N 
ATOM      4  C   UNL     1     -19.607  -9.836 -19.566  0.00  0.00    +0.166 C 
ATOM      5  H   UNL     1     -18.321 -10.973 -20.645  0.00  0.00    +0.163 HD
ATOM      6  H   UNL     1     -21.625 -10.171 -19.779  0.00  0.00    +0.159 HD
ATOM      7  H   UNL     1     -20.623 -11.165 -20.768  0.00  0.00    +0.159 HD
ATOM      8  H   UNL     1     -19.006  -8.380 -18.239  0.00  0.00    +0.159 HD
ATOM      9  H   UNL     1     -20.709  -8.597 -18.350  0.00  0.00    +0.159 HD
ENDROOT
BRANCH   1  10
ATOM     10  C   UNL     1     -17.145  -9.586 -19.534  0.00  0.00    +0.151 C 
BRANCH  10  11
ATOM     11  C   UNL     1     -16.573 -10.383 -18.395  0.00  0.00    -0.028 A 
ATOM     12  C   UNL     1     -16.401  -9.797 -17.132  0.00  0.00    +0.005 A 
ATOM     13  C   UNL     1     -16.207 -11.726 -18.569  0.00  0.00    +0.005 A 
ATOM     14  C   UNL     1     -15.898 -10.545 -16.065  0.00  0.00    +0.000 A 
ATOM     15  C   UNL     1     -15.704 -12.470 -17.502  0.00  0.00    +0.000 A 
ATOM     16  C   UNL     1     -15.552 -11.880 -16.249  0.00  0.00    +0.000 A 
ENDBRANCH  10  11
ENDBRANCH   1  10
TORSDOF 2
ENDMDL
MODEL 9
REMARK VINA RESULT:    -4.845     11.223     11.960
REMARK INTER + INTRA:          -5.551
REMARK INTER:                  -5.401
REMARK INTRA:                  -0.150
REMARK UNBOUND:                -0.140
REMARK  Name = 1550473
REMARK  2 active torsions:
REMARK  status: ('A' for Active; 'I' for Inactive)
REMARK    1  A    between atoms: N_1  and  C_4
REMARK    2  A    between atoms: C_4  and  C_5
REMARK                            x       y       z     vdW  Elec       q    Type
REMARK                         _______ _______ _______ _____ _____    ______ ____
ROOT
ATOM      1  N   UNL     1     -11.380  -5.511  -2.109  0.00  0.00    -0.354 N 
ATOM      2  N   UNL     1     -12.449  -7.545  -1.817  0.00  0.00    -0.372 N 
ATOM      3  N   UNL     1     -10.260  -7.338  -1.160  0.00  0.00    -0.372 N 
ATOM      4  C   UNL     1     -11.354  -6.785  -1.696  0.00  0.00    +0.166 C 
ATOM      5  H   UNL     1     -12.231  -5.160  -2.534  0.00  0.00    +0.163 HD
ATOM      6  H   UNL     1     -12.460  -8.508  -1.511  0.00  0.00    +0.159 HD
ATOM      7  H   UNL     1     -13.312  -7.178  -2.200  0.00  0.00    +0.159 HD
ATOM      8  H   UNL     1      -9.399  -6.820  -1.047  0.00  0.00    +0.159 HD
ATOM      9  H   UNL     1     -10.248  -8.304  -0.859  0.00  0.00    +0.159 HD
ENDROOT
BRANCH   1  10
ATOM     10  C   UNL     1     -10.258  -4.584  -1.973  0.00  0.00    +0.151 C 
BRANCH  10  11
ATOM     11  C   UNL     1     -10.686  -3.414  -1.131  0.00  0.00    -0.028 A 
ATOM     12  C   UNL     1     -11.070  -3.600   0.205  0.00  0.00    +0.005 A 
ATOM     13  C   UNL     1     -10.705  -2.115  -1.662  0.00  0.00    +0.005 A 
ATOM     14  C   UNL     1     -11.439  -2.510   0.996  0.00  0.00    +0.000 A 
ATOM     15  C   UNL     1     -11.075  -1.029  -0.869  0.00  0.00    +0.000 A 
ATOM     16  C   UNL     1     -11.440  -1.226   0.460  0.00  0.00    +0.000 A 
ENDBRANCH  10  11
ENDBRANCH   1  10
TORSDOF 2
ENDMDL
