MODEL 1
REMARK VINA RESULT:    -4.848      0.000      0.000
REMARK INTER + INTRA:          -5.554
REMARK INTER:                  -5.414
REMARK INTRA:                  -0.139
REMARK UNBOUND:                -0.139
REMARK  Name = 1550473
REMARK  2 active torsions:
REMARK  status: ('A' for Active; 'I' for Inactive)
REMARK    1  A    between atoms: N_1  and  C_4
REMARK    2  A    between atoms: C_4  and  C_5
REMARK                            x       y       z     vdW  Elec       q    Type
REMARK                         _______ _______ _______ _____ _____    ______ ____
ROOT
ATOM      1  N   UNL     1     -14.315  -5.485  -0.276  0.00  0.00    -0.354 N 
ATOM      2  N   UNL     1     -16.010  -5.031   1.235  0.00  0.00    -0.372 N 
ATOM      3  N   UNL     1     -16.550  -5.361  -0.971  0.00  0.00    -0.372 N 
ATOM      4  C   UNL     1     -15.615  -5.296  -0.016  0.00  0.00    +0.166 C 
ATOM      5  H   UNL     1     -13.653  -5.392   0.486  0.00  0.00    +0.163 HD
ATOM      6  H   UNL     1     -16.985  -4.887   1.462  0.00  0.00    +0.159 HD
ATOM      7  H   UNL     1     -15.351  -4.984   2.003  0.00  0.00    +0.159 HD
ATOM      8  H   UNL     1     -16.317  -5.551  -1.936  0.00  0.00    +0.159 HD
ATOM      9  H   UNL     1     -17.529  -5.208  -0.765  0.00  0.00    +0.159 HD
ENDROOT
BRANCH   1  10
ATOM     10  C   UNL     1     -13.787  -5.832  -1.595  0.00  0.00    +0.151 C 
BRANCH  10  11
ATOM     11  C   UNL     1     -12.636  -4.920  -1.918  0.00  0.00    -0.028 A 
ATOM     12  C   UNL     1     -12.206  -4.757  -3.243  0.00  0.00    +0.005 A 
ATOM     13  C   UNL     1     -11.974  -4.211  -0.904  0.00  0.00    +0.005 A 
ATOM     14  C   UNL     1     -11.156  -3.887  -3.547  0.00  0.00    +0.000 A 
ATOM     15  C   UNL     1     -10.926  -3.343  -1.211  0.00  0.00    +0.000 A 
ATOM     16  C   UNL     1     -10.519  -3.180  -2.533  0.00  0.00    +0.000 A 
ENDBRANCH  10  11
ENDBRANCH   1  10
TORSDOF 2
ENDMDL
MODEL 2
REMARK VINA RESULT:    -4.467     26.507     27.661
REMARK INTER + INTRA:          -5.129
REMARK INTER:                  -5.003
REMARK INTRA:                  -0.126
REMARK UNBOUND:                -0.139
REMARK  Name = 1550473
REMARK  2 active torsions:
REMARK  status: ('A' for Active; 'I' for Inactive)
REMARK    1  A    between atoms: N_1  and  C_4
REMARK    2  A    between atoms: C_4  and  C_5
REMARK                            x       y       z     vdW  Elec       q    Type
REMARK                         _______ _______ _______ _____ _____    ______ ____
ROOT
ATOM      1  N   UNL     1       8.367  13.515  -4.176  0.00  0.00    -0.354 N 
ATOM      2  N   UNL     1       6.862  15.189  -3.632  0.00  0.00    -0.372 N 
ATOM      3  N   UNL     1       7.542  14.975  -5.813  0.00  0.00    -0.372 N 
ATOM      4  C   UNL     1       7.601  14.549  -4.547  0.00  0.00    +0.166 C 
ATOM      5  H   UNL     1       8.391  13.260  -3.196  0.00  0.00    +0.163 HD
ATOM      6  H   UNL     1       6.272  15.971  -3.882  0.00  0.00    +0.159 HD
ATOM      7  H   UNL     1       6.853  14.903  -2.660  0.00  0.00    +0.159 HD
ATOM      8  H   UNL     1       8.079  14.539  -6.550  0.00  0.00    +0.159 HD
ATOM      9  H   UNL     1       6.966  15.763  -6.081  0.00  0.00    +0.159 HD
ENDROOT
BRANCH   1  10
ATOM     10  C   UNL     1       9.167  12.717  -5.104  0.00  0.00    +0.151 C 
BRANCH  10  11
ATOM     11  C   UNL     1       8.955  11.258  -4.807  0.00  0.00    -0.028 A 
ATOM     12  C   UNL     1       8.847  10.810  -3.482  0.00  0.00    +0.005 A 
ATOM     13  C   UNL     1       8.854  10.320  -5.846  0.00  0.00    +0.005 A 
ATOM     14  C   UNL     1       8.619   9.459  -3.207  0.00  0.00    +0.000 A 
ATOM     15  C   UNL     1       8.628   8.973  -5.567  0.00  0.00    +0.000 A 
ATOM     16  C   UNL     1       8.508   8.543  -4.247  0.00  0.00    +0.000 A 
ENDBRANCH  10  11
ENDBRANCH   1  10
TORSDOF 2
ENDMDL
MODEL 3
REMARK VINA RESULT:    -4.454     29.953     30.685
REMARK INTER + INTRA:          -5.114
REMARK INTER:                  -4.934
REMARK INTRA:                  -0.180
REMARK UNBOUND:                -0.139
REMARK  Name = 1550473
REMARK  2 active torsions:
REMARK  status: ('A' for Active; 'I' for Inactive)
REMARK    1  A    between atoms: N_1  and  C_4
REMARK    2  A    between atoms: C_4  and  C_5
REMARK                            x       y       z     vdW  Elec       q    Type
REMARK                         _______ _______ _______ _____ _____    ______ ____
ROOT
ATOM      1  N   UNL     1       7.851 -27.129  -3.135  0.00  0.00    -0.354 N 
ATOM      2  N   UNL     1       8.719 -25.525  -1.707  0.00  0.00    -0.372 N 
ATOM      3  N   UNL     1       8.408 -27.658  -0.921  0.00  0.00    -0.372 N 
ATOM      4  C   UNL     1       8.320 -26.783  -1.928  0.00  0.00    +0.166 C 
ATOM      5  H   UNL     1       7.781 -26.412  -3.848  0.00  0.00    +0.163 HD
ATOM      6  H   UNL     1       9.080 -25.235  -0.808  0.00  0.00    +0.159 HD
ATOM      7  H   UNL     1       8.691 -24.821  -2.435  0.00  0.00    +0.159 HD
ATOM      8  H   UNL     1       8.118 -28.621  -1.021  0.00  0.00    +0.159 HD
ATOM      9  H   UNL     1       8.756 -27.384  -0.010  0.00  0.00    +0.159 HD
ENDROOT
BRANCH   1  10
ATOM     10  C   UNL     1       7.442 -28.485  -3.495  0.00  0.00    +0.151 C 
BRANCH  10  11
ATOM     11  C   UNL     1       5.940 -28.553  -3.525  0.00  0.00    -0.028 A 
ATOM     12  C   UNL     1       5.226 -29.032  -2.417  0.00  0.00    +0.005 A 
ATOM     13  C   UNL     1       5.224 -28.135  -4.657  0.00  0.00    +0.005 A 
ATOM     14  C   UNL     1       3.830 -29.067  -2.433  0.00  0.00    +0.000 A 
ATOM     15  C   UNL     1       3.830 -28.172  -4.670  0.00  0.00    +0.000 A 
ATOM     16  C   UNL     1       3.133 -28.636  -3.557  0.00  0.00    +0.000 A 
ENDBRANCH  10  11
ENDBRANCH   1  10
TORSDOF 2
ENDMDL
MODEL 4
REMARK VINA RESULT:    -4.430      1.521      2.132
REMARK INTER + INTRA:          -5.088
REMARK INTER:                  -5.002
REMARK INTRA:                  -0.086
REMARK UNBOUND:                -0.139
REMARK  Name = 1550473
REMARK  2 active torsions:
REMARK  status: ('A' for Active; 'I' for Inactive)
REMARK    1  A    between atoms: N_1  and  C_4
REMARK    2  A    between atoms: C_4  and  C_5
REMARK                            x       y       z     vdW  Elec       q    Type
REMARK                         _______ _______ _______ _____ _____    ______ ____
ROOT
ATOM      1  N   UNL     1     -15.632  -5.418  -1.726  0.00  0.00    -0.354 N 
ATOM      2  N   UNL     1     -16.117  -7.277  -0.432  0.00  0.00    -0.372 N 
ATOM      3  N   UNL     1     -15.233  -5.419   0.583  0.00  0.00    -0.372 N 
ATOM      4  C   UNL     1     -15.656  -6.025  -0.532  0.00  0.00    +0.166 C 
ATOM      5  H   UNL     1     -15.939  -5.942  -2.538  0.00  0.00    +0.163 HD
ATOM      6  H   UNL     1     -16.150  -7.759   0.456  0.00  0.00    +0.159 HD
ATOM      7  H   UNL     1     -16.466  -7.782  -1.238  0.00  0.00    +0.159 HD
ATOM      8  H   UNL     1     -14.868  -4.476   0.575  0.00  0.00    +0.159 HD
ATOM      9  H   UNL     1     -15.247  -5.889   1.480  0.00  0.00    +0.159 HD
ENDROOT
BRANCH   1  10
ATOM     10  C   UNL     1     -15.200  -4.038  -1.934  0.00  0.00    +0.151 C 
BRANCH  10  11
ATOM     11  C   UNL     1     -13.910  -4.038  -2.707  0.00  0.00    -0.028 A 
ATOM     12  C   UNL     1     -13.584  -2.964  -3.548  0.00  0.00    +0.005 A 
ATOM     13  C   UNL     1     -13.006  -5.106  -2.597  0.00  0.00    +0.005 A 
ATOM     14  C   UNL     1     -12.372  -2.949  -4.243  0.00  0.00    +0.000 A 
ATOM     15  C   UNL     1     -11.798  -5.088  -3.293  0.00  0.00    +0.000 A 
ATOM     16  C   UNL     1     -11.480  -4.009  -4.114  0.00  0.00    +0.000 A 
ENDBRANCH  10  11
ENDBRANCH   1  10
TORSDOF 2
ENDMDL
MODEL 5
REMARK VINA RESULT:    -4.401     22.365     23.119
REMARK INTER + INTRA:          -5.055
REMARK INTER:                  -4.934
REMARK INTRA:                  -0.121
REMARK UNBOUND:                -0.139
REMARK  Name = 1550473
REMARK  2 active torsions:
REMARK  status: ('A' for Active; 'I' for Inactive)
REMARK    1  A    between atoms: N_1  and  C_4
REMARK    2  A    between atoms: C_4  and  C_5
REMARK                            x       y       z     vdW  Elec       q    Type
REMARK                         _______ _______ _______ _____ _____    ______ ____
ROOT
ATOM      1  N   UNL     1      -2.099   8.517 -16.554  0.00  0.00    -0.354 N 
ATOM      2  N   UNL     1      -2.850  10.184 -17.976  0.00  0.00    -0.372 N 
ATOM      3  N   UNL     1      -3.654   8.051 -18.244  0.00  0.00    -0.372 N 
ATOM      4  C   UNL     1      -2.864   8.904 -17.583  0.00  0.00    +0.166 C 
ATOM      5  H   UNL     1      -1.499   9.206 -16.114  0.00  0.00    +0.163 HD
ATOM      6  H   UNL     1      -3.419  10.506 -18.747  0.00  0.00    +0.159 HD
ATOM      7  H   UNL     1      -2.284  10.879 -17.505  0.00  0.00    +0.159 HD
ATOM      8  H   UNL     1      -3.705   7.071 -18.001  0.00  0.00    +0.159 HD
ATOM      9  H   UNL     1      -4.222   8.352 -19.026  0.00  0.00    +0.159 HD
ENDROOT
BRANCH   1  10
ATOM     10  C   UNL     1      -2.081   7.159 -16.013  0.00  0.00    +0.151 C 
BRANCH  10  11
ATOM     11  C   UNL     1      -0.656   6.692 -15.902  0.00  0.00    -0.028 A 
ATOM     12  C   UNL     1       0.275   7.422 -15.149  0.00  0.00    +0.005 A 
ATOM     13  C   UNL     1      -0.232   5.518 -16.543  0.00  0.00    +0.005 A 
ATOM     14  C   UNL     1       1.592   6.973 -15.021  0.00  0.00    +0.000 A 
ATOM     15  C   UNL     1       1.084   5.074 -16.414  0.00  0.00    +0.000 A 
ATOM     16  C   UNL     1       1.995   5.800 -15.651  0.00  0.00    +0.000 A 
ENDBRANCH  10  11
ENDBRANCH   1  10
TORSDOF 2
ENDMDL
MODEL 6
REMARK VINA RESULT:    -4.374     30.727     31.416
REMARK INTER + INTRA:          -5.025
REMARK INTER:                  -4.864
REMARK INTRA:                  -0.161
REMARK UNBOUND:                -0.139
REMARK  Name = 1550473
REMARK  2 active torsions:
REMARK  status: ('A' for Active; 'I' for Inactive)
REMARK    1  A    between atoms: N_1  and  C_4
REMARK    2  A    between atoms: C_4  and  C_5
REMARK                            x       y       z     vdW  Elec       q    Type
REMARK                         _______ _______ _______ _____ _____    ______ ____
ROOT
ATOM      1  N   UNL     1       7.715 -29.713  -2.495  0.00  0.00    -0.354 N 
ATOM      2  N   UNL     1       8.241 -31.632  -1.311  0.00  0.00    -0.372 N 
ATOM      3  N   UNL     1       7.504 -29.787  -0.163  0.00  0.00    -0.372 N 
ATOM      4  C   UNL     1       7.816 -30.363  -1.328  0.00  0.00    +0.166 C 
ATOM      5  H   UNL     1       7.996 -30.195  -3.341  0.00  0.00    +0.163 HD
ATOM      6  H   UNL     1       8.324 -32.149  -0.446  0.00  0.00    +0.159 HD
ATOM      7  H   UNL     1       8.477 -32.127  -2.162  0.00  0.00    +0.159 HD
ATOM      8  H   UNL     1       7.183 -28.830  -0.107  0.00  0.00    +0.159 HD
ATOM      9  H   UNL     1       7.592 -30.285   0.715  0.00  0.00    +0.159 HD
ENDROOT
BRANCH   1  10
ATOM     10  C   UNL     1       7.212 -28.347  -2.629  0.00  0.00    +0.151 C 
BRANCH  10  11
ATOM     11  C   UNL     1       5.842 -28.386  -3.248  0.00  0.00    -0.028 A 
ATOM     12  C   UNL     1       4.722 -28.730  -2.477  0.00  0.00    +0.005 A 
ATOM     13  C   UNL     1       5.657 -28.075  -4.604  0.00  0.00    +0.005 A 
ATOM     14  C   UNL     1       3.445 -28.738  -3.045  0.00  0.00    +0.000 A 
ATOM     15  C   UNL     1       4.381 -28.085  -5.167  0.00  0.00    +0.000 A 
ATOM     16  C   UNL     1       3.275 -28.414  -4.386  0.00  0.00    +0.000 A 
ENDBRANCH  10  11
ENDBRANCH   1  10
TORSDOF 2
ENDMDL
MODEL 7
REMARK VINA RESULT:    -4.042     22.293     23.149
REMARK INTER + INTRA:          -4.654
REMARK INTER:                  -4.532
REMARK INTRA:                  -0.123
REMARK UNBOUND:                -0.139
REMARK  Name = 1550473
REMARK  2 active torsions:
REMARK  status: ('A' for Active; 'I' for Inactive)
REMARK    1  A    between atoms: N_1  and  C_4
REMARK    2  A    between atoms: C_4  and  C_5
REMARK                            x       y       z     vdW  Elec       q    Type
REMARK                         _______ _______ _______ _____ _____    ______ ____
ROOT
ATOM      1  N   UNL     1       0.586   5.737 -16.121  0.00  0.00    -0.354 N 
ATOM      2  N   UNL     1      -0.962   4.262 -17.010  0.00  0.00    -0.372 N 
ATOM      3  N   UNL     1      -1.512   6.484 -16.848  0.00  0.00    -0.372 N 
ATOM      4  C   UNL     1      -0.621   5.506 -16.654  0.00  0.00    +0.166 C 
ATOM      5  H   UNL     1       1.205   4.948 -15.971  0.00  0.00    +0.163 HD
ATOM      6  H   UNL     1      -1.865   4.058 -17.418  0.00  0.00    +0.159 HD
ATOM      7  H   UNL     1      -0.324   3.483 -16.902  0.00  0.00    +0.159 HD
ATOM      8  H   UNL     1      -1.318   7.444 -16.595  0.00  0.00    +0.159 HD
ATOM      9  H   UNL     1      -2.425   6.298 -17.244  0.00  0.00    +0.159 HD
ENDROOT
BRANCH   1  10
ATOM     10  C   UNL     1       1.076   7.063 -15.749  0.00  0.00    +0.151 C 
BRANCH  10  11
ATOM     11  C   UNL     1       2.164   6.915 -14.721  0.00  0.00    -0.028 A 
ATOM     12  C   UNL     1       2.843   5.697 -14.574  0.00  0.00    +0.005 A 
ATOM     13  C   UNL     1       2.524   7.990 -13.894  0.00  0.00    +0.005 A 
ATOM     14  C   UNL     1       3.874   5.567 -13.640  0.00  0.00    +0.000 A 
ATOM     15  C   UNL     1       3.553   7.857 -12.963  0.00  0.00    +0.000 A 
ATOM     16  C   UNL     1       4.229   6.646 -12.837  0.00  0.00    +0.000 A 
ENDBRANCH  10  11
ENDBRANCH   1  10
TORSDOF 2
ENDMDL
MODEL 8
REMARK VINA RESULT:    -4.006      2.026      2.386
REMARK INTER + INTRA:          -4.613
REMARK INTER:                  -4.441
REMARK INTRA:                  -0.172
REMARK UNBOUND:                -0.139
REMARK  Name = 1550473
REMARK  2 active torsions:
REMARK  status: ('A' for Active; 'I' for Inactive)
REMARK    1  A    between atoms: N_1  and  C_4
REMARK    2  A    between atoms: C_4  and  C_5
REMARK                            x       y       z     vdW  Elec       q    Type
REMARK                         _______ _______ _______ _____ _____    ______ ____
ROOT
ATOM      1  N   UNL     1     -16.022  -4.305  -1.597  0.00  0.00    -0.354 N 
ATOM      2  N   UNL     1     -16.755  -3.619   0.490  0.00  0.00    -0.372 N 
ATOM      3  N   UNL     1     -16.702  -2.094  -1.224  0.00  0.00    -0.372 N 
ATOM      4  C   UNL     1     -16.488  -3.342  -0.792  0.00  0.00    +0.166 C 
ATOM      5  H   UNL     1     -15.853  -5.223  -1.201  0.00  0.00    +0.163 HD
ATOM      6  H   UNL     1     -17.111  -2.913   1.120  0.00  0.00    +0.159 HD
ATOM      7  H   UNL     1     -16.628  -4.549   0.871  0.00  0.00    +0.159 HD
ATOM      8  H   UNL     1     -16.515  -1.819  -2.179  0.00  0.00    +0.159 HD
ATOM      9  H   UNL     1     -17.047  -1.371  -0.605  0.00  0.00    +0.159 HD
ENDROOT
BRANCH   1  10
ATOM     10  C   UNL     1     -15.751  -4.121  -3.022  0.00  0.00    +0.151 C 
BRANCH  10  11
ATOM     11  C   UNL     1     -14.266  -3.998  -3.227  0.00  0.00    -0.028 A 
ATOM     12  C   UNL     1     -13.734  -2.913  -3.940  0.00  0.00    +0.005 A 
ATOM     13  C   UNL     1     -13.386  -4.959  -2.707  0.00  0.00    +0.005 A 
ATOM     14  C   UNL     1     -12.353  -2.782  -4.105  0.00  0.00    +0.000 A 
ATOM     15  C   UNL     1     -12.008  -4.825  -2.875  0.00  0.00    +0.000 A 
ATOM     16  C   UNL     1     -11.492  -3.735  -3.572  0.00  0.00    +0.000 A 
ENDBRANCH  10  11
ENDBRANCH   1  10
TORSDOF 2
ENDMDL
MODEL 9
REMARK VINA RESULT:    -3.903     22.578     23.320
REMARK INTER + INTRA:          -4.498
REMARK INTER:                  -4.372
REMARK INTRA:                  -0.126
REMARK UNBOUND:                -0.139
REMARK  Name = 1550473
REMARK  2 active torsions:
REMARK  status: ('A' for Active; 'I' for Inactive)
REMARK    1  A    between atoms: N_1  and  C_4
REMARK    2  A    between atoms: C_4  and  C_5
REMARK                            x       y       z     vdW  Elec       q    Type
REMARK                         _______ _______ _______ _____ _____    ______ ____
ROOT
ATOM      1  N   UNL     1       7.192  -0.346 -10.869  0.00  0.00    -0.354 N 
ATOM      2  N   UNL     1       6.845  -2.622 -10.623  0.00  0.00    -0.372 N 
ATOM      3  N   UNL     1       6.080  -1.583 -12.520  0.00  0.00    -0.372 N 
ATOM      4  C   UNL     1       6.706  -1.501 -11.341  0.00  0.00    +0.166 C 
ATOM      5  H   UNL     1       7.629  -0.345  -9.955  0.00  0.00    +0.163 HD
ATOM      6  H   UNL     1       6.492  -3.510 -10.955  0.00  0.00    +0.159 HD
ATOM      7  H   UNL     1       7.323  -2.627  -9.730  0.00  0.00    +0.159 HD
ATOM      8  H   UNL     1       5.938  -0.772 -13.108  0.00  0.00    +0.159 HD
ATOM      9  H   UNL     1       5.710  -2.460 -12.864  0.00  0.00    +0.159 HD
ENDROOT
BRANCH   1  10
ATOM     10  C   UNL     1       7.141   0.921 -11.597  0.00  0.00    +0.151 C 
BRANCH  10  11
ATOM     11  C   UNL     1       7.263   2.056 -10.618  0.00  0.00    -0.028 A 
ATOM     12  C   UNL     1       7.570   1.805  -9.273  0.00  0.00    +0.005 A 
ATOM     13  C   UNL     1       7.078   3.384 -11.031  0.00  0.00    +0.005 A 
ATOM     14  C   UNL     1       7.713   2.861  -8.369  0.00  0.00    +0.000 A 
ATOM     15  C   UNL     1       7.221   4.436 -10.126  0.00  0.00    +0.000 A 
ATOM     16  C   UNL     1       7.541   4.174  -8.796  0.00  0.00    +0.000 A 
ENDBRANCH  10  11
ENDBRANCH   1  10
TORSDOF 2
ENDMDL
