MODEL 1
REMARK VINA RESULT:    -4.777      0.000      0.000
REMARK INTER + INTRA:          -5.429
REMARK INTER:                  -5.335
REMARK INTRA:                  -0.094
REMARK UNBOUND:                -0.094
REMARK  Name = 1550473
REMARK  2 active torsions:
REMARK  status: ('A' for Active; 'I' for Inactive)
REMARK    1  A    between atoms: N_1  and  C_4
REMARK    2  A    between atoms: C_4  and  C_5
REMARK                            x       y       z     vdW  Elec       q    Type
REMARK                         _______ _______ _______ _____ _____    ______ ____
ROOT
ATOM      1  N   UNL     1      -6.600 -12.763  -0.541  0.00  0.00    -0.354 N 
ATOM      2  N   UNL     1      -6.184 -14.860   0.349  0.00  0.00    -0.372 N 
ATOM      3  N   UNL     1      -4.936 -13.077   1.079  0.00  0.00    -0.372 N 
ATOM      4  C   UNL     1      -5.907 -13.551   0.291  0.00  0.00    +0.166 C 
ATOM      5  H   UNL     1      -7.303 -13.188  -1.134  0.00  0.00    +0.163 HD
ATOM      6  H   UNL     1      -5.680 -15.479   0.970  0.00  0.00    +0.159 HD
ATOM      7  H   UNL     1      -6.918 -15.275  -0.211  0.00  0.00    +0.159 HD
ATOM      8  H   UNL     1      -4.675 -12.100   1.078  0.00  0.00    +0.159 HD
ATOM      9  H   UNL     1      -4.413 -13.683   1.698  0.00  0.00    +0.159 HD
ENDROOT
BRANCH   1  10
ATOM     10  C   UNL     1      -6.414 -11.316  -0.642  0.00  0.00    +0.151 C 
BRANCH  10  11
ATOM     11  C   UNL     1      -7.423 -10.757  -1.607  0.00  0.00    -0.028 A 
ATOM     12  C   UNL     1      -8.768 -10.625  -1.233  0.00  0.00    +0.005 A 
ATOM     13  C   UNL     1      -7.039 -10.352  -2.894  0.00  0.00    +0.005 A 
ATOM     14  C   UNL     1      -9.700 -10.078  -2.118  0.00  0.00    +0.000 A 
ATOM     15  C   UNL     1      -7.972  -9.807  -3.776  0.00  0.00    +0.000 A 
ATOM     16  C   UNL     1      -9.302  -9.668  -3.386  0.00  0.00    +0.000 A 
ENDBRANCH  10  11
ENDBRANCH   1  10
TORSDOF 2
ENDMDL
MODEL 2
REMARK VINA RESULT:    -4.325     24.490     25.329
REMARK INTER + INTRA:          -4.925
REMARK INTER:                  -4.811
REMARK INTRA:                  -0.114
REMARK UNBOUND:                -0.094
REMARK  Name = 1550473
REMARK  2 active torsions:
REMARK  status: ('A' for Active; 'I' for Inactive)
REMARK    1  A    between atoms: N_1  and  C_4
REMARK    2  A    between atoms: C_4  and  C_5
REMARK                            x       y       z     vdW  Elec       q    Type
REMARK                         _______ _______ _______ _____ _____    ______ ____
ROOT
ATOM      1  N   UNL     1       0.223  10.971   8.369  0.00  0.00    -0.354 N 
ATOM      2  N   UNL     1       0.017  13.196   7.762  0.00  0.00    -0.372 N 
ATOM      3  N   UNL     1       0.277  11.617   6.117  0.00  0.00    -0.372 N 
ATOM      4  C   UNL     1       0.174  11.912   7.418  0.00  0.00    +0.166 C 
ATOM      5  H   UNL     1       0.169  11.263   9.338  0.00  0.00    +0.163 HD
ATOM      6  H   UNL     1      -0.027  13.928   7.065  0.00  0.00    +0.159 HD
ATOM      7  H   UNL     1      -0.082  13.480   8.729  0.00  0.00    +0.159 HD
ATOM      8  H   UNL     1       0.403  10.668   5.792  0.00  0.00    +0.159 HD
ATOM      9  H   UNL     1       0.248  12.337   5.406  0.00  0.00    +0.159 HD
ENDROOT
BRANCH   1  10
ATOM     10  C   UNL     1       0.337   9.539   8.098  0.00  0.00    +0.151 C 
BRANCH  10  11
ATOM     11  C   UNL     1       0.393   8.794   9.403  0.00  0.00    -0.028 A 
ATOM     12  C   UNL     1      -0.338   9.246  10.512  0.00  0.00    +0.005 A 
ATOM     13  C   UNL     1       1.169   7.633   9.536  0.00  0.00    +0.005 A 
ATOM     14  C   UNL     1      -0.311   8.538  11.716  0.00  0.00    +0.000 A 
ATOM     15  C   UNL     1       1.195   6.930  10.741  0.00  0.00    +0.000 A 
ATOM     16  C   UNL     1       0.453   7.381  11.829  0.00  0.00    +0.000 A 
ENDBRANCH  10  11
ENDBRANCH   1  10
TORSDOF 2
ENDMDL
MODEL 3
REMARK VINA RESULT:    -4.320      2.653      5.118
REMARK INTER + INTRA:          -4.918
REMARK INTER:                  -4.777
REMARK INTRA:                  -0.142
REMARK UNBOUND:                -0.094
REMARK  Name = 1550473
REMARK  2 active torsions:
REMARK  status: ('A' for Active; 'I' for Inactive)
REMARK    1  A    between atoms: N_1  and  C_4
REMARK    2  A    between atoms: C_4  and  C_5
REMARK                            x       y       z     vdW  Elec       q    Type
REMARK                         _______ _______ _______ _____ _____    ______ ____
ROOT
ATOM      1  N   UNL     1      -7.919 -10.219  -1.687  0.00  0.00    -0.354 N 
ATOM      2  N   UNL     1      -7.373  -9.806  -3.899  0.00  0.00    -0.372 N 
ATOM      3  N   UNL     1      -8.707 -11.606  -3.403  0.00  0.00    -0.372 N 
ATOM      4  C   UNL     1      -8.005 -10.549  -2.982  0.00  0.00    +0.166 C 
ATOM      5  H   UNL     1      -7.346  -9.423  -1.430  0.00  0.00    +0.163 HD
ATOM      6  H   UNL     1      -7.423 -10.029  -4.885  0.00  0.00    +0.159 HD
ATOM      7  H   UNL     1      -6.839  -8.985  -3.644  0.00  0.00    +0.159 HD
ATOM      8  H   UNL     1      -9.202 -12.210  -2.761  0.00  0.00    +0.159 HD
ATOM      9  H   UNL     1      -8.759 -11.852  -4.384  0.00  0.00    +0.159 HD
ENDROOT
BRANCH   1  10
ATOM     10  C   UNL     1      -8.613 -10.930  -0.614  0.00  0.00    +0.151 C 
BRANCH  10  11
ATOM     11  C   UNL     1      -7.609 -11.360   0.419  0.00  0.00    -0.028 A 
ATOM     12  C   UNL     1      -6.385 -11.926   0.031  0.00  0.00    +0.005 A 
ATOM     13  C   UNL     1      -7.872 -11.199   1.788  0.00  0.00    +0.005 A 
ATOM     14  C   UNL     1      -5.440 -12.298   0.990  0.00  0.00    +0.000 A 
ATOM     15  C   UNL     1      -6.926 -11.572   2.743  0.00  0.00    +0.000 A 
ATOM     16  C   UNL     1      -5.709 -12.119   2.343  0.00  0.00    +0.000 A 
ENDBRANCH  10  11
ENDBRANCH   1  10
TORSDOF 2
ENDMDL
MODEL 4
REMARK VINA RESULT:    -4.316     25.312     25.963
REMARK INTER + INTRA:          -4.914
REMARK INTER:                  -4.791
REMARK INTRA:                  -0.123
REMARK UNBOUND:                -0.094
REMARK  Name = 1550473
REMARK  2 active torsions:
REMARK  status: ('A' for Active; 'I' for Inactive)
REMARK    1  A    between atoms: N_1  and  C_4
REMARK    2  A    between atoms: C_4  and  C_5
REMARK                            x       y       z     vdW  Elec       q    Type
REMARK                         _______ _______ _______ _____ _____    ______ ____
ROOT
ATOM      1  N   UNL     1       0.010  10.289  10.514  0.00  0.00    -0.354 N 
ATOM      2  N   UNL     1      -0.768  10.457  12.689  0.00  0.00    -0.372 N 
ATOM      3  N   UNL     1      -1.096   8.497  11.542  0.00  0.00    -0.372 N 
ATOM      4  C   UNL     1      -0.614   9.744  11.567  0.00  0.00    +0.166 C 
ATOM      5  H   UNL     1       0.327  11.249  10.586  0.00  0.00    +0.163 HD
ATOM      6  H   UNL     1      -1.231  10.071  13.501  0.00  0.00    +0.159 HD
ATOM      7  H   UNL     1      -0.410  11.400  12.774  0.00  0.00    +0.159 HD
ATOM      8  H   UNL     1      -1.018   7.908  10.723  0.00  0.00    +0.159 HD
ATOM      9  H   UNL     1      -1.574   8.097  12.340  0.00  0.00    +0.159 HD
ENDROOT
BRANCH   1  10
ATOM     10  C   UNL     1       0.277   9.579   9.264  0.00  0.00    +0.151 C 
BRANCH  10  11
ATOM     11  C   UNL     1       1.094  10.462   8.363  0.00  0.00    -0.028 A 
ATOM     12  C   UNL     1       1.520  10.000   7.109  0.00  0.00    +0.005 A 
ATOM     13  C   UNL     1       1.441  11.765   8.754  0.00  0.00    +0.005 A 
ATOM     14  C   UNL     1       2.254  10.831   6.258  0.00  0.00    +0.000 A 
ATOM     15  C   UNL     1       2.174  12.591   7.902  0.00  0.00    +0.000 A 
ATOM     16  C   UNL     1       2.578  12.124   6.653  0.00  0.00    +0.000 A 
ENDBRANCH  10  11
ENDBRANCH   1  10
TORSDOF 2
ENDMDL
MODEL 5
REMARK VINA RESULT:    -4.204      0.953      1.883
REMARK INTER + INTRA:          -4.789
REMARK INTER:                  -4.630
REMARK INTRA:                  -0.159
REMARK UNBOUND:                -0.094
REMARK  Name = 1550473
REMARK  2 active torsions:
REMARK  status: ('A' for Active; 'I' for Inactive)
REMARK    1  A    between atoms: N_1  and  C_4
REMARK    2  A    between atoms: C_4  and  C_5
REMARK                            x       y       z     vdW  Elec       q    Type
REMARK                         _______ _______ _______ _____ _____    ______ ____
ROOT
ATOM      1  N   UNL     1      -6.504 -12.292   0.362  0.00  0.00    -0.354 N 
ATOM      2  N   UNL     1      -5.602 -14.424   0.269  0.00  0.00    -0.372 N 
ATOM      3  N   UNL     1      -7.873 -14.189   0.499  0.00  0.00    -0.372 N 
ATOM      4  C   UNL     1      -6.668 -13.622   0.378  0.00  0.00    +0.166 C 
ATOM      5  H   UNL     1      -5.561 -11.925   0.298  0.00  0.00    +0.163 HD
ATOM      6  H   UNL     1      -5.695 -15.431   0.274  0.00  0.00    +0.159 HD
ATOM      7  H   UNL     1      -4.666 -14.053   0.158  0.00  0.00    +0.159 HD
ATOM      8  H   UNL     1      -8.717 -13.640   0.592  0.00  0.00    +0.159 HD
ATOM      9  H   UNL     1      -7.986 -15.195   0.518  0.00  0.00    +0.159 HD
ENDROOT
BRANCH   1  10
ATOM     10  C   UNL     1      -7.604 -11.332   0.421  0.00  0.00    +0.151 C 
BRANCH  10  11
ATOM     11  C   UNL     1      -7.875 -10.810  -0.964  0.00  0.00    -0.028 A 
ATOM     12  C   UNL     1      -6.833 -10.686  -1.894  0.00  0.00    +0.005 A 
ATOM     13  C   UNL     1      -9.172 -10.444  -1.353  0.00  0.00    +0.005 A 
ATOM     14  C   UNL     1      -7.089 -10.230  -3.190  0.00  0.00    +0.000 A 
ATOM     15  C   UNL     1      -9.424  -9.988  -2.647  0.00  0.00    +0.000 A 
ATOM     16  C   UNL     1      -8.382  -9.884  -3.566  0.00  0.00    +0.000 A 
ENDBRANCH  10  11
ENDBRANCH   1  10
TORSDOF 2
ENDMDL
MODEL 6
REMARK VINA RESULT:    -4.182     22.856     23.116
REMARK INTER + INTRA:          -4.764
REMARK INTER:                  -4.627
REMARK INTRA:                  -0.137
REMARK UNBOUND:                -0.094
REMARK  Name = 1550473
REMARK  2 active torsions:
REMARK  status: ('A' for Active; 'I' for Inactive)
REMARK    1  A    between atoms: N_1  and  C_4
REMARK    2  A    between atoms: C_4  and  C_5
REMARK                            x       y       z     vdW  Elec       q    Type
REMARK                         _______ _______ _______ _____ _____    ______ ____
ROOT
ATOM      1  N   UNL     1       0.129  10.017  -1.152  0.00  0.00    -0.354 N 
ATOM      2  N   UNL     1       2.160   9.917  -0.043  0.00  0.00    -0.372 N 
ATOM      3  N   UNL     1       0.720  11.639   0.433  0.00  0.00    -0.372 N 
ATOM      4  C   UNL     1       0.989  10.528  -0.261  0.00  0.00    +0.166 C 
ATOM      5  H   UNL     1       0.405   9.189  -1.667  0.00  0.00    +0.163 HD
ATOM      6  H   UNL     1       2.827  10.277   0.626  0.00  0.00    +0.159 HD
ATOM      7  H   UNL     1       2.413   9.063  -0.526  0.00  0.00    +0.159 HD
ATOM      8  H   UNL     1      -0.144  12.151   0.311  0.00  0.00    +0.159 HD
ATOM      9  H   UNL     1       1.380  12.021   1.098  0.00  0.00    +0.159 HD
ENDROOT
BRANCH   1  10
ATOM     10  C   UNL     1      -1.194  10.575  -1.424  0.00  0.00    +0.151 C 
BRANCH  10  11
ATOM     11  C   UNL     1      -1.466  10.498  -2.901  0.00  0.00    -0.028 A 
ATOM     12  C   UNL     1      -2.727  10.839  -3.412  0.00  0.00    +0.005 A 
ATOM     13  C   UNL     1      -0.465  10.091  -3.796  0.00  0.00    +0.005 A 
ATOM     14  C   UNL     1      -2.971  10.797  -4.786  0.00  0.00    +0.000 A 
ATOM     15  C   UNL     1      -0.713  10.049  -5.168  0.00  0.00    +0.000 A 
ATOM     16  C   UNL     1      -1.965  10.405  -5.663  0.00  0.00    +0.000 A 
ENDBRANCH  10  11
ENDBRANCH   1  10
TORSDOF 2
ENDMDL
MODEL 7
REMARK VINA RESULT:    -4.050     22.595     23.020
REMARK INTER + INTRA:          -4.617
REMARK INTER:                  -4.492
REMARK INTRA:                  -0.125
REMARK UNBOUND:                -0.094
REMARK  Name = 1550473
REMARK  2 active torsions:
REMARK  status: ('A' for Active; 'I' for Inactive)
REMARK    1  A    between atoms: N_1  and  C_4
REMARK    2  A    between atoms: C_4  and  C_5
REMARK                            x       y       z     vdW  Elec       q    Type
REMARK                         _______ _______ _______ _____ _____    ______ ____
ROOT
ATOM      1  N   UNL     1      -4.739  11.114  -1.986  0.00  0.00    -0.354 N 
ATOM      2  N   UNL     1      -6.443  10.752  -0.460  0.00  0.00    -0.372 N 
ATOM      3  N   UNL     1      -6.974  10.992  -2.680  0.00  0.00    -0.372 N 
ATOM      4  C   UNL     1      -6.042  10.956  -1.721  0.00  0.00    +0.166 C 
ATOM      5  H   UNL     1      -4.086  11.106  -1.211  0.00  0.00    +0.163 HD
ATOM      6  H   UNL     1      -7.420  10.625  -0.230  0.00  0.00    +0.159 HD
ATOM      7  H   UNL     1      -5.784  10.699   0.307  0.00  0.00    +0.159 HD
ATOM      8  H   UNL     1      -6.737  11.148  -3.651  0.00  0.00    +0.159 HD
ATOM      9  H   UNL     1      -7.957  10.879  -2.468  0.00  0.00    +0.159 HD
ENDROOT
BRANCH   1  10
ATOM     10  C   UNL     1      -4.193  11.288  -3.331  0.00  0.00    +0.151 C 
BRANCH  10  11
ATOM     11  C   UNL     1      -2.755  10.845  -3.338  0.00  0.00    -0.028 A 
ATOM     12  C   UNL     1      -2.049  10.701  -2.136  0.00  0.00    +0.005 A 
ATOM     13  C   UNL     1      -2.097  10.563  -4.545  0.00  0.00    +0.005 A 
ATOM     14  C   UNL     1      -0.723  10.261  -2.140  0.00  0.00    +0.000 A 
ATOM     15  C   UNL     1      -0.772  10.125  -4.545  0.00  0.00    +0.000 A 
ATOM     16  C   UNL     1      -0.087   9.971  -3.343  0.00  0.00    +0.000 A 
ENDBRANCH  10  11
ENDBRANCH   1  10
TORSDOF 2
ENDMDL
MODEL 8
REMARK VINA RESULT:    -3.946     25.574     26.338
REMARK INTER + INTRA:          -4.501
REMARK INTER:                  -4.337
REMARK INTRA:                  -0.163
REMARK UNBOUND:                -0.094
REMARK  Name = 1550473
REMARK  2 active torsions:
REMARK  status: ('A' for Active; 'I' for Inactive)
REMARK    1  A    between atoms: N_1  and  C_4
REMARK    2  A    between atoms: C_4  and  C_5
REMARK                            x       y       z     vdW  Elec       q    Type
REMARK                         _______ _______ _______ _____ _____    ______ ____
ROOT
ATOM      1  N   UNL     1       0.750  12.950   8.447  0.00  0.00    -0.354 N 
ATOM      2  N   UNL     1      -0.848  14.329   7.495  0.00  0.00    -0.372 N 
ATOM      3  N   UNL     1       0.924  13.636   6.213  0.00  0.00    -0.372 N 
ATOM      4  C   UNL     1       0.288  13.629   7.389  0.00  0.00    +0.166 C 
ATOM      5  H   UNL     1       0.238  13.010   9.319  0.00  0.00    +0.163 HD
ATOM      6  H   UNL     1      -1.224  14.849   6.713  0.00  0.00    +0.159 HD
ATOM      7  H   UNL     1      -1.383  14.350   8.355  0.00  0.00    +0.159 HD
ATOM      8  H   UNL     1       1.789  13.133   6.069  0.00  0.00    +0.159 HD
ATOM      9  H   UNL     1       0.570  14.160   5.422  0.00  0.00    +0.159 HD
ENDROOT
BRANCH   1  10
ATOM     10  C   UNL     1       1.949  12.114   8.421  0.00  0.00    +0.151 C 
BRANCH  10  11
ATOM     11  C   UNL     1       1.540  10.668   8.475  0.00  0.00    -0.028 A 
ATOM     12  C   UNL     1       1.872   9.794   7.429  0.00  0.00    +0.005 A 
ATOM     13  C   UNL     1       0.826  10.163   9.573  0.00  0.00    +0.005 A 
ATOM     14  C   UNL     1       1.518   8.444   7.493  0.00  0.00    +0.000 A 
ATOM     15  C   UNL     1       0.474   8.815   9.633  0.00  0.00    +0.000 A 
ATOM     16  C   UNL     1       0.823   7.955   8.594  0.00  0.00    +0.000 A 
ENDBRANCH  10  11
ENDBRANCH   1  10
TORSDOF 2
ENDMDL
MODEL 9
REMARK VINA RESULT:    -3.941      6.612      8.093
REMARK INTER + INTRA:          -4.496
REMARK INTER:                  -4.370
REMARK INTRA:                  -0.125
REMARK UNBOUND:                -0.094
REMARK  Name = 1550473
REMARK  2 active torsions:
REMARK  status: ('A' for Active; 'I' for Inactive)
REMARK    1  A    between atoms: N_1  and  C_4
REMARK    2  A    between atoms: C_4  and  C_5
REMARK                            x       y       z     vdW  Elec       q    Type
REMARK                         _______ _______ _______ _____ _____    ______ ____
ROOT
ATOM      1  N   UNL     1      -8.433 -10.159   3.697  0.00  0.00    -0.354 N 
ATOM      2  N   UNL     1      -9.460  -9.487   1.733  0.00  0.00    -0.372 N 
ATOM      3  N   UNL     1      -7.488 -10.653   1.610  0.00  0.00    -0.372 N 
ATOM      4  C   UNL     1      -8.451 -10.105   2.359  0.00  0.00    +0.166 C 
ATOM      5  H   UNL     1      -9.177  -9.697   4.208  0.00  0.00    +0.163 HD
ATOM      6  H   UNL     1      -9.503  -9.433   0.724  0.00  0.00    +0.159 HD
ATOM      7  H   UNL     1     -10.227  -9.066   2.245  0.00  0.00    +0.159 HD
ATOM      8  H   UNL     1      -6.696 -11.129   2.021  0.00  0.00    +0.159 HD
ATOM      9  H   UNL     1      -7.507 -10.600   0.600  0.00  0.00    +0.159 HD
ENDROOT
BRANCH   1  10
ATOM     10  C   UNL     1      -7.408 -10.854   4.474  0.00  0.00    +0.151 C 
BRANCH  10  11
ATOM     11  C   UNL     1      -7.278 -10.194   5.819  0.00  0.00    -0.028 A 
ATOM     12  C   UNL     1      -6.981 -10.954   6.959  0.00  0.00    +0.005 A 
ATOM     13  C   UNL     1      -7.446  -8.808   5.958  0.00  0.00    +0.005 A 
ATOM     14  C   UNL     1      -6.831 -10.337   8.204  0.00  0.00    +0.000 A 
ATOM     15  C   UNL     1      -7.296  -8.196   7.203  0.00  0.00    +0.000 A 
ATOM     16  C   UNL     1      -6.986  -8.961   8.325  0.00  0.00    +0.000 A 
ENDBRANCH  10  11
ENDBRANCH   1  10
TORSDOF 2
ENDMDL
