MODEL 1
REMARK VINA RESULT:    -5.579      0.000      0.000
REMARK INTER + INTRA:          -6.366
REMARK INTER:                  -6.231
REMARK INTRA:                  -0.135
REMARK UNBOUND:                -0.135
REMARK  Name = 1550473
REMARK  2 active torsions:
REMARK  status: ('A' for Active; 'I' for Inactive)
REMARK    1  A    between atoms: N_1  and  C_4
REMARK    2  A    between atoms: C_4  and  C_5
REMARK                            x       y       z     vdW  Elec       q    Type
REMARK                         _______ _______ _______ _____ _____    ______ ____
ROOT
ATOM      1  N   UNL     1      -2.205   3.044   1.722  0.00  0.00    -0.354 N 
ATOM      2  N   UNL     1      -4.013   4.466   1.451  0.00  0.00    -0.372 N 
ATOM      3  N   UNL     1      -4.354   2.408   2.406  0.00  0.00    -0.372 N 
ATOM      4  C   UNL     1      -3.514   3.294   1.863  0.00  0.00    +0.166 C 
ATOM      5  H   UNL     1      -1.626   3.745   1.274  0.00  0.00    +0.163 HD
ATOM      6  H   UNL     1      -4.995   4.685   1.547  0.00  0.00    +0.159 HD
ATOM      7  H   UNL     1      -3.424   5.183   1.046  0.00  0.00    +0.159 HD
ATOM      8  H   UNL     1      -4.042   1.503   2.732  0.00  0.00    +0.159 HD
ATOM      9  H   UNL     1      -5.343   2.604   2.501  0.00  0.00    +0.159 HD
ENDROOT
BRANCH   1  10
ATOM     10  C   UNL     1      -1.552   1.821   2.186  0.00  0.00    +0.151 C 
BRANCH  10  11
ATOM     11  C   UNL     1      -0.916   1.128   1.013  0.00  0.00    -0.028 A 
ATOM     12  C   UNL     1      -1.064   1.642  -0.283  0.00  0.00    +0.005 A 
ATOM     13  C   UNL     1      -0.160  -0.041   1.192  0.00  0.00    +0.005 A 
ATOM     14  C   UNL     1      -0.448   1.016  -1.370  0.00  0.00    +0.000 A 
ATOM     15  C   UNL     1       0.452  -0.664   0.105  0.00  0.00    +0.000 A 
ATOM     16  C   UNL     1       0.310  -0.134  -1.175  0.00  0.00    +0.000 A 
ENDBRANCH  10  11
ENDBRANCH   1  10
TORSDOF 2
ENDMDL
MODEL 2
REMARK VINA RESULT:    -5.564      0.158      1.459
REMARK INTER + INTRA:          -6.350
REMARK INTER:                  -6.206
REMARK INTRA:                  -0.144
REMARK UNBOUND:                -0.135
REMARK  Name = 1550473
REMARK  2 active torsions:
REMARK  status: ('A' for Active; 'I' for Inactive)
REMARK    1  A    between atoms: N_1  and  C_4
REMARK    2  A    between atoms: C_4  and  C_5
REMARK                            x       y       z     vdW  Elec       q    Type
REMARK                         _______ _______ _______ _____ _____    ______ ____
ROOT
ATOM      1  N   UNL     1      -2.266   2.902   1.719  0.00  0.00    -0.354 N 
ATOM      2  N   UNL     1      -3.983   4.437   1.471  0.00  0.00    -0.372 N 
ATOM      3  N   UNL     1      -4.439   2.410   2.445  0.00  0.00    -0.372 N 
ATOM      4  C   UNL     1      -3.553   3.238   1.881  0.00  0.00    +0.166 C 
ATOM      5  H   UNL     1      -1.651   3.562   1.256  0.00  0.00    +0.163 HD
ATOM      6  H   UNL     1      -4.947   4.719   1.584  0.00  0.00    +0.159 HD
ATOM      7  H   UNL     1      -3.356   5.113   1.051  0.00  0.00    +0.159 HD
ATOM      8  H   UNL     1      -4.179   1.488   2.770  0.00  0.00    +0.159 HD
ATOM      9  H   UNL     1      -5.411   2.670   2.556  0.00  0.00    +0.159 HD
ENDROOT
BRANCH   1  10
ATOM     10  C   UNL     1      -1.685   1.642   2.178  0.00  0.00    +0.151 C 
BRANCH  10  11
ATOM     11  C   UNL     1      -0.934   1.004   1.042  0.00  0.00    -0.028 A 
ATOM     12  C   UNL     1      -0.244  -0.202   1.234  0.00  0.00    +0.005 A 
ATOM     13  C   UNL     1      -0.915   1.597  -0.230  0.00  0.00    +0.005 A 
ATOM     14  C   UNL     1       0.429  -0.811   0.171  0.00  0.00    +0.000 A 
ATOM     15  C   UNL     1      -0.242   0.986  -1.288  0.00  0.00    +0.000 A 
ATOM     16  C   UNL     1       0.428  -0.219  -1.087  0.00  0.00    +0.000 A 
ENDBRANCH  10  11
ENDBRANCH   1  10
TORSDOF 2
ENDMDL
MODEL 3
REMARK VINA RESULT:    -5.311      1.404      2.554
REMARK INTER + INTRA:          -6.067
REMARK INTER:                  -5.933
REMARK INTRA:                  -0.135
REMARK UNBOUND:                -0.135
REMARK  Name = 1550473
REMARK  2 active torsions:
REMARK  status: ('A' for Active; 'I' for Inactive)
REMARK    1  A    between atoms: N_1  and  C_4
REMARK    2  A    between atoms: C_4  and  C_5
REMARK                            x       y       z     vdW  Elec       q    Type
REMARK                         _______ _______ _______ _____ _____    ______ ____
ROOT
ATOM      1  N   UNL     1      -1.914   1.125   0.911  0.00  0.00    -0.354 N 
ATOM      2  N   UNL     1      -3.052   1.145   2.927  0.00  0.00    -0.372 N 
ATOM      3  N   UNL     1      -2.438   3.143   1.982  0.00  0.00    -0.372 N 
ATOM      4  C   UNL     1      -2.460   1.807   1.927  0.00  0.00    +0.166 C 
ATOM      5  H   UNL     1      -1.937   0.113   0.943  0.00  0.00    +0.163 HD
ATOM      6  H   UNL     1      -3.476   1.632   3.706  0.00  0.00    +0.159 HD
ATOM      7  H   UNL     1      -3.115   0.134   2.934  0.00  0.00    +0.159 HD
ATOM      8  H   UNL     1      -2.001   3.701   1.261  0.00  0.00    +0.159 HD
ATOM      9  H   UNL     1      -2.846   3.648   2.758  0.00  0.00    +0.159 HD
ENDROOT
BRANCH   1  10
ATOM     10  C   UNL     1      -1.292   1.753  -0.254  0.00  0.00    +0.151 C 
BRANCH  10  11
ATOM     11  C   UNL     1      -0.038   1.001  -0.606  0.00  0.00    -0.028 A 
ATOM     12  C   UNL     1       0.858   0.601   0.396  0.00  0.00    +0.005 A 
ATOM     13  C   UNL     1       0.257   0.680  -1.940  0.00  0.00    +0.005 A 
ATOM     14  C   UNL     1       2.007  -0.124   0.073  0.00  0.00    +0.000 A 
ATOM     15  C   UNL     1       1.406  -0.043  -2.259  0.00  0.00    +0.000 A 
ATOM     16  C   UNL     1       2.280  -0.447  -1.252  0.00  0.00    +0.000 A 
ENDBRANCH  10  11
ENDBRANCH   1  10
TORSDOF 2
ENDMDL
MODEL 4
REMARK VINA RESULT:    -5.153      3.577      5.239
REMARK INTER + INTRA:          -5.891
REMARK INTER:                  -5.744
REMARK INTRA:                  -0.147
REMARK UNBOUND:                -0.135
REMARK  Name = 1550473
REMARK  2 active torsions:
REMARK  status: ('A' for Active; 'I' for Inactive)
REMARK    1  A    between atoms: N_1  and  C_4
REMARK    2  A    between atoms: C_4  and  C_5
REMARK                            x       y       z     vdW  Elec       q    Type
REMARK                         _______ _______ _______ _____ _____    ______ ____
ROOT
ATOM      1  N   UNL     1       1.566   0.658  -0.781  0.00  0.00    -0.354 N 
ATOM      2  N   UNL     1       2.036   0.883  -3.038  0.00  0.00    -0.372 N 
ATOM      3  N   UNL     1       1.878  -1.224  -2.143  0.00  0.00    -0.372 N 
ATOM      4  C   UNL     1       1.824   0.101  -1.972  0.00  0.00    +0.166 C 
ATOM      5  H   UNL     1       1.568   1.669  -0.712  0.00  0.00    +0.163 HD
ATOM      6  H   UNL     1       2.230   0.492  -3.950  0.00  0.00    +0.159 HD
ATOM      7  H   UNL     1       1.992   1.893  -2.975  0.00  0.00    +0.159 HD
ATOM      8  H   UNL     1       1.733  -1.869  -1.377  0.00  0.00    +0.159 HD
ATOM      9  H   UNL     1       2.082  -1.634  -3.045  0.00  0.00    +0.159 HD
ENDROOT
BRANCH   1  10
ATOM     10  C   UNL     1       1.267  -0.104   0.430  0.00  0.00    +0.151 C 
BRANCH  10  11
ATOM     11  C   UNL     1      -0.063   0.338   0.973  0.00  0.00    -0.028 A 
ATOM     12  C   UNL     1      -0.684  -0.378   2.007  0.00  0.00    +0.005 A 
ATOM     13  C   UNL     1      -0.706   1.476   0.463  0.00  0.00    +0.005 A 
ATOM     14  C   UNL     1      -1.905   0.049   2.533  0.00  0.00    +0.000 A 
ATOM     15  C   UNL     1      -1.926   1.899   0.990  0.00  0.00    +0.000 A 
ATOM     16  C   UNL     1      -2.524   1.187   2.026  0.00  0.00    +0.000 A 
ENDBRANCH  10  11
ENDBRANCH   1  10
TORSDOF 2
ENDMDL
MODEL 5
REMARK VINA RESULT:    -5.021      2.182      2.785
REMARK INTER + INTRA:          -5.744
REMARK INTER:                  -5.585
REMARK INTRA:                  -0.159
REMARK UNBOUND:                -0.135
REMARK  Name = 1550473
REMARK  2 active torsions:
REMARK  status: ('A' for Active; 'I' for Inactive)
REMARK    1  A    between atoms: N_1  and  C_4
REMARK    2  A    between atoms: C_4  and  C_5
REMARK                            x       y       z     vdW  Elec       q    Type
REMARK                         _______ _______ _______ _____ _____    ______ ____
ROOT
ATOM      1  N   UNL     1      -2.038   0.707   1.422  0.00  0.00    -0.354 N 
ATOM      2  N   UNL     1      -3.017   2.082  -0.164  0.00  0.00    -0.372 N 
ATOM      3  N   UNL     1      -2.112   3.030   1.719  0.00  0.00    -0.372 N 
ATOM      4  C   UNL     1      -2.382   1.933   1.004  0.00  0.00    +0.166 C 
ATOM      5  H   UNL     1      -2.299  -0.087   0.848  0.00  0.00    +0.163 HD
ATOM      6  H   UNL     1      -3.286   2.995  -0.507  0.00  0.00    +0.159 HD
ATOM      7  H   UNL     1      -3.235   1.290  -0.757  0.00  0.00    +0.159 HD
ATOM      8  H   UNL     1      -1.640   2.985   2.612  0.00  0.00    +0.159 HD
ATOM      9  H   UNL     1      -2.383   3.951   1.398  0.00  0.00    +0.159 HD
ENDROOT
BRANCH   1  10
ATOM     10  C   UNL     1      -1.297   0.440   2.653  0.00  0.00    +0.151 C 
BRANCH  10  11
ATOM     11  C   UNL     1       0.037  -0.159   2.303  0.00  0.00    -0.028 A 
ATOM     12  C   UNL     1       1.142   0.664   2.045  0.00  0.00    +0.005 A 
ATOM     13  C   UNL     1       0.203  -1.551   2.234  0.00  0.00    +0.005 A 
ATOM     14  C   UNL     1       2.389   0.107   1.749  0.00  0.00    +0.000 A 
ATOM     15  C   UNL     1       1.449  -2.104   1.938  0.00  0.00    +0.000 A 
ATOM     16  C   UNL     1       2.542  -1.274   1.698  0.00  0.00    +0.000 A 
ENDBRANCH  10  11
ENDBRANCH   1  10
TORSDOF 2
ENDMDL
MODEL 6
REMARK VINA RESULT:    -5.002      3.737      5.196
REMARK INTER + INTRA:          -5.722
REMARK INTER:                  -5.556
REMARK INTRA:                  -0.167
REMARK UNBOUND:                -0.135
REMARK  Name = 1550473
REMARK  2 active torsions:
REMARK  status: ('A' for Active; 'I' for Inactive)
REMARK    1  A    between atoms: N_1  and  C_4
REMARK    2  A    between atoms: C_4  and  C_5
REMARK                            x       y       z     vdW  Elec       q    Type
REMARK                         _______ _______ _______ _____ _____    ______ ____
ROOT
ATOM      1  N   UNL     1       0.175  -2.098   0.271  0.00  0.00    -0.354 N 
ATOM      2  N   UNL     1      -0.567  -4.052  -0.727  0.00  0.00    -0.372 N 
ATOM      3  N   UNL     1      -0.450  -2.138  -1.987  0.00  0.00    -0.372 N 
ATOM      4  C   UNL     1      -0.276  -2.748  -0.810  0.00  0.00    +0.166 C 
ATOM      5  H   UNL     1       0.256  -2.611   1.142  0.00  0.00    +0.163 HD
ATOM      6  H   UNL     1      -0.906  -4.569  -1.527  0.00  0.00    +0.159 HD
ATOM      7  H   UNL     1      -0.441  -4.572   0.133  0.00  0.00    +0.159 HD
ATOM      8  H   UNL     1      -0.255  -1.153  -2.114  0.00  0.00    +0.159 HD
ATOM      9  H   UNL     1      -0.799  -2.636  -2.796  0.00  0.00    +0.159 HD
ENDROOT
BRANCH   1  10
ATOM     10  C   UNL     1       0.570  -0.691   0.274  0.00  0.00    +0.151 C 
BRANCH  10  11
ATOM     11  C   UNL     1      -0.498   0.119   0.955  0.00  0.00    -0.028 A 
ATOM     12  C   UNL     1      -0.971   1.305   0.375  0.00  0.00    +0.005 A 
ATOM     13  C   UNL     1      -1.046  -0.298   2.178  0.00  0.00    +0.005 A 
ATOM     14  C   UNL     1      -1.984   2.042   0.992  0.00  0.00    +0.000 A 
ATOM     15  C   UNL     1      -2.057   0.441   2.791  0.00  0.00    +0.000 A 
ATOM     16  C   UNL     1      -2.528   1.610   2.197  0.00  0.00    +0.000 A 
ENDBRANCH  10  11
ENDBRANCH   1  10
TORSDOF 2
ENDMDL
MODEL 7
REMARK VINA RESULT:    -4.978     25.112     26.599
REMARK INTER + INTRA:          -5.695
REMARK INTER:                  -5.554
REMARK INTRA:                  -0.141
REMARK UNBOUND:                -0.135
REMARK  Name = 1550473
REMARK  2 active torsions:
REMARK  status: ('A' for Active; 'I' for Inactive)
REMARK    1  A    between atoms: N_1  and  C_4
REMARK    2  A    between atoms: C_4  and  C_5
REMARK                            x       y       z     vdW  Elec       q    Type
REMARK                         _______ _______ _______ _____ _____    ______ ____
ROOT
ATOM      1  N   UNL     1      -1.977 -19.966 -15.458  0.00  0.00    -0.354 N 
ATOM      2  N   UNL     1      -2.873 -21.899 -14.551  0.00  0.00    -0.372 N 
ATOM      3  N   UNL     1      -1.894 -21.997 -16.623  0.00  0.00    -0.372 N 
ATOM      4  C   UNL     1      -2.241 -21.276 -15.552  0.00  0.00    +0.166 C 
ATOM      5  H   UNL     1      -2.293 -19.469 -14.633  0.00  0.00    +0.163 HD
ATOM      6  H   UNL     1      -3.083 -22.887 -14.592  0.00  0.00    +0.159 HD
ATOM      7  H   UNL     1      -3.147 -21.410 -13.707  0.00  0.00    +0.159 HD
ATOM      8  H   UNL     1      -1.420 -21.585 -17.416  0.00  0.00    +0.159 HD
ATOM      9  H   UNL     1      -2.106 -22.985 -16.689  0.00  0.00    +0.159 HD
ENDROOT
BRANCH   1  10
ATOM     10  C   UNL     1      -1.246 -19.204 -16.469  0.00  0.00    +0.151 C 
BRANCH  10  11
ATOM     11  C   UNL     1      -0.202 -18.361 -15.790  0.00  0.00    -0.028 A 
ATOM     12  C   UNL     1       0.700 -17.599 -16.546  0.00  0.00    +0.005 A 
ATOM     13  C   UNL     1      -0.114 -18.316 -14.390  0.00  0.00    +0.005 A 
ATOM     14  C   UNL     1       1.650 -16.792 -15.916  0.00  0.00    +0.000 A 
ATOM     15  C   UNL     1       0.837 -17.510 -13.764  0.00  0.00    +0.000 A 
ATOM     16  C   UNL     1       1.717 -16.746 -14.527  0.00  0.00    +0.000 A 
ENDBRANCH  10  11
ENDBRANCH   1  10
TORSDOF 2
ENDMDL
MODEL 8
REMARK VINA RESULT:    -4.887     24.997     25.413
REMARK INTER + INTRA:          -5.594
REMARK INTER:                  -5.477
REMARK INTRA:                  -0.117
REMARK UNBOUND:                -0.135
REMARK  Name = 1550473
REMARK  2 active torsions:
REMARK  status: ('A' for Active; 'I' for Inactive)
REMARK    1  A    between atoms: N_1  and  C_4
REMARK    2  A    between atoms: C_4  and  C_5
REMARK                            x       y       z     vdW  Elec       q    Type
REMARK                         _______ _______ _______ _____ _____    ______ ____
ROOT
ATOM      1  N   UNL     1       0.485 -17.144 -14.759  0.00  0.00    -0.354 N 
ATOM      2  N   UNL     1      -1.345 -18.246 -13.863  0.00  0.00    -0.372 N 
ATOM      3  N   UNL     1      -0.850 -18.542 -16.084  0.00  0.00    -0.372 N 
ATOM      4  C   UNL     1      -0.558 -17.971 -14.911  0.00  0.00    +0.166 C 
ATOM      5  H   UNL     1       0.634 -16.720 -13.851  0.00  0.00    +0.163 HD
ATOM      6  H   UNL     1      -2.137 -18.869 -13.947  0.00  0.00    +0.159 HD
ATOM      7  H   UNL     1      -1.166 -17.857 -12.946  0.00  0.00    +0.159 HD
ATOM      8  H   UNL     1      -0.299 -18.371 -16.915  0.00  0.00    +0.159 HD
ATOM      9  H   UNL     1      -1.645 -19.159 -16.191  0.00  0.00    +0.159 HD
ENDROOT
BRANCH   1  10
ATOM     10  C   UNL     1       1.434 -16.822 -15.823  0.00  0.00    +0.151 C 
BRANCH  10  11
ATOM     11  C   UNL     1       2.808 -17.271 -15.408  0.00  0.00    -0.028 A 
ATOM     12  C   UNL     1       3.943 -16.551 -15.806  0.00  0.00    +0.005 A 
ATOM     13  C   UNL     1       2.981 -18.414 -14.611  0.00  0.00    +0.005 A 
ATOM     14  C   UNL     1       5.218 -16.950 -15.396  0.00  0.00    +0.000 A 
ATOM     15  C   UNL     1       4.255 -18.810 -14.205  0.00  0.00    +0.000 A 
ATOM     16  C   UNL     1       5.372 -18.077 -14.595  0.00  0.00    +0.000 A 
ENDBRANCH  10  11
ENDBRANCH   1  10
TORSDOF 2
ENDMDL
MODEL 9
REMARK VINA RESULT:    -4.734     24.633     26.004
REMARK INTER + INTRA:          -5.423
REMARK INTER:                  -5.251
REMARK INTRA:                  -0.172
REMARK UNBOUND:                -0.135
REMARK  Name = 1550473
REMARK  2 active torsions:
REMARK  status: ('A' for Active; 'I' for Inactive)
REMARK    1  A    between atoms: N_1  and  C_4
REMARK    2  A    between atoms: C_4  and  C_5
REMARK                            x       y       z     vdW  Elec       q    Type
REMARK                         _______ _______ _______ _____ _____    ______ ____
ROOT
ATOM      1  N   UNL     1       0.294 -17.076 -14.542  0.00  0.00    -0.354 N 
ATOM      2  N   UNL     1       2.515 -16.423 -14.619  0.00  0.00    -0.372 N 
ATOM      3  N   UNL     1       1.418 -16.860 -16.587  0.00  0.00    -0.372 N 
ATOM      4  C   UNL     1       1.394 -16.791 -15.252  0.00  0.00    +0.166 C 
ATOM      5  H   UNL     1       0.349 -17.034 -13.531  0.00  0.00    +0.163 HD
ATOM      6  H   UNL     1       3.359 -16.199 -15.128  0.00  0.00    +0.159 HD
ATOM      7  H   UNL     1       2.554 -16.338 -13.611  0.00  0.00    +0.159 HD
ATOM      8  H   UNL     1       0.607 -17.137 -17.123  0.00  0.00    +0.159 HD
ATOM      9  H   UNL     1       2.257 -16.650 -17.113  0.00  0.00    +0.159 HD
ENDROOT
BRANCH   1  10
ATOM     10  C   UNL     1      -0.993 -17.434 -15.136  0.00  0.00    +0.151 C 
BRANCH  10  11
ATOM     11  C   UNL     1      -1.278 -18.884 -14.854  0.00  0.00    -0.028 A 
ATOM     12  C   UNL     1      -0.912 -19.874 -15.777  0.00  0.00    +0.005 A 
ATOM     13  C   UNL     1      -1.908 -19.274 -13.662  0.00  0.00    +0.005 A 
ATOM     14  C   UNL     1      -1.149 -21.223 -15.502  0.00  0.00    +0.000 A 
ATOM     15  C   UNL     1      -2.144 -20.622 -13.392  0.00  0.00    +0.000 A 
ATOM     16  C   UNL     1      -1.762 -21.596 -14.311  0.00  0.00    +0.000 A 
ENDBRANCH  10  11
ENDBRANCH   1  10
TORSDOF 2
ENDMDL
