MODEL 1
REMARK VINA RESULT:    -4.817      0.000      0.000
REMARK INTER + INTRA:          -5.519
REMARK INTER:                  -5.380
REMARK INTRA:                  -0.139
REMARK UNBOUND:                -0.139
REMARK  Name = 1550473
REMARK  2 active torsions:
REMARK  status: ('A' for Active; 'I' for Inactive)
REMARK    1  A    between atoms: N_1  and  C_4
REMARK    2  A    between atoms: C_4  and  C_5
REMARK                            x       y       z     vdW  Elec       q    Type
REMARK                         _______ _______ _______ _____ _____    ______ ____
ROOT
ATOM      1  N   UNL     1       4.878   7.206   7.888  0.00  0.00    -0.354 N 
ATOM      2  N   UNL     1       6.296   7.082   6.061  0.00  0.00    -0.372 N 
ATOM      3  N   UNL     1       5.223   5.179   6.763  0.00  0.00    -0.372 N 
ATOM      4  C   UNL     1       5.456   6.487   6.916  0.00  0.00    +0.166 C 
ATOM      5  H   UNL     1       5.119   8.187   7.969  0.00  0.00    +0.163 HD
ATOM      6  H   UNL     1       6.744   6.566   5.315  0.00  0.00    +0.159 HD
ATOM      7  H   UNL     1       6.500   8.073   6.116  0.00  0.00    +0.159 HD
ATOM      8  H   UNL     1       4.604   4.670   7.379  0.00  0.00    +0.159 HD
ATOM      9  H   UNL     1       5.671   4.643   6.030  0.00  0.00    +0.159 HD
ENDROOT
BRANCH   1  10
ATOM     10  C   UNL     1       3.907   6.666   8.837  0.00  0.00    +0.151 C 
BRANCH  10  11
ATOM     11  C   UNL     1       2.647   7.484   8.770  0.00  0.00    -0.028 A 
ATOM     12  C   UNL     1       2.531   8.539   7.853  0.00  0.00    +0.005 A 
ATOM     13  C   UNL     1       1.563   7.206   9.618  0.00  0.00    +0.005 A 
ATOM     14  C   UNL     1       1.349   9.280   7.770  0.00  0.00    +0.000 A 
ATOM     15  C   UNL     1       0.386   7.949   9.532  0.00  0.00    +0.000 A 
ATOM     16  C   UNL     1       0.278   8.984   8.606  0.00  0.00    +0.000 A 
ENDBRANCH  10  11
ENDBRANCH   1  10
TORSDOF 2
ENDMDL
MODEL 2
REMARK VINA RESULT:    -4.518      3.527      5.249
REMARK INTER + INTRA:          -5.185
REMARK INTER:                  -5.039
REMARK INTRA:                  -0.146
REMARK UNBOUND:                -0.139
REMARK  Name = 1550473
REMARK  2 active torsions:
REMARK  status: ('A' for Active; 'I' for Inactive)
REMARK    1  A    between atoms: N_1  and  C_4
REMARK    2  A    between atoms: C_4  and  C_5
REMARK                            x       y       z     vdW  Elec       q    Type
REMARK                         _______ _______ _______ _____ _____    ______ ____
ROOT
ATOM      1  N   UNL     1       0.033   9.089   9.001  0.00  0.00    -0.354 N 
ATOM      2  N   UNL     1      -1.437  10.068  10.500  0.00  0.00    -0.372 N 
ATOM      3  N   UNL     1       0.385  11.268   9.788  0.00  0.00    -0.372 N 
ATOM      4  C   UNL     1      -0.328  10.137   9.753  0.00  0.00    +0.166 C 
ATOM      5  H   UNL     1      -0.534   8.249   9.042  0.00  0.00    +0.163 HD
ATOM      6  H   UNL     1      -1.736  10.844  11.075  0.00  0.00    +0.159 HD
ATOM      7  H   UNL     1      -2.026   9.244  10.503  0.00  0.00    +0.159 HD
ATOM      8  H   UNL     1       1.235  11.381   9.252  0.00  0.00    +0.159 HD
ATOM      9  H   UNL     1       0.108  12.051  10.366  0.00  0.00    +0.159 HD
ENDROOT
BRANCH   1  10
ATOM     10  C   UNL     1       1.192   9.081   8.111  0.00  0.00    +0.151 C 
BRANCH  10  11
ATOM     11  C   UNL     1       2.115   7.965   8.516  0.00  0.00    -0.028 A 
ATOM     12  C   UNL     1       3.373   7.826   7.911  0.00  0.00    +0.005 A 
ATOM     13  C   UNL     1       1.739   7.045   9.507  0.00  0.00    +0.005 A 
ATOM     14  C   UNL     1       4.242   6.807   8.307  0.00  0.00    +0.000 A 
ATOM     15  C   UNL     1       2.610   6.029   9.900  0.00  0.00    +0.000 A 
ATOM     16  C   UNL     1       3.862   5.911   9.301  0.00  0.00    +0.000 A 
ENDBRANCH  10  11
ENDBRANCH   1  10
TORSDOF 2
ENDMDL
MODEL 3
REMARK VINA RESULT:    -4.460      3.150      4.725
REMARK INTER + INTRA:          -5.121
REMARK INTER:                  -4.998
REMARK INTRA:                  -0.123
REMARK UNBOUND:                -0.139
REMARK  Name = 1550473
REMARK  2 active torsions:
REMARK  status: ('A' for Active; 'I' for Inactive)
REMARK    1  A    between atoms: N_1  and  C_4
REMARK    2  A    between atoms: C_4  and  C_5
REMARK                            x       y       z     vdW  Elec       q    Type
REMARK                         _______ _______ _______ _____ _____    ______ ____
ROOT
ATOM      1  N   UNL     1       1.364   9.453   6.813  0.00  0.00    -0.354 N 
ATOM      2  N   UNL     1       0.429  10.047   4.779  0.00  0.00    -0.372 N 
ATOM      3  N   UNL     1      -0.919   9.952   6.634  0.00  0.00    -0.372 N 
ATOM      4  C   UNL     1       0.295   9.814   6.090  0.00  0.00    +0.166 C 
ATOM      5  H   UNL     1       2.250   9.336   6.336  0.00  0.00    +0.163 HD
ATOM      6  H   UNL     1      -0.359  10.324   4.209  0.00  0.00    +0.159 HD
ATOM      7  H   UNL     1       1.325   9.974   4.314  0.00  0.00    +0.159 HD
ATOM      8  H   UNL     1      -1.088   9.785   7.617  0.00  0.00    +0.159 HD
ATOM      9  H   UNL     1      -1.722  10.217   6.077  0.00  0.00    +0.159 HD
ENDROOT
BRANCH   1  10
ATOM     10  C   UNL     1       1.336   9.228   8.257  0.00  0.00    +0.151 C 
BRANCH  10  11
ATOM     11  C   UNL     1       2.190   8.034   8.584  0.00  0.00    -0.028 A 
ATOM     12  C   UNL     1       1.812   7.146   9.602  0.00  0.00    +0.005 A 
ATOM     13  C   UNL     1       3.374   7.781   7.876  0.00  0.00    +0.005 A 
ATOM     14  C   UNL     1       2.588   6.020   9.887  0.00  0.00    +0.000 A 
ATOM     15  C   UNL     1       4.147   6.656   8.163  0.00  0.00    +0.000 A 
ATOM     16  C   UNL     1       3.753   5.775   9.167  0.00  0.00    +0.000 A 
ENDBRANCH  10  11
ENDBRANCH   1  10
TORSDOF 2
ENDMDL
MODEL 4
REMARK VINA RESULT:    -4.445     29.761     30.982
REMARK INTER + INTRA:          -5.104
REMARK INTER:                  -4.976
REMARK INTRA:                  -0.128
REMARK UNBOUND:                -0.139
REMARK  Name = 1550473
REMARK  2 active torsions:
REMARK  status: ('A' for Active; 'I' for Inactive)
REMARK    1  A    between atoms: N_1  and  C_4
REMARK    2  A    between atoms: C_4  and  C_5
REMARK                            x       y       z     vdW  Elec       q    Type
REMARK                         _______ _______ _______ _____ _____    ______ ____
ROOT
ATOM      1  N   UNL     1       3.553 -12.930 -13.699  0.00  0.00    -0.354 N 
ATOM      2  N   UNL     1       1.819 -11.519 -14.304  0.00  0.00    -0.372 N 
ATOM      3  N   UNL     1       3.835 -11.323 -15.381  0.00  0.00    -0.372 N 
ATOM      4  C   UNL     1       3.082 -11.932 -14.459  0.00  0.00    +0.166 C 
ATOM      5  H   UNL     1       2.941 -13.330 -12.997  0.00  0.00    +0.163 HD
ATOM      6  H   UNL     1       1.435 -10.770 -14.865  0.00  0.00    +0.159 HD
ATOM      7  H   UNL     1       1.195 -11.951 -13.633  0.00  0.00    +0.159 HD
ATOM      8  H   UNL     1       4.799 -11.584 -15.543  0.00  0.00    +0.159 HD
ATOM      9  H   UNL     1       3.473 -10.564 -15.945  0.00  0.00    +0.159 HD
ENDROOT
BRANCH   1  10
ATOM     10  C   UNL     1       4.897 -13.490 -13.825  0.00  0.00    +0.151 C 
BRANCH  10  11
ATOM     11  C   UNL     1       4.914 -14.866 -13.219  0.00  0.00    -0.028 A 
ATOM     12  C   UNL     1       3.730 -15.452 -12.749  0.00  0.00    +0.005 A 
ATOM     13  C   UNL     1       6.111 -15.591 -13.116  0.00  0.00    +0.005 A 
ATOM     14  C   UNL     1       3.741 -16.742 -12.213  0.00  0.00    +0.000 A 
ATOM     15  C   UNL     1       6.118 -16.879 -12.579  0.00  0.00    +0.000 A 
ATOM     16  C   UNL     1       4.932 -17.455 -12.130  0.00  0.00    +0.000 A 
ENDBRANCH  10  11
ENDBRANCH   1  10
TORSDOF 2
ENDMDL
MODEL 5
REMARK VINA RESULT:    -4.340      2.861      3.449
REMARK INTER + INTRA:          -4.986
REMARK INTER:                  -4.881
REMARK INTRA:                  -0.105
REMARK UNBOUND:                -0.139
REMARK  Name = 1550473
REMARK  2 active torsions:
REMARK  status: ('A' for Active; 'I' for Inactive)
REMARK    1  A    between atoms: N_1  and  C_4
REMARK    2  A    between atoms: C_4  and  C_5
REMARK                            x       y       z     vdW  Elec       q    Type
REMARK                         _______ _______ _______ _____ _____    ______ ____
ROOT
ATOM      1  N   UNL     1       2.975   6.951  11.252  0.00  0.00    -0.354 N 
ATOM      2  N   UNL     1       4.482   7.068  13.007  0.00  0.00    -0.372 N 
ATOM      3  N   UNL     1       4.604   5.294  11.557  0.00  0.00    -0.372 N 
ATOM      4  C   UNL     1       4.011   6.434  11.926  0.00  0.00    +0.166 C 
ATOM      5  H   UNL     1       2.551   7.802  11.600  0.00  0.00    +0.163 HD
ATOM      6  H   UNL     1       5.265   6.705  13.533  0.00  0.00    +0.159 HD
ATOM      7  H   UNL     1       4.085   7.944  13.326  0.00  0.00    +0.159 HD
ATOM      8  H   UNL     1       4.293   4.764  10.754  0.00  0.00    +0.159 HD
ATOM      9  H   UNL     1       5.381   4.908  12.079  0.00  0.00    +0.159 HD
ENDROOT
BRANCH   1  10
ATOM     10  C   UNL     1       2.422   6.367  10.031  0.00  0.00    +0.151 C 
BRANCH  10  11
ATOM     11  C   UNL     1       2.014   7.474   9.098  0.00  0.00    -0.028 A 
ATOM     12  C   UNL     1       2.884   7.909   8.088  0.00  0.00    +0.005 A 
ATOM     13  C   UNL     1       0.757   8.087   9.216  0.00  0.00    +0.005 A 
ATOM     14  C   UNL     1       2.494   8.917   7.202  0.00  0.00    +0.000 A 
ATOM     15  C   UNL     1       0.372   9.093   8.330  0.00  0.00    +0.000 A 
ATOM     16  C   UNL     1       1.240   9.506   7.322  0.00  0.00    +0.000 A 
ENDBRANCH  10  11
ENDBRANCH   1  10
TORSDOF 2
ENDMDL
MODEL 6
REMARK VINA RESULT:    -4.192      3.256      4.771
REMARK INTER + INTRA:          -4.821
REMARK INTER:                  -4.667
REMARK INTRA:                  -0.154
REMARK UNBOUND:                -0.139
REMARK  Name = 1550473
REMARK  2 active torsions:
REMARK  status: ('A' for Active; 'I' for Inactive)
REMARK    1  A    between atoms: N_1  and  C_4
REMARK    2  A    between atoms: C_4  and  C_5
REMARK                            x       y       z     vdW  Elec       q    Type
REMARK                         _______ _______ _______ _____ _____    ______ ____
ROOT
ATOM      1  N   UNL     1       1.137   9.064   8.610  0.00  0.00    -0.354 N 
ATOM      2  N   UNL     1      -0.341   7.865   9.930  0.00  0.00    -0.372 N 
ATOM      3  N   UNL     1       1.707   6.951   9.447  0.00  0.00    -0.372 N 
ATOM      4  C   UNL     1       0.846   7.966   9.320  0.00  0.00    +0.166 C 
ATOM      5  H   UNL     1       0.429   9.785   8.528  0.00  0.00    +0.163 HD
ATOM      6  H   UNL     1      -0.588   7.050  10.476  0.00  0.00    +0.159 HD
ATOM      7  H   UNL     1      -1.029   8.608   9.884  0.00  0.00    +0.159 HD
ATOM      8  H   UNL     1       2.617   6.962   9.006  0.00  0.00    +0.159 HD
ATOM      9  H   UNL     1       1.474   6.121   9.979  0.00  0.00    +0.159 HD
ENDROOT
BRANCH   1  10
ATOM     10  C   UNL     1       2.421   9.296   7.952  0.00  0.00    +0.151 C 
BRANCH  10  11
ATOM     11  C   UNL     1       2.222   9.263   6.462  0.00  0.00    -0.028 A 
ATOM     12  C   UNL     1       1.051   9.780   5.888  0.00  0.00    +0.005 A 
ATOM     13  C   UNL     1       3.203   8.722   5.617  0.00  0.00    +0.005 A 
ATOM     14  C   UNL     1       0.879   9.778   4.502  0.00  0.00    +0.000 A 
ATOM     15  C   UNL     1       3.027   8.721   4.233  0.00  0.00    +0.000 A 
ATOM     16  C   UNL     1       1.866   9.251   3.676  0.00  0.00    +0.000 A 
ENDBRANCH  10  11
ENDBRANCH   1  10
TORSDOF 2
ENDMDL
MODEL 7
REMARK VINA RESULT:    -4.078      1.836      2.468
REMARK INTER + INTRA:          -4.694
REMARK INTER:                  -4.569
REMARK INTRA:                  -0.125
REMARK UNBOUND:                -0.139
REMARK  Name = 1550473
REMARK  2 active torsions:
REMARK  status: ('A' for Active; 'I' for Inactive)
REMARK    1  A    between atoms: N_1  and  C_4
REMARK    2  A    between atoms: C_4  and  C_5
REMARK                            x       y       z     vdW  Elec       q    Type
REMARK                         _______ _______ _______ _____ _____    ______ ____
ROOT
ATOM      1  N   UNL     1       4.614   8.635   6.156  0.00  0.00    -0.354 N 
ATOM      2  N   UNL     1       4.572   9.379   3.964  0.00  0.00    -0.372 N 
ATOM      3  N   UNL     1       4.589   7.121   4.367  0.00  0.00    -0.372 N 
ATOM      4  C   UNL     1       4.592   8.371   4.843  0.00  0.00    +0.166 C 
ATOM      5  H   UNL     1       4.646   9.603   6.452  0.00  0.00    +0.163 HD
ATOM      6  H   UNL     1       4.551   9.211   2.967  0.00  0.00    +0.159 HD
ATOM      7  H   UNL     1       4.557  10.347   4.263  0.00  0.00    +0.159 HD
ATOM      8  H   UNL     1       4.609   6.315   4.978  0.00  0.00    +0.159 HD
ATOM      9  H   UNL     1       4.580   6.932   3.373  0.00  0.00    +0.159 HD
ENDROOT
BRANCH   1  10
ATOM     10  C   UNL     1       4.583   7.609   7.197  0.00  0.00    +0.151 C 
BRANCH  10  11
ATOM     11  C   UNL     1       3.283   7.709   7.947  0.00  0.00    -0.028 A 
ATOM     12  C   UNL     1       2.981   6.800   8.972  0.00  0.00    +0.005 A 
ATOM     13  C   UNL     1       2.352   8.713   7.641  0.00  0.00    +0.005 A 
ATOM     14  C   UNL     1       1.787   6.911   9.689  0.00  0.00    +0.000 A 
ATOM     15  C   UNL     1       1.161   8.820   8.359  0.00  0.00    +0.000 A 
ATOM     16  C   UNL     1       0.880   7.921   9.384  0.00  0.00    +0.000 A 
ENDBRANCH  10  11
ENDBRANCH   1  10
TORSDOF 2
ENDMDL
MODEL 8
REMARK VINA RESULT:    -4.008     30.229     31.005
REMARK INTER + INTRA:          -4.615
REMARK INTER:                  -4.479
REMARK INTRA:                  -0.137
REMARK UNBOUND:                -0.139
REMARK  Name = 1550473
REMARK  2 active torsions:
REMARK  status: ('A' for Active; 'I' for Inactive)
REMARK    1  A    between atoms: N_1  and  C_4
REMARK    2  A    between atoms: C_4  and  C_5
REMARK                            x       y       z     vdW  Elec       q    Type
REMARK                         _______ _______ _______ _____ _____    ______ ____
ROOT
ATOM      1  N   UNL     1       4.911 -12.275 -14.479  0.00  0.00    -0.354 N 
ATOM      2  N   UNL     1       5.911 -10.708 -15.861  0.00  0.00    -0.372 N 
ATOM      3  N   UNL     1       3.789 -11.429 -16.354  0.00  0.00    -0.372 N 
ATOM      4  C   UNL     1       4.861 -11.481 -15.557  0.00  0.00    +0.166 C 
ATOM      5  H   UNL     1       5.764 -12.291 -13.932  0.00  0.00    +0.163 HD
ATOM      6  H   UNL     1       5.901 -10.096 -16.666  0.00  0.00    +0.159 HD
ATOM      7  H   UNL     1       6.745 -10.692 -15.287  0.00  0.00    +0.159 HD
ATOM      8  H   UNL     1       2.966 -11.992 -16.183  0.00  0.00    +0.159 HD
ATOM      9  H   UNL     1       3.764 -10.832 -17.172  0.00  0.00    +0.159 HD
ENDROOT
BRANCH   1  10
ATOM     10  C   UNL     1       3.802 -13.115 -14.030  0.00  0.00    +0.151 C 
BRANCH  10  11
ATOM     11  C   UNL     1       4.350 -14.419 -13.519  0.00  0.00    -0.028 A 
ATOM     12  C   UNL     1       5.712 -14.723 -13.659  0.00  0.00    +0.005 A 
ATOM     13  C   UNL     1       3.513 -15.353 -12.889  0.00  0.00    +0.005 A 
ATOM     14  C   UNL     1       6.227 -15.921 -13.158  0.00  0.00    +0.000 A 
ATOM     15  C   UNL     1       4.031 -16.548 -12.390  0.00  0.00    +0.000 A 
ATOM     16  C   UNL     1       5.388 -16.831 -12.523  0.00  0.00    +0.000 A 
ENDBRANCH  10  11
ENDBRANCH   1  10
TORSDOF 2
ENDMDL
MODEL 9
REMARK VINA RESULT:    -3.958      3.100      3.845
REMARK INTER + INTRA:          -4.560
REMARK INTER:                  -4.450
REMARK INTRA:                  -0.110
REMARK UNBOUND:                -0.139
REMARK  Name = 1550473
REMARK  2 active torsions:
REMARK  status: ('A' for Active; 'I' for Inactive)
REMARK    1  A    between atoms: N_1  and  C_4
REMARK    2  A    between atoms: C_4  and  C_5
REMARK                            x       y       z     vdW  Elec       q    Type
REMARK                         _______ _______ _______ _____ _____    ______ ____
ROOT
ATOM      1  N   UNL     1       2.108   9.455   5.073  0.00  0.00    -0.354 N 
ATOM      2  N   UNL     1       1.378   9.622   2.882  0.00  0.00    -0.372 N 
ATOM      3  N   UNL     1       3.634   9.596   3.300  0.00  0.00    -0.372 N 
ATOM      4  C   UNL     1       2.381   9.557   3.766  0.00  0.00    +0.166 C 
ATOM      5  H   UNL     1       1.138   9.461   5.364  0.00  0.00    +0.163 HD
ATOM      6  H   UNL     1       1.554   9.696   1.889  0.00  0.00    +0.159 HD
ATOM      7  H   UNL     1       0.409   9.582   3.172  0.00  0.00    +0.159 HD
ATOM      8  H   UNL     1       4.436   9.556   3.916  0.00  0.00    +0.159 HD
ATOM      9  H   UNL     1       3.830   9.681   2.311  0.00  0.00    +0.159 HD
ENDROOT
BRANCH   1  10
ATOM     10  C   UNL     1       3.127   9.323   6.113  0.00  0.00    +0.151 C 
BRANCH  10  11
ATOM     11  C   UNL     1       2.509   8.687   7.328  0.00  0.00    -0.028 A 
ATOM     12  C   UNL     1       1.247   9.096   7.781  0.00  0.00    +0.005 A 
ATOM     13  C   UNL     1       3.180   7.672   8.027  0.00  0.00    +0.005 A 
ATOM     14  C   UNL     1       0.659   8.485   8.892  0.00  0.00    +0.000 A 
ATOM     15  C   UNL     1       2.590   7.065   9.136  0.00  0.00    +0.000 A 
ATOM     16  C   UNL     1       1.329   7.470   9.567  0.00  0.00    +0.000 A 
ENDBRANCH  10  11
ENDBRANCH   1  10
TORSDOF 2
ENDMDL
