MODEL 1
REMARK VINA RESULT:    -6.118      0.000      0.000
REMARK INTER + INTRA:          -6.946
REMARK INTER:                  -6.833
REMARK INTRA:                  -0.114
REMARK UNBOUND:                -0.114
REMARK  Name = 1550473
REMARK  2 active torsions:
REMARK  status: ('A' for Active; 'I' for Inactive)
REMARK    1  A    between atoms: N_1  and  C_4
REMARK    2  A    between atoms: C_4  and  C_5
REMARK                            x       y       z     vdW  Elec       q    Type
REMARK                         _______ _______ _______ _____ _____    ______ ____
ROOT
ATOM      1  N   UNL     1       3.483   1.297  30.244  0.00  0.00    -0.354 N 
ATOM      2  N   UNL     1       2.762   3.068  31.551  0.00  0.00    -0.372 N 
ATOM      3  N   UNL     1       4.897   3.107  30.711  0.00  0.00    -0.372 N 
ATOM      4  C   UNL     1       3.721   2.480  30.826  0.00  0.00    +0.166 C 
ATOM      5  H   UNL     1       2.581   0.859  30.394  0.00  0.00    +0.163 HD
ATOM      6  H   UNL     1       2.911   3.962  32.000  0.00  0.00    +0.159 HD
ATOM      7  H   UNL     1       1.846   2.650  31.662  0.00  0.00    +0.159 HD
ATOM      8  H   UNL     1       5.664   2.713  30.183  0.00  0.00    +0.159 HD
ATOM      9  H   UNL     1       5.069   3.997  31.162  0.00  0.00    +0.159 HD
ENDROOT
BRANCH   1  10
ATOM     10  C   UNL     1       4.442   0.599  29.390  0.00  0.00    +0.151 C 
BRANCH  10  11
ATOM     11  C   UNL     1       4.246  -0.885  29.543  0.00  0.00    -0.028 A 
ATOM     12  C   UNL     1       2.956  -1.432  29.584  0.00  0.00    +0.005 A 
ATOM     13  C   UNL     1       5.348  -1.748  29.641  0.00  0.00    +0.005 A 
ATOM     14  C   UNL     1       2.774  -2.813  29.697  0.00  0.00    +0.000 A 
ATOM     15  C   UNL     1       5.163  -3.126  29.754  0.00  0.00    +0.000 A 
ATOM     16  C   UNL     1       3.876  -3.658  29.779  0.00  0.00    +0.000 A 
ENDBRANCH  10  11
ENDBRANCH   1  10
TORSDOF 2
ENDMDL
MODEL 2
REMARK VINA RESULT:    -6.004      2.777      3.473
REMARK INTER + INTRA:          -6.819
REMARK INTER:                  -6.644
REMARK INTRA:                  -0.175
REMARK UNBOUND:                -0.114
REMARK  Name = 1550473
REMARK  2 active torsions:
REMARK  status: ('A' for Active; 'I' for Inactive)
REMARK    1  A    between atoms: N_1  and  C_4
REMARK    2  A    between atoms: C_4  and  C_5
REMARK                            x       y       z     vdW  Elec       q    Type
REMARK                         _______ _______ _______ _____ _____    ______ ____
ROOT
ATOM      1  N   UNL     1       2.387  -1.575  31.404  0.00  0.00    -0.354 N 
ATOM      2  N   UNL     1       0.837  -0.100  32.292  0.00  0.00    -0.372 N 
ATOM      3  N   UNL     1       0.312  -1.235  30.368  0.00  0.00    -0.372 N 
ATOM      4  C   UNL     1       1.187  -0.980  31.347  0.00  0.00    +0.166 C 
ATOM      5  H   UNL     1       3.016  -1.316  32.155  0.00  0.00    +0.163 HD
ATOM      6  H   UNL     1      -0.062   0.362  32.277  0.00  0.00    +0.159 HD
ATOM      7  H   UNL     1       1.451   0.123  33.067  0.00  0.00    +0.159 HD
ATOM      8  H   UNL     1       0.518  -1.884  29.621  0.00  0.00    +0.159 HD
ATOM      9  H   UNL     1      -0.588  -0.774  30.329  0.00  0.00    +0.159 HD
ENDROOT
BRANCH   1  10
ATOM     10  C   UNL     1       2.843  -2.588  30.455  0.00  0.00    +0.151 C 
BRANCH  10  11
ATOM     11  C   UNL     1       3.846  -1.969  29.520  0.00  0.00    -0.028 A 
ATOM     12  C   UNL     1       3.423  -1.321  28.350  0.00  0.00    +0.005 A 
ATOM     13  C   UNL     1       5.220  -2.021  29.802  0.00  0.00    +0.005 A 
ATOM     14  C   UNL     1       4.352  -0.720  27.497  0.00  0.00    +0.000 A 
ATOM     15  C   UNL     1       6.144  -1.420  28.948  0.00  0.00    +0.000 A 
ATOM     16  C   UNL     1       5.709  -0.767  27.797  0.00  0.00    +0.000 A 
ENDBRANCH  10  11
ENDBRANCH   1  10
TORSDOF 2
ENDMDL
MODEL 3
REMARK VINA RESULT:    -5.789     13.649     15.285
REMARK INTER + INTRA:          -6.579
REMARK INTER:                  -6.422
REMARK INTRA:                  -0.157
REMARK UNBOUND:                -0.114
REMARK  Name = 1550473
REMARK  2 active torsions:
REMARK  status: ('A' for Active; 'I' for Inactive)
REMARK    1  A    between atoms: N_1  and  C_4
REMARK    2  A    between atoms: C_4  and  C_5
REMARK                            x       y       z     vdW  Elec       q    Type
REMARK                         _______ _______ _______ _____ _____    ______ ____
ROOT
ATOM      1  N   UNL     1      -8.313   3.706  40.705  0.00  0.00    -0.354 N 
ATOM      2  N   UNL     1      -9.825   2.202  41.609  0.00  0.00    -0.372 N 
ATOM      3  N   UNL     1     -10.059   2.825  39.413  0.00  0.00    -0.372 N 
ATOM      4  C   UNL     1      -9.390   2.921  40.568  0.00  0.00    +0.166 C 
ATOM      5  H   UNL     1      -7.869   3.758  41.615  0.00  0.00    +0.163 HD
ATOM      6  H   UNL     1     -10.634   1.599  41.535  0.00  0.00    +0.159 HD
ATOM      7  H   UNL     1      -9.352   2.221  42.505  0.00  0.00    +0.159 HD
ATOM      8  H   UNL     1      -9.785   3.346  38.591  0.00  0.00    +0.159 HD
ATOM      9  H   UNL     1     -10.877   2.236  39.322  0.00  0.00    +0.159 HD
ENDROOT
BRANCH   1  10
ATOM     10  C   UNL     1      -7.726   4.487  39.618  0.00  0.00    +0.151 C 
BRANCH  10  11
ATOM     11  C   UNL     1      -6.418   3.863  39.215  0.00  0.00    -0.028 A 
ATOM     12  C   UNL     1      -6.061   3.770  37.862  0.00  0.00    +0.005 A 
ATOM     13  C   UNL     1      -5.530   3.369  40.182  0.00  0.00    +0.005 A 
ATOM     14  C   UNL     1      -4.833   3.218  37.489  0.00  0.00    +0.000 A 
ATOM     15  C   UNL     1      -4.305   2.817  39.805  0.00  0.00    +0.000 A 
ATOM     16  C   UNL     1      -3.956   2.745  38.459  0.00  0.00    +0.000 A 
ENDBRANCH  10  11
ENDBRANCH   1  10
TORSDOF 2
ENDMDL
MODEL 4
REMARK VINA RESULT:    -5.742     17.040     18.082
REMARK INTER + INTRA:          -6.527
REMARK INTER:                  -6.412
REMARK INTRA:                  -0.115
REMARK UNBOUND:                -0.114
REMARK  Name = 1550473
REMARK  2 active torsions:
REMARK  status: ('A' for Active; 'I' for Inactive)
REMARK    1  A    between atoms: N_1  and  C_4
REMARK    2  A    between atoms: C_4  and  C_5
REMARK                            x       y       z     vdW  Elec       q    Type
REMARK                         _______ _______ _______ _____ _____    ______ ____
ROOT
ATOM      1  N   UNL     1      -8.855   2.902  41.899  0.00  0.00    -0.354 N 
ATOM      2  N   UNL     1     -10.762   4.045  41.250  0.00  0.00    -0.372 N 
ATOM      3  N   UNL     1      -9.865   2.485  39.826  0.00  0.00    -0.372 N 
ATOM      4  C   UNL     1      -9.814   3.135  40.993  0.00  0.00    +0.166 C 
ATOM      5  H   UNL     1      -8.855   3.450  42.752  0.00  0.00    +0.163 HD
ATOM      6  H   UNL     1     -11.500   4.240  40.587  0.00  0.00    +0.159 HD
ATOM      7  H   UNL     1     -10.786   4.558  42.122  0.00  0.00    +0.159 HD
ATOM      8  H   UNL     1      -9.177   1.790  39.570  0.00  0.00    +0.159 HD
ATOM      9  H   UNL     1     -10.590   2.675  39.145  0.00  0.00    +0.159 HD
ENDROOT
BRANCH   1  10
ATOM     10  C   UNL     1      -7.809   1.894  41.741  0.00  0.00    +0.151 C 
BRANCH  10  11
ATOM     11  C   UNL     1      -7.463   1.328  43.091  0.00  0.00    -0.028 A 
ATOM     12  C   UNL     1      -6.203   1.564  43.660  0.00  0.00    +0.005 A 
ATOM     13  C   UNL     1      -8.393   0.561  43.808  0.00  0.00    +0.005 A 
ATOM     14  C   UNL     1      -5.892   1.065  44.927  0.00  0.00    +0.000 A 
ATOM     15  C   UNL     1      -8.078   0.063  45.073  0.00  0.00    +0.000 A 
ATOM     16  C   UNL     1      -6.828   0.317  45.632  0.00  0.00    +0.000 A 
ENDBRANCH  10  11
ENDBRANCH   1  10
TORSDOF 2
ENDMDL
MODEL 5
REMARK VINA RESULT:    -5.537     13.158     14.789
REMARK INTER + INTRA:          -6.298
REMARK INTER:                  -6.167
REMARK INTRA:                  -0.130
REMARK UNBOUND:                -0.114
REMARK  Name = 1550473
REMARK  2 active torsions:
REMARK  status: ('A' for Active; 'I' for Inactive)
REMARK    1  A    between atoms: N_1  and  C_4
REMARK    2  A    between atoms: C_4  and  C_5
REMARK                            x       y       z     vdW  Elec       q    Type
REMARK                         _______ _______ _______ _____ _____    ______ ____
ROOT
ATOM      1  N   UNL     1      -7.672   3.151  40.562  0.00  0.00    -0.354 N 
ATOM      2  N   UNL     1      -9.137   1.820  41.764  0.00  0.00    -0.372 N 
ATOM      3  N   UNL     1      -9.815   2.673  39.745  0.00  0.00    -0.372 N 
ATOM      4  C   UNL     1      -8.867   2.558  40.680  0.00  0.00    +0.166 C 
ATOM      5  H   UNL     1      -7.006   3.049  41.320  0.00  0.00    +0.163 HD
ATOM      6  H   UNL     1     -10.029   1.358  41.879  0.00  0.00    +0.159 HD
ATOM      7  H   UNL     1      -8.454   1.683  42.499  0.00  0.00    +0.159 HD
ATOM      8  H   UNL     1      -9.676   3.220  38.906  0.00  0.00    +0.159 HD
ATOM      9  H   UNL     1     -10.718   2.227  39.848  0.00  0.00    +0.159 HD
ENDROOT
BRANCH   1  10
ATOM     10  C   UNL     1      -7.258   3.931  39.397  0.00  0.00    +0.151 C 
BRANCH  10  11
ATOM     11  C   UNL     1      -5.884   3.490  38.973  0.00  0.00    -0.028 A 
ATOM     12  C   UNL     1      -4.939   3.088  39.928  0.00  0.00    +0.005 A 
ATOM     13  C   UNL     1      -5.522   3.468  37.617  0.00  0.00    +0.005 A 
ATOM     14  C   UNL     1      -3.673   2.650  39.533  0.00  0.00    +0.000 A 
ATOM     15  C   UNL     1      -4.257   3.030  37.227  0.00  0.00    +0.000 A 
ATOM     16  C   UNL     1      -3.333   2.619  38.185  0.00  0.00    +0.000 A 
ENDBRANCH  10  11
ENDBRANCH   1  10
TORSDOF 2
ENDMDL
MODEL 6
REMARK VINA RESULT:    -5.472      2.981      4.933
REMARK INTER + INTRA:          -6.225
REMARK INTER:                  -6.137
REMARK INTRA:                  -0.088
REMARK UNBOUND:                -0.114
REMARK  Name = 1550473
REMARK  2 active torsions:
REMARK  status: ('A' for Active; 'I' for Inactive)
REMARK    1  A    between atoms: N_1  and  C_4
REMARK    2  A    between atoms: C_4  and  C_5
REMARK                            x       y       z     vdW  Elec       q    Type
REMARK                         _______ _______ _______ _____ _____    ______ ____
ROOT
ATOM      1  N   UNL     1       5.149  -2.197  29.257  0.00  0.00    -0.354 N 
ATOM      2  N   UNL     1       5.750  -4.142  30.362  0.00  0.00    -0.372 N 
ATOM      3  N   UNL     1       3.717  -3.185  30.827  0.00  0.00    -0.372 N 
ATOM      4  C   UNL     1       4.866  -3.161  30.143  0.00  0.00    +0.166 C 
ATOM      5  H   UNL     1       6.050  -2.219  28.793  0.00  0.00    +0.163 HD
ATOM      6  H   UNL     1       5.563  -4.885  31.021  0.00  0.00    +0.159 HD
ATOM      7  H   UNL     1       6.630  -4.187  29.863  0.00  0.00    +0.159 HD
ATOM      8  H   UNL     1       3.011  -2.471  30.712  0.00  0.00    +0.159 HD
ATOM      9  H   UNL     1       3.516  -3.914  31.500  0.00  0.00    +0.159 HD
ENDROOT
BRANCH   1  10
ATOM     10  C   UNL     1       4.232  -1.114  28.906  0.00  0.00    +0.151 C 
BRANCH  10  11
ATOM     11  C   UNL     1       4.718   0.164  29.534  0.00  0.00    -0.028 A 
ATOM     12  C   UNL     1       4.031   1.368  29.320  0.00  0.00    +0.005 A 
ATOM     13  C   UNL     1       5.861   0.176  30.348  0.00  0.00    +0.005 A 
ATOM     14  C   UNL     1       4.464   2.549  29.928  0.00  0.00    +0.000 A 
ATOM     15  C   UNL     1       6.291   1.357  30.951  0.00  0.00    +0.000 A 
ATOM     16  C   UNL     1       5.591   2.543  30.743  0.00  0.00    +0.000 A 
ENDBRANCH  10  11
ENDBRANCH   1  10
TORSDOF 2
ENDMDL
MODEL 7
REMARK VINA RESULT:    -5.378      3.845      5.305
REMARK INTER + INTRA:          -6.120
REMARK INTER:                  -6.023
REMARK INTRA:                  -0.097
REMARK UNBOUND:                -0.114
REMARK  Name = 1550473
REMARK  2 active torsions:
REMARK  status: ('A' for Active; 'I' for Inactive)
REMARK    1  A    between atoms: N_1  and  C_4
REMARK    2  A    between atoms: C_4  and  C_5
REMARK                            x       y       z     vdW  Elec       q    Type
REMARK                         _______ _______ _______ _____ _____    ______ ____
ROOT
ATOM      1  N   UNL     1       3.083  -0.621  25.818  0.00  0.00    -0.354 N 
ATOM      2  N   UNL     1       2.248  -0.059  23.733  0.00  0.00    -0.372 N 
ATOM      3  N   UNL     1       2.559  -2.275  24.243  0.00  0.00    -0.372 N 
ATOM      4  C   UNL     1       2.636  -0.992  24.611  0.00  0.00    +0.166 C 
ATOM      5  H   UNL     1       3.145   0.369  26.026  0.00  0.00    +0.163 HD
ATOM      6  H   UNL     1       1.903  -0.309  22.815  0.00  0.00    +0.159 HD
ATOM      7  H   UNL     1       2.268   0.928  23.959  0.00  0.00    +0.159 HD
ATOM      8  H   UNL     1       2.842  -3.026  24.857  0.00  0.00    +0.159 HD
ATOM      9  H   UNL     1       2.227  -2.544  23.325  0.00  0.00    +0.159 HD
ENDROOT
BRANCH   1  10
ATOM     10  C   UNL     1       3.479  -1.560  26.867  0.00  0.00    +0.151 C 
BRANCH  10  11
ATOM     11  C   UNL     1       4.156  -0.801  27.975  0.00  0.00    -0.028 A 
ATOM     12  C   UNL     1       5.510  -1.023  28.265  0.00  0.00    +0.005 A 
ATOM     13  C   UNL     1       3.451   0.144  28.735  0.00  0.00    +0.005 A 
ATOM     14  C   UNL     1       6.148  -0.297  29.274  0.00  0.00    +0.000 A 
ATOM     15  C   UNL     1       4.091   0.866  29.742  0.00  0.00    +0.000 A 
ATOM     16  C   UNL     1       5.440   0.647  30.010  0.00  0.00    +0.000 A 
ENDBRANCH  10  11
ENDBRANCH   1  10
TORSDOF 2
ENDMDL
MODEL 8
REMARK VINA RESULT:    -5.152     15.040     16.335
REMARK INTER + INTRA:          -5.868
REMARK INTER:                  -5.692
REMARK INTRA:                  -0.176
REMARK UNBOUND:                -0.114
REMARK  Name = 1550473
REMARK  2 active torsions:
REMARK  status: ('A' for Active; 'I' for Inactive)
REMARK    1  A    between atoms: N_1  and  C_4
REMARK    2  A    between atoms: C_4  and  C_5
REMARK                            x       y       z     vdW  Elec       q    Type
REMARK                         _______ _______ _______ _____ _____    ______ ____
ROOT
ATOM      1  N   UNL     1      -6.244   3.411  40.074  0.00  0.00    -0.354 N 
ATOM      2  N   UNL     1      -7.129   5.503  39.626  0.00  0.00    -0.372 N 
ATOM      3  N   UNL     1      -8.331   3.641  39.034  0.00  0.00    -0.372 N 
ATOM      4  C   UNL     1      -7.231   4.170  39.580  0.00  0.00    +0.166 C 
ATOM      5  H   UNL     1      -5.422   3.873  40.447  0.00  0.00    +0.163 HD
ATOM      6  H   UNL     1      -7.859   6.102  39.263  0.00  0.00    +0.159 HD
ATOM      7  H   UNL     1      -6.327   5.963  40.041  0.00  0.00    +0.159 HD
ATOM      8  H   UNL     1      -8.466   2.641  38.963  0.00  0.00    +0.159 HD
ATOM      9  H   UNL     1      -9.067   4.223  38.655  0.00  0.00    +0.159 HD
ENDROOT
BRANCH   1  10
ATOM     10  C   UNL     1      -6.281   1.950  40.122  0.00  0.00    +0.151 C 
BRANCH  10  11
ATOM     11  C   UNL     1      -6.798   1.515  41.465  0.00  0.00    -0.028 A 
ATOM     12  C   UNL     1      -5.994   1.629  42.609  0.00  0.00    +0.005 A 
ATOM     13  C   UNL     1      -8.093   0.993  41.602  0.00  0.00    +0.005 A 
ATOM     14  C   UNL     1      -6.485   1.253  43.861  0.00  0.00    +0.000 A 
ATOM     15  C   UNL     1      -8.579   0.618  42.854  0.00  0.00    +0.000 A 
ATOM     16  C   UNL     1      -7.776   0.751  43.984  0.00  0.00    +0.000 A 
ENDBRANCH  10  11
ENDBRANCH   1  10
TORSDOF 2
ENDMDL
MODEL 9
REMARK VINA RESULT:    -5.095     12.443     13.964
REMARK INTER + INTRA:          -5.804
REMARK INTER:                  -5.682
REMARK INTRA:                  -0.122
REMARK UNBOUND:                -0.114
REMARK  Name = 1550473
REMARK  2 active torsions:
REMARK  status: ('A' for Active; 'I' for Inactive)
REMARK    1  A    between atoms: N_1  and  C_4
REMARK    2  A    between atoms: C_4  and  C_5
REMARK                            x       y       z     vdW  Elec       q    Type
REMARK                         _______ _______ _______ _____ _____    ______ ____
ROOT
ATOM      1  N   UNL     1      -1.338 -13.493  29.325  0.00  0.00    -0.354 N 
ATOM      2  N   UNL     1      -3.501 -14.014  28.681  0.00  0.00    -0.372 N 
ATOM      3  N   UNL     1      -1.748 -15.002  27.579  0.00  0.00    -0.372 N 
ATOM      4  C   UNL     1      -2.180 -14.168  28.531  0.00  0.00    +0.166 C 
ATOM      5  H   UNL     1      -1.728 -12.853  30.007  0.00  0.00    +0.163 HD
ATOM      6  H   UNL     1      -4.161 -14.512  28.099  0.00  0.00    +0.159 HD
ATOM      7  H   UNL     1      -3.889 -13.408  29.394  0.00  0.00    +0.159 HD
ATOM      8  H   UNL     1      -0.763 -15.158  27.411  0.00  0.00    +0.159 HD
ATOM      9  H   UNL     1      -2.392 -15.501  26.979  0.00  0.00    +0.159 HD
ENDROOT
BRANCH   1  10
ATOM     10  C   UNL     1       0.117 -13.631  29.278  0.00  0.00    +0.151 C 
BRANCH  10  11
ATOM     11  C   UNL     1       0.732 -12.682  30.271  0.00  0.00    -0.028 A 
ATOM     12  C   UNL     1       2.120 -12.483  30.299  0.00  0.00    +0.005 A 
ATOM     13  C   UNL     1      -0.069 -11.976  31.181  0.00  0.00    +0.005 A 
ATOM     14  C   UNL     1       2.688 -11.579  31.200  0.00  0.00    +0.000 A 
ATOM     15  C   UNL     1       0.503 -11.076  32.080  0.00  0.00    +0.000 A 
ATOM     16  C   UNL     1       1.881 -10.876  32.087  0.00  0.00    +0.000 A 
ENDBRANCH  10  11
ENDBRANCH   1  10
TORSDOF 2
ENDMDL
