MODEL 1
REMARK VINA RESULT:    -5.031      0.000      0.000
REMARK INTER + INTRA:          -5.796
REMARK INTER:                  -5.619
REMARK INTRA:                  -0.177
REMARK UNBOUND:                -0.177
REMARK  Name = 1550473
REMARK  2 active torsions:
REMARK  status: ('A' for Active; 'I' for Inactive)
REMARK    1  A    between atoms: N_1  and  C_4
REMARK    2  A    between atoms: C_4  and  C_5
REMARK                            x       y       z     vdW  Elec       q    Type
REMARK                         _______ _______ _______ _____ _____    ______ ____
ROOT
ATOM      1  N   UNL     1      18.771   2.684  12.682  0.00  0.00    -0.354 N 
ATOM      2  N   UNL     1      18.806   4.552  14.049  0.00  0.00    -0.372 N 
ATOM      3  N   UNL     1      16.790   3.796  13.255  0.00  0.00    -0.372 N 
ATOM      4  C   UNL     1      18.119   3.665  13.319  0.00  0.00    +0.166 C 
ATOM      5  H   UNL     1      19.783   2.657  12.745  0.00  0.00    +0.163 HD
ATOM      6  H   UNL     1      18.341   5.302  14.544  0.00  0.00    +0.159 HD
ATOM      7  H   UNL     1      19.812   4.496  14.149  0.00  0.00    +0.159 HD
ATOM      8  H   UNL     1      16.215   3.163  12.716  0.00  0.00    +0.159 HD
ATOM      9  H   UNL     1      16.308   4.546  13.734  0.00  0.00    +0.159 HD
ENDROOT
BRANCH   1  10
ATOM     10  C   UNL     1      18.113   1.635  11.904  0.00  0.00    +0.151 C 
BRANCH  10  11
ATOM     11  C   UNL     1      18.257   1.946  10.440  0.00  0.00    -0.028 A 
ATOM     12  C   UNL     1      17.122   2.119   9.634  0.00  0.00    +0.005 A 
ATOM     13  C   UNL     1      19.525   2.074   9.853  0.00  0.00    +0.005 A 
ATOM     14  C   UNL     1      17.254   2.437   8.281  0.00  0.00    +0.000 A 
ATOM     15  C   UNL     1      19.653   2.391   8.501  0.00  0.00    +0.000 A 
ATOM     16  C   UNL     1      18.518   2.575   7.716  0.00  0.00    +0.000 A 
ENDBRANCH  10  11
ENDBRANCH   1  10
TORSDOF 2
ENDMDL
MODEL 2
REMARK VINA RESULT:    -4.467     21.668     23.208
REMARK INTER + INTRA:          -5.167
REMARK INTER:                  -5.057
REMARK INTRA:                  -0.109
REMARK UNBOUND:                -0.177
REMARK  Name = 1550473
REMARK  2 active torsions:
REMARK  status: ('A' for Active; 'I' for Inactive)
REMARK    1  A    between atoms: N_1  and  C_4
REMARK    2  A    between atoms: C_4  and  C_5
REMARK                            x       y       z     vdW  Elec       q    Type
REMARK                         _______ _______ _______ _____ _____    ______ ____
ROOT
ATOM      1  N   UNL     1      -0.582   4.275  -0.237  0.00  0.00    -0.354 N 
ATOM      2  N   UNL     1       1.204   5.201   0.912  0.00  0.00    -0.372 N 
ATOM      3  N   UNL     1      -0.408   4.072   2.091  0.00  0.00    -0.372 N 
ATOM      4  C   UNL     1       0.058   4.509   0.917  0.00  0.00    +0.166 C 
ATOM      5  H   UNL     1      -0.192   4.659  -1.090  0.00  0.00    +0.163 HD
ATOM      6  H   UNL     1       1.711   5.390   1.766  0.00  0.00    +0.159 HD
ATOM      7  H   UNL     1       1.615   5.544   0.052  0.00  0.00    +0.159 HD
ATOM      8  H   UNL     1      -1.270   3.549   2.164  0.00  0.00    +0.159 HD
ATOM      9  H   UNL     1       0.079   4.261   2.959  0.00  0.00    +0.159 HD
ENDROOT
BRANCH   1  10
ATOM     10  C   UNL     1      -1.807   3.486  -0.346  0.00  0.00    +0.151 C 
BRANCH  10  11
ATOM     11  C   UNL     1      -2.021   3.107  -1.786  0.00  0.00    -0.028 A 
ATOM     12  C   UNL     1      -3.230   3.407  -2.429  0.00  0.00    +0.005 A 
ATOM     13  C   UNL     1      -1.015   2.453  -2.514  0.00  0.00    +0.005 A 
ATOM     14  C   UNL     1      -3.418   3.082  -3.775  0.00  0.00    +0.000 A 
ATOM     15  C   UNL     1      -1.206   2.130  -3.857  0.00  0.00    +0.000 A 
ATOM     16  C   UNL     1      -2.407   2.447  -4.488  0.00  0.00    +0.000 A 
ENDBRANCH  10  11
ENDBRANCH   1  10
TORSDOF 2
ENDMDL
MODEL 3
REMARK VINA RESULT:    -4.388     21.962     23.269
REMARK INTER + INTRA:          -5.078
REMARK INTER:                  -4.946
REMARK INTRA:                  -0.133
REMARK UNBOUND:                -0.177
REMARK  Name = 1550473
REMARK  2 active torsions:
REMARK  status: ('A' for Active; 'I' for Inactive)
REMARK    1  A    between atoms: N_1  and  C_4
REMARK    2  A    between atoms: C_4  and  C_5
REMARK                            x       y       z     vdW  Elec       q    Type
REMARK                         _______ _______ _______ _____ _____    ______ ____
ROOT
ATOM      1  N   UNL     1      -5.142   4.654   9.269  0.00  0.00    -0.354 N 
ATOM      2  N   UNL     1      -5.037   2.634   8.141  0.00  0.00    -0.372 N 
ATOM      3  N   UNL     1      -6.178   2.736  10.129  0.00  0.00    -0.372 N 
ATOM      4  C   UNL     1      -5.454   3.354   9.189  0.00  0.00    +0.166 C 
ATOM      5  H   UNL     1      -4.565   5.056   8.539  0.00  0.00    +0.163 HD
ATOM      6  H   UNL     1      -5.260   1.652   8.052  0.00  0.00    +0.159 HD
ATOM      7  H   UNL     1      -4.499   3.050   7.390  0.00  0.00    +0.159 HD
ATOM      8  H   UNL     1      -6.518   3.221  10.948  0.00  0.00    +0.159 HD
ATOM      9  H   UNL     1      -6.401   1.751  10.063  0.00  0.00    +0.159 HD
ENDROOT
BRANCH   1  10
ATOM     10  C   UNL     1      -5.593   5.539  10.342  0.00  0.00    +0.151 C 
BRANCH  10  11
ATOM     11  C   UNL     1      -4.484   6.493  10.690  0.00  0.00    -0.028 A 
ATOM     12  C   UNL     1      -3.149   6.061  10.699  0.00  0.00    +0.005 A 
ATOM     13  C   UNL     1      -4.760   7.832  11.007  0.00  0.00    +0.005 A 
ATOM     14  C   UNL     1      -2.116   6.954  10.993  0.00  0.00    +0.000 A 
ATOM     15  C   UNL     1      -3.726   8.720  11.300  0.00  0.00    +0.000 A 
ATOM     16  C   UNL     1      -2.404   8.282  11.291  0.00  0.00    +0.000 A 
ENDBRANCH  10  11
ENDBRANCH   1  10
TORSDOF 2
ENDMDL
MODEL 4
REMARK VINA RESULT:    -4.343      1.431      2.641
REMARK INTER + INTRA:          -5.027
REMARK INTER:                  -4.867
REMARK INTRA:                  -0.160
REMARK UNBOUND:                -0.177
REMARK  Name = 1550473
REMARK  2 active torsions:
REMARK  status: ('A' for Active; 'I' for Inactive)
REMARK    1  A    between atoms: N_1  and  C_4
REMARK    2  A    between atoms: C_4  and  C_5
REMARK                            x       y       z     vdW  Elec       q    Type
REMARK                         _______ _______ _______ _____ _____    ______ ____
ROOT
ATOM      1  N   UNL     1      18.111   2.335  12.735  0.00  0.00    -0.354 N 
ATOM      2  N   UNL     1      16.704   4.109  13.219  0.00  0.00    -0.372 N 
ATOM      3  N   UNL     1      18.862   4.162  13.997  0.00  0.00    -0.372 N 
ATOM      4  C   UNL     1      17.904   3.524  13.315  0.00  0.00    +0.166 C 
ATOM      5  H   UNL     1      17.335   1.890  12.258  0.00  0.00    +0.163 HD
ATOM      6  H   UNL     1      16.519   5.008  13.643  0.00  0.00    +0.159 HD
ATOM      7  H   UNL     1      15.944   3.684  12.702  0.00  0.00    +0.159 HD
ATOM      8  H   UNL     1      19.787   3.771  14.112  0.00  0.00    +0.159 HD
ATOM      9  H   UNL     1      18.692   5.056  14.439  0.00  0.00    +0.159 HD
ENDROOT
BRANCH   1  10
ATOM     10  C   UNL     1      19.396   1.638  12.735  0.00  0.00    +0.151 C 
BRANCH  10  11
ATOM     11  C   UNL     1      20.078   1.864  11.414  0.00  0.00    -0.028 A 
ATOM     12  C   UNL     1      21.477   1.933  11.337  0.00  0.00    +0.005 A 
ATOM     13  C   UNL     1      19.331   2.005  10.235  0.00  0.00    +0.005 A 
ATOM     14  C   UNL     1      22.112   2.112  10.106  0.00  0.00    +0.000 A 
ATOM     15  C   UNL     1      19.969   2.186   9.007  0.00  0.00    +0.000 A 
ATOM     16  C   UNL     1      21.359   2.237   8.943  0.00  0.00    +0.000 A 
ENDBRANCH  10  11
ENDBRANCH   1  10
TORSDOF 2
ENDMDL
MODEL 5
REMARK VINA RESULT:    -4.341     60.060     60.570
REMARK INTER + INTRA:          -5.025
REMARK INTER:                  -4.842
REMARK INTRA:                  -0.183
REMARK UNBOUND:                -0.177
REMARK  Name = 1550473
REMARK  2 active torsions:
REMARK  status: ('A' for Active; 'I' for Inactive)
REMARK    1  A    between atoms: N_1  and  C_4
REMARK    2  A    between atoms: C_4  and  C_5
REMARK                            x       y       z     vdW  Elec       q    Type
REMARK                         _______ _______ _______ _____ _____    ______ ____
ROOT
ATOM      1  N   UNL     1     -23.223 -33.484 -15.341  0.00  0.00    -0.354 N 
ATOM      2  N   UNL     1     -24.439 -35.436 -15.615  0.00  0.00    -0.372 N 
ATOM      3  N   UNL     1     -24.283 -34.512 -13.520  0.00  0.00    -0.372 N 
ATOM      4  C   UNL     1     -23.974 -34.464 -14.821  0.00  0.00    +0.166 C 
ATOM      5  H   UNL     1     -23.000 -33.522 -16.329  0.00  0.00    +0.163 HD
ATOM      6  H   UNL     1     -25.010 -36.187 -15.251  0.00  0.00    +0.159 HD
ATOM      7  H   UNL     1     -24.252 -35.447 -16.610  0.00  0.00    +0.159 HD
ATOM      8  H   UNL     1     -23.958 -33.811 -12.867  0.00  0.00    +0.159 HD
ATOM      9  H   UNL     1     -24.844 -35.261 -13.136  0.00  0.00    +0.159 HD
ENDROOT
BRANCH   1  10
ATOM     10  C   UNL     1     -22.713 -32.350 -14.573  0.00  0.00    +0.151 C 
BRANCH  10  11
ATOM     11  C   UNL     1     -23.586 -31.152 -14.826  0.00  0.00    -0.028 A 
ATOM     12  C   UNL     1     -24.473 -30.696 -13.840  0.00  0.00    +0.005 A 
ATOM     13  C   UNL     1     -23.526 -30.465 -16.049  0.00  0.00    +0.005 A 
ATOM     14  C   UNL     1     -25.262 -29.565 -14.064  0.00  0.00    +0.000 A 
ATOM     15  C   UNL     1     -24.316 -29.337 -16.268  0.00  0.00    +0.000 A 
ATOM     16  C   UNL     1     -25.182 -28.886 -15.275  0.00  0.00    +0.000 A 
ENDBRANCH  10  11
ENDBRANCH   1  10
TORSDOF 2
ENDMDL
MODEL 6
REMARK VINA RESULT:    -4.099     16.260     17.848
REMARK INTER + INTRA:          -4.756
REMARK INTER:                  -4.654
REMARK INTRA:                  -0.102
REMARK UNBOUND:                -0.177
REMARK  Name = 1550473
REMARK  2 active torsions:
REMARK  status: ('A' for Active; 'I' for Inactive)
REMARK    1  A    between atoms: N_1  and  C_4
REMARK    2  A    between atoms: C_4  and  C_5
REMARK                            x       y       z     vdW  Elec       q    Type
REMARK                         _______ _______ _______ _____ _____    ______ ____
ROOT
ATOM      1  N   UNL     1       2.197   3.515   0.721  0.00  0.00    -0.354 N 
ATOM      2  N   UNL     1       1.041   5.456   0.213  0.00  0.00    -0.372 N 
ATOM      3  N   UNL     1       0.218   4.071   1.846  0.00  0.00    -0.372 N 
ATOM      4  C   UNL     1       1.158   4.334   0.932  0.00  0.00    +0.166 C 
ATOM      5  H   UNL     1       2.859   3.756  -0.008  0.00  0.00    +0.163 HD
ATOM      6  H   UNL     1       0.269   6.095   0.352  0.00  0.00    +0.159 HD
ATOM      7  H   UNL     1       1.729   5.717  -0.483  0.00  0.00    +0.159 HD
ATOM      8  H   UNL     1       0.245   3.237   2.418  0.00  0.00    +0.159 HD
ATOM      9  H   UNL     1      -0.568   4.692   1.992  0.00  0.00    +0.159 HD
ENDROOT
BRANCH   1  10
ATOM     10  C   UNL     1       2.446   2.295   1.487  0.00  0.00    +0.151 C 
BRANCH  10  11
ATOM     11  C   UNL     1       3.930   2.068   1.581  0.00  0.00    -0.028 A 
ATOM     12  C   UNL     1       4.682   1.793   0.430  0.00  0.00    +0.005 A 
ATOM     13  C   UNL     1       4.590   2.132   2.818  0.00  0.00    +0.005 A 
ATOM     14  C   UNL     1       6.065   1.612   0.512  0.00  0.00    +0.000 A 
ATOM     15  C   UNL     1       5.970   1.950   2.896  0.00  0.00    +0.000 A 
ATOM     16  C   UNL     1       6.708   1.692   1.743  0.00  0.00    +0.000 A 
ENDBRANCH  10  11
ENDBRANCH   1  10
TORSDOF 2
ENDMDL
MODEL 7
REMARK VINA RESULT:    -4.082     17.033     18.654
REMARK INTER + INTRA:          -4.736
REMARK INTER:                  -4.569
REMARK INTRA:                  -0.167
REMARK UNBOUND:                -0.177
REMARK  Name = 1550473
REMARK  2 active torsions:
REMARK  status: ('A' for Active; 'I' for Inactive)
REMARK    1  A    between atoms: N_1  and  C_4
REMARK    2  A    between atoms: C_4  and  C_5
REMARK                            x       y       z     vdW  Elec       q    Type
REMARK                         _______ _______ _______ _____ _____    ______ ____
ROOT
ATOM      1  N   UNL     1       0.669   2.903   1.201  0.00  0.00    -0.354 N 
ATOM      2  N   UNL     1      -0.903   4.513   1.750  0.00  0.00    -0.372 N 
ATOM      3  N   UNL     1       1.126   5.184   0.915  0.00  0.00    -0.372 N 
ATOM      4  C   UNL     1       0.310   4.191   1.284  0.00  0.00    +0.166 C 
ATOM      5  H   UNL     1       0.016   2.200   1.526  0.00  0.00    +0.163 HD
ATOM      6  H   UNL     1      -1.204   5.476   1.821  0.00  0.00    +0.159 HD
ATOM      7  H   UNL     1      -1.571   3.806   2.031  0.00  0.00    +0.159 HD
ATOM      8  H   UNL     1       2.056   5.008   0.560  0.00  0.00    +0.159 HD
ATOM      9  H   UNL     1       0.848   6.155   0.989  0.00  0.00    +0.159 HD
ENDROOT
BRANCH   1  10
ATOM     10  C   UNL     1       1.946   2.444   0.658  0.00  0.00    +0.151 C 
BRANCH  10  11
ATOM     11  C   UNL     1       2.827   1.992   1.789  0.00  0.00    -0.028 A 
ATOM     12  C   UNL     1       4.137   2.478   1.910  0.00  0.00    +0.005 A 
ATOM     13  C   UNL     1       2.355   1.082   2.748  0.00  0.00    +0.005 A 
ATOM     14  C   UNL     1       4.946   2.081   2.978  0.00  0.00    +0.000 A 
ATOM     15  C   UNL     1       3.166   0.687   3.812  0.00  0.00    +0.000 A 
ATOM     16  C   UNL     1       4.460   1.189   3.928  0.00  0.00    +0.000 A 
ENDBRANCH  10  11
ENDBRANCH   1  10
TORSDOF 2
ENDMDL
MODEL 8
REMARK VINA RESULT:    -3.989     22.696     23.851
REMARK INTER + INTRA:          -4.632
REMARK INTER:                  -4.528
REMARK INTRA:                  -0.104
REMARK UNBOUND:                -0.177
REMARK  Name = 1550473
REMARK  2 active torsions:
REMARK  status: ('A' for Active; 'I' for Inactive)
REMARK    1  A    between atoms: N_1  and  C_4
REMARK    2  A    between atoms: C_4  and  C_5
REMARK                            x       y       z     vdW  Elec       q    Type
REMARK                         _______ _______ _______ _____ _____    ______ ____
ROOT
ATOM      1  N   UNL     1      -6.295   9.436  11.818  0.00  0.00    -0.354 N 
ATOM      2  N   UNL     1      -6.692  11.422  12.942  0.00  0.00    -0.372 N 
ATOM      3  N   UNL     1      -6.721   9.455  14.123  0.00  0.00    -0.372 N 
ATOM      4  C   UNL     1      -6.567  10.089  12.956  0.00  0.00    +0.166 C 
ATOM      5  H   UNL     1      -6.220   9.972  10.961  0.00  0.00    +0.163 HD
ATOM      6  H   UNL     1      -6.893  11.942  13.785  0.00  0.00    +0.159 HD
ATOM      7  H   UNL     1      -6.571  11.960  12.092  0.00  0.00    +0.159 HD
ATOM      8  H   UNL     1      -6.645   8.449  14.199  0.00  0.00    +0.159 HD
ATOM      9  H   UNL     1      -6.934   9.957  14.975  0.00  0.00    +0.159 HD
ENDROOT
BRANCH   1  10
ATOM     10  C   UNL     1      -6.087   7.991  11.735  0.00  0.00    +0.151 C 
BRANCH  10  11
ATOM     11  C   UNL     1      -4.625   7.718  11.511  0.00  0.00    -0.028 A 
ATOM     12  C   UNL     1      -4.148   6.401  11.448  0.00  0.00    +0.005 A 
ATOM     13  C   UNL     1      -3.712   8.773  11.354  0.00  0.00    +0.005 A 
ATOM     14  C   UNL     1      -2.796   6.146  11.210  0.00  0.00    +0.000 A 
ATOM     15  C   UNL     1      -2.362   8.514  11.117  0.00  0.00    +0.000 A 
ATOM     16  C   UNL     1      -1.905   7.201  11.043  0.00  0.00    +0.000 A 
ENDBRANCH  10  11
ENDBRANCH   1  10
TORSDOF 2
ENDMDL
MODEL 9
REMARK VINA RESULT:    -3.858     17.694     19.114
REMARK INTER + INTRA:          -4.486
REMARK INTER:                  -4.332
REMARK INTRA:                  -0.155
REMARK UNBOUND:                -0.177
REMARK  Name = 1550473
REMARK  2 active torsions:
REMARK  status: ('A' for Active; 'I' for Inactive)
REMARK    1  A    between atoms: N_1  and  C_4
REMARK    2  A    between atoms: C_4  and  C_5
REMARK                            x       y       z     vdW  Elec       q    Type
REMARK                         _______ _______ _______ _____ _____    ______ ____
ROOT
ATOM      1  N   UNL     1       0.945   2.940   1.089  0.00  0.00    -0.354 N 
ATOM      2  N   UNL     1       1.055   5.196   0.578  0.00  0.00    -0.372 N 
ATOM      3  N   UNL     1      -0.640   4.446   1.931  0.00  0.00    -0.372 N 
ATOM      4  C   UNL     1       0.450   4.179   1.204  0.00  0.00    +0.166 C 
ATOM      5  H   UNL     1       1.757   2.799   0.499  0.00  0.00    +0.163 HD
ATOM      6  H   UNL     1       0.706   6.143   0.649  0.00  0.00    +0.159 HD
ATOM      7  H   UNL     1       1.893   5.059   0.026  0.00  0.00    +0.159 HD
ATOM      8  H   UNL     1      -1.146   3.722   2.423  0.00  0.00    +0.159 HD
ATOM      9  H   UNL     1      -1.011   5.385   2.004  0.00  0.00    +0.159 HD
ENDROOT
BRANCH   1  10
ATOM     10  C   UNL     1       0.393   1.772   1.773  0.00  0.00    +0.151 C 
BRANCH  10  11
ATOM     11  C   UNL     1       1.357   1.325   2.837  0.00  0.00    -0.028 A 
ATOM     12  C   UNL     1       0.910   1.070   4.142  0.00  0.00    +0.005 A 
ATOM     13  C   UNL     1       2.719   1.149   2.545  0.00  0.00    +0.005 A 
ATOM     14  C   UNL     1       1.800   0.626   5.123  0.00  0.00    +0.000 A 
ATOM     15  C   UNL     1       3.604   0.706   3.528  0.00  0.00    +0.000 A 
ATOM     16  C   UNL     1       3.144   0.442   4.816  0.00  0.00    +0.000 A 
ENDBRANCH  10  11
ENDBRANCH   1  10
TORSDOF 2
ENDMDL
