MODEL 1
REMARK VINA RESULT:    -6.207      0.000      0.000
REMARK INTER + INTRA:          -7.057
REMARK INTER:                  -6.932
REMARK INTRA:                  -0.124
REMARK UNBOUND:                -0.124
REMARK  Name = 1550473
REMARK  2 active torsions:
REMARK  status: ('A' for Active; 'I' for Inactive)
REMARK    1  A    between atoms: N_1  and  C_4
REMARK    2  A    between atoms: C_4  and  C_5
REMARK                            x       y       z     vdW  Elec       q    Type
REMARK                         _______ _______ _______ _____ _____    ______ ____
ROOT
ATOM      1  N   UNL     1       0.138 -14.525  -0.934  0.00  0.00    -0.354 N 
ATOM      2  N   UNL     1      -1.643 -15.131  -2.285  0.00  0.00    -0.372 N 
ATOM      3  N   UNL     1      -0.756 -13.025  -2.498  0.00  0.00    -0.372 N 
ATOM      4  C   UNL     1      -0.742 -14.220  -1.898  0.00  0.00    +0.166 C 
ATOM      5  H   UNL     1       0.077 -15.437  -0.498  0.00  0.00    +0.163 HD
ATOM      6  H   UNL     1      -2.317 -14.931  -3.012  0.00  0.00    +0.159 HD
ATOM      7  H   UNL     1      -1.672 -16.058  -1.879  0.00  0.00    +0.159 HD
ATOM      8  H   UNL     1      -0.105 -12.292  -2.247  0.00  0.00    +0.159 HD
ATOM      9  H   UNL     1      -1.430 -12.802  -3.219  0.00  0.00    +0.159 HD
ENDROOT
BRANCH   1  10
ATOM     10  C   UNL     1       1.195 -13.623  -0.477  0.00  0.00    +0.151 C 
BRANCH  10  11
ATOM     11  C   UNL     1       1.346 -13.760   1.013  0.00  0.00    -0.028 A 
ATOM     12  C   UNL     1       2.569 -14.159   1.571  0.00  0.00    +0.005 A 
ATOM     13  C   UNL     1       0.271 -13.486   1.873  0.00  0.00    +0.005 A 
ATOM     14  C   UNL     1       2.719 -14.257   2.956  0.00  0.00    +0.000 A 
ATOM     15  C   UNL     1       0.425 -13.586   3.256  0.00  0.00    +0.000 A 
ATOM     16  C   UNL     1       1.649 -13.969   3.797  0.00  0.00    +0.000 A 
ENDBRANCH  10  11
ENDBRANCH   1  10
TORSDOF 2
ENDMDL
MODEL 2
REMARK VINA RESULT:    -5.749     20.970     22.344
REMARK INTER + INTRA:          -6.545
REMARK INTER:                  -6.426
REMARK INTRA:                  -0.120
REMARK UNBOUND:                -0.124
REMARK  Name = 1550473
REMARK  2 active torsions:
REMARK  status: ('A' for Active; 'I' for Inactive)
REMARK    1  A    between atoms: N_1  and  C_4
REMARK    2  A    between atoms: C_4  and  C_5
REMARK                            x       y       z     vdW  Elec       q    Type
REMARK                         _______ _______ _______ _____ _____    ______ ____
ROOT
ATOM      1  N   UNL     1      -2.090 -11.140 -21.586  0.00  0.00    -0.354 N 
ATOM      2  N   UNL     1      -1.234 -13.279 -21.827  0.00  0.00    -0.372 N 
ATOM      3  N   UNL     1      -3.090 -12.684 -23.037  0.00  0.00    -0.372 N 
ATOM      4  C   UNL     1      -2.146 -12.354 -22.150  0.00  0.00    +0.166 C 
ATOM      5  H   UNL     1      -1.367 -10.962 -20.898  0.00  0.00    +0.163 HD
ATOM      6  H   UNL     1      -1.249 -14.202 -22.238  0.00  0.00    +0.159 HD
ATOM      7  H   UNL     1      -0.486 -13.083 -21.173  0.00  0.00    +0.159 HD
ATOM      8  H   UNL     1      -3.811 -12.033 -23.319  0.00  0.00    +0.159 HD
ATOM      9  H   UNL     1      -3.129 -13.607 -23.452  0.00  0.00    +0.159 HD
ENDROOT
BRANCH   1  10
ATOM     10  C   UNL     1      -3.002 -10.045 -21.910  0.00  0.00    +0.151 C 
BRANCH  10  11
ATOM     11  C   UNL     1      -2.824  -8.943 -20.902  0.00  0.00    -0.028 A 
ATOM     12  C   UNL     1      -2.436  -9.237 -19.587  0.00  0.00    +0.005 A 
ATOM     13  C   UNL     1      -3.036  -7.602 -21.258  0.00  0.00    +0.005 A 
ATOM     14  C   UNL     1      -2.241  -8.212 -18.658  0.00  0.00    +0.000 A 
ATOM     15  C   UNL     1      -2.842  -6.581 -20.327  0.00  0.00    +0.000 A 
ATOM     16  C   UNL     1      -2.442  -6.886 -19.029  0.00  0.00    +0.000 A 
ENDBRANCH  10  11
ENDBRANCH   1  10
TORSDOF 2
ENDMDL
MODEL 3
REMARK VINA RESULT:    -5.734      6.419      7.449
REMARK INTER + INTRA:          -6.528
REMARK INTER:                  -6.377
REMARK INTRA:                  -0.151
REMARK UNBOUND:                -0.124
REMARK  Name = 1550473
REMARK  2 active torsions:
REMARK  status: ('A' for Active; 'I' for Inactive)
REMARK    1  A    between atoms: N_1  and  C_4
REMARK    2  A    between atoms: C_4  and  C_5
REMARK                            x       y       z     vdW  Elec       q    Type
REMARK                         _______ _______ _______ _____ _____    ______ ____
ROOT
ATOM      1  N   UNL     1       0.948 -16.447  -5.057  0.00  0.00    -0.354 N 
ATOM      2  N   UNL     1       2.555 -17.419  -6.412  0.00  0.00    -0.372 N 
ATOM      3  N   UNL     1       0.875 -16.196  -7.386  0.00  0.00    -0.372 N 
ATOM      4  C   UNL     1       1.447 -16.680  -6.278  0.00  0.00    +0.166 C 
ATOM      5  H   UNL     1       1.411 -16.867  -4.259  0.00  0.00    +0.163 HD
ATOM      6  H   UNL     1       2.956 -17.609  -7.320  0.00  0.00    +0.159 HD
ATOM      7  H   UNL     1       3.042 -17.800  -5.610  0.00  0.00    +0.159 HD
ATOM      8  H   UNL     1       0.034 -15.636  -7.353  0.00  0.00    +0.159 HD
ATOM      9  H   UNL     1       1.255 -16.385  -8.305  0.00  0.00    +0.159 HD
ENDROOT
BRANCH   1  10
ATOM     10  C   UNL     1      -0.222 -15.610  -4.798  0.00  0.00    +0.151 C 
BRANCH  10  11
ATOM     11  C   UNL     1      -1.394 -16.493  -4.466  0.00  0.00    -0.028 A 
ATOM     12  C   UNL     1      -2.706 -16.036  -4.657  0.00  0.00    +0.005 A 
ATOM     13  C   UNL     1      -1.198 -17.790  -3.967  0.00  0.00    +0.005 A 
ATOM     14  C   UNL     1      -3.794 -16.867  -4.378  0.00  0.00    +0.000 A 
ATOM     15  C   UNL     1      -2.287 -18.616  -3.688  0.00  0.00    +0.000 A 
ATOM     16  C   UNL     1      -3.584 -18.155  -3.896  0.00  0.00    +0.000 A 
ENDBRANCH  10  11
ENDBRANCH   1  10
TORSDOF 2
ENDMDL
MODEL 4
REMARK VINA RESULT:    -5.714      6.542      7.734
REMARK INTER + INTRA:          -6.506
REMARK INTER:                  -6.340
REMARK INTRA:                  -0.167
REMARK UNBOUND:                -0.124
REMARK  Name = 1550473
REMARK  2 active torsions:
REMARK  status: ('A' for Active; 'I' for Inactive)
REMARK    1  A    between atoms: N_1  and  C_4
REMARK    2  A    between atoms: C_4  and  C_5
REMARK                            x       y       z     vdW  Elec       q    Type
REMARK                         _______ _______ _______ _____ _____    ______ ____
ROOT
ATOM      1  N   UNL     1       2.100 -17.067  -6.882  0.00  0.00    -0.354 N 
ATOM      2  N   UNL     1       4.159 -18.127  -6.895  0.00  0.00    -0.372 N 
ATOM      3  N   UNL     1       3.797 -16.425  -5.398  0.00  0.00    -0.372 N 
ATOM      4  C   UNL     1       3.339 -17.197  -6.390  0.00  0.00    +0.166 C 
ATOM      5  H   UNL     1       1.823 -17.663  -7.654  0.00  0.00    +0.163 HD
ATOM      6  H   UNL     1       5.098 -18.251  -6.542  0.00  0.00    +0.159 HD
ATOM      7  H   UNL     1       3.864 -18.751  -7.636  0.00  0.00    +0.159 HD
ATOM      8  H   UNL     1       3.230 -15.702  -4.978  0.00  0.00    +0.159 HD
ATOM      9  H   UNL     1       4.738 -16.527  -5.039  0.00  0.00    +0.159 HD
ENDROOT
BRANCH   1  10
ATOM     10  C   UNL     1       1.110 -16.123  -6.366  0.00  0.00    +0.151 C 
BRANCH  10  11
ATOM     11  C   UNL     1       0.150 -16.857  -5.471  0.00  0.00    -0.028 A 
ATOM     12  C   UNL     1      -0.255 -18.163  -5.781  0.00  0.00    +0.005 A 
ATOM     13  C   UNL     1      -0.353 -16.254  -4.308  0.00  0.00    +0.005 A 
ATOM     14  C   UNL     1      -1.123 -18.857  -4.935  0.00  0.00    +0.000 A 
ATOM     15  C   UNL     1      -1.220 -16.949  -3.466  0.00  0.00    +0.000 A 
ATOM     16  C   UNL     1      -1.603 -18.251  -3.778  0.00  0.00    +0.000 A 
ENDBRANCH  10  11
ENDBRANCH   1  10
TORSDOF 2
ENDMDL
MODEL 5
REMARK VINA RESULT:    -5.699     26.533     27.800
REMARK INTER + INTRA:          -6.490
REMARK INTER:                  -6.359
REMARK INTRA:                  -0.131
REMARK UNBOUND:                -0.124
REMARK  Name = 1550473
REMARK  2 active torsions:
REMARK  status: ('A' for Active; 'I' for Inactive)
REMARK    1  A    between atoms: N_1  and  C_4
REMARK    2  A    between atoms: C_4  and  C_5
REMARK                            x       y       z     vdW  Elec       q    Type
REMARK                         _______ _______ _______ _____ _____    ______ ____
ROOT
ATOM      1  N   UNL     1      -2.727   3.457  19.891  0.00  0.00    -0.354 N 
ATOM      2  N   UNL     1      -2.277   1.831  18.303  0.00  0.00    -0.372 N 
ATOM      3  N   UNL     1      -3.781   3.490  17.798  0.00  0.00    -0.372 N 
ATOM      4  C   UNL     1      -2.933   2.938  18.673  0.00  0.00    +0.166 C 
ATOM      5  H   UNL     1      -2.094   2.974  20.519  0.00  0.00    +0.163 HD
ATOM      6  H   UNL     1      -2.410   1.419  17.390  0.00  0.00    +0.159 HD
ATOM      7  H   UNL     1      -1.611   1.377  18.916  0.00  0.00    +0.159 HD
ATOM      8  H   UNL     1      -4.311   4.322  18.018  0.00  0.00    +0.159 HD
ATOM      9  H   UNL     1      -3.936   3.085  16.883  0.00  0.00    +0.159 HD
ENDROOT
BRANCH   1  10
ATOM     10  C   UNL     1      -3.350   4.688  20.372  0.00  0.00    +0.151 C 
BRANCH  10  11
ATOM     11  C   UNL     1      -3.523   4.602  21.863  0.00  0.00    -0.028 A 
ATOM     12  C   UNL     1      -4.032   5.692  22.585  0.00  0.00    +0.005 A 
ATOM     13  C   UNL     1      -3.184   3.432  22.559  0.00  0.00    +0.005 A 
ATOM     14  C   UNL     1      -4.220   5.602  23.966  0.00  0.00    +0.000 A 
ATOM     15  C   UNL     1      -3.373   3.347  23.939  0.00  0.00    +0.000 A 
ATOM     16  C   UNL     1      -3.893   4.431  24.641  0.00  0.00    +0.000 A 
ENDBRANCH  10  11
ENDBRANCH   1  10
TORSDOF 2
ENDMDL
MODEL 6
REMARK VINA RESULT:    -5.421      3.115      6.347
REMARK INTER + INTRA:          -6.180
REMARK INTER:                  -6.048
REMARK INTRA:                  -0.132
REMARK UNBOUND:                -0.124
REMARK  Name = 1550473
REMARK  2 active torsions:
REMARK  status: ('A' for Active; 'I' for Inactive)
REMARK    1  A    between atoms: N_1  and  C_4
REMARK    2  A    between atoms: C_4  and  C_5
REMARK                            x       y       z     vdW  Elec       q    Type
REMARK                         _______ _______ _______ _____ _____    ______ ____
ROOT
ATOM      1  N   UNL     1      -0.096 -14.938  -1.591  0.00  0.00    -0.354 N 
ATOM      2  N   UNL     1       0.486 -14.015   0.452  0.00  0.00    -0.372 N 
ATOM      3  N   UNL     1       2.004 -15.349  -0.636  0.00  0.00    -0.372 N 
ATOM      4  C   UNL     1       0.797 -14.775  -0.606  0.00  0.00    +0.166 C 
ATOM      5  H   UNL     1      -1.005 -14.501  -1.494  0.00  0.00    +0.163 HD
ATOM      6  H   UNL     1       1.141 -13.870   1.209  0.00  0.00    +0.159 HD
ATOM      7  H   UNL     1      -0.406 -13.542   0.524  0.00  0.00    +0.159 HD
ATOM      8  H   UNL     1       2.297 -15.939  -1.403  0.00  0.00    +0.159 HD
ATOM      9  H   UNL     1       2.668 -15.226   0.118  0.00  0.00    +0.159 HD
ENDROOT
BRANCH   1  10
ATOM     10  C   UNL     1       0.162 -15.702  -2.811  0.00  0.00    +0.151 C 
BRANCH  10  11
ATOM     11  C   UNL     1      -1.072 -16.479  -3.174  0.00  0.00    -0.028 A 
ATOM     12  C   UNL     1      -2.324 -16.108  -2.662  0.00  0.00    +0.005 A 
ATOM     13  C   UNL     1      -0.998 -17.585  -4.035  0.00  0.00    +0.005 A 
ATOM     14  C   UNL     1      -3.475 -16.812  -3.023  0.00  0.00    +0.000 A 
ATOM     15  C   UNL     1      -2.149 -18.286  -4.392  0.00  0.00    +0.000 A 
ATOM     16  C   UNL     1      -3.388 -17.898  -3.888  0.00  0.00    +0.000 A 
ENDBRANCH  10  11
ENDBRANCH   1  10
TORSDOF 2
ENDMDL
MODEL 7
REMARK VINA RESULT:    -5.356     26.797     28.076
REMARK INTER + INTRA:          -6.107
REMARK INTER:                  -5.959
REMARK INTRA:                  -0.148
REMARK UNBOUND:                -0.124
REMARK  Name = 1550473
REMARK  2 active torsions:
REMARK  status: ('A' for Active; 'I' for Inactive)
REMARK    1  A    between atoms: N_1  and  C_4
REMARK    2  A    between atoms: C_4  and  C_5
REMARK                            x       y       z     vdW  Elec       q    Type
REMARK                         _______ _______ _______ _____ _____    ______ ____
ROOT
ATOM      1  N   UNL     1      -2.655   4.450  19.536  0.00  0.00    -0.354 N 
ATOM      2  N   UNL     1      -1.806   2.379  18.940  0.00  0.00    -0.372 N 
ATOM      3  N   UNL     1      -3.766   3.092  17.984  0.00  0.00    -0.372 N 
ATOM      4  C   UNL     1      -2.750   3.320  18.822  0.00  0.00    +0.166 C 
ATOM      5  H   UNL     1      -1.876   4.550  20.177  0.00  0.00    +0.163 HD
ATOM      6  H   UNL     1      -1.850   1.518  18.412  0.00  0.00    +0.159 HD
ATOM      7  H   UNL     1      -1.005   2.501  19.547  0.00  0.00    +0.159 HD
ATOM      8  H   UNL     1      -4.514   3.759  17.854  0.00  0.00    +0.159 HD
ATOM      9  H   UNL     1      -3.834   2.231  17.455  0.00  0.00    +0.159 HD
ENDROOT
BRANCH   1  10
ATOM     10  C   UNL     1      -3.601   5.560  19.441  0.00  0.00    +0.151 C 
BRANCH  10  11
ATOM     11  C   UNL     1      -4.303   5.722  20.761  0.00  0.00    -0.028 A 
ATOM     12  C   UNL     1      -5.676   6.005  20.807  0.00  0.00    +0.005 A 
ATOM     13  C   UNL     1      -3.602   5.588  21.969  0.00  0.00    +0.005 A 
ATOM     14  C   UNL     1      -6.334   6.126  22.033  0.00  0.00    +0.000 A 
ATOM     15  C   UNL     1      -4.263   5.711  23.191  0.00  0.00    +0.000 A 
ATOM     16  C   UNL     1      -5.629   5.977  23.223  0.00  0.00    +0.000 A 
ENDBRANCH  10  11
ENDBRANCH   1  10
TORSDOF 2
ENDMDL
MODEL 8
REMARK VINA RESULT:    -5.352     27.980     29.331
REMARK INTER + INTRA:          -6.102
REMARK INTER:                  -6.001
REMARK INTRA:                  -0.101
REMARK UNBOUND:                -0.124
REMARK  Name = 1550473
REMARK  2 active torsions:
REMARK  status: ('A' for Active; 'I' for Inactive)
REMARK    1  A    between atoms: N_1  and  C_4
REMARK    2  A    between atoms: C_4  and  C_5
REMARK                            x       y       z     vdW  Elec       q    Type
REMARK                         _______ _______ _______ _____ _____    ______ ____
ROOT
ATOM      1  N   UNL     1      -4.107   5.368  23.341  0.00  0.00    -0.354 N 
ATOM      2  N   UNL     1      -3.456   4.934  25.521  0.00  0.00    -0.372 N 
ATOM      3  N   UNL     1      -5.613   5.606  25.121  0.00  0.00    -0.372 N 
ATOM      4  C   UNL     1      -4.399   5.306  24.647  0.00  0.00    +0.166 C 
ATOM      5  H   UNL     1      -3.159   5.157  23.050  0.00  0.00    +0.163 HD
ATOM      6  H   UNL     1      -3.648   4.876  26.512  0.00  0.00    +0.159 HD
ATOM      7  H   UNL     1      -2.522   4.680  25.222  0.00  0.00    +0.159 HD
ATOM      8  H   UNL     1      -6.367   5.899  24.514  0.00  0.00    +0.159 HD
ATOM      9  H   UNL     1      -5.821   5.564  26.111  0.00  0.00    +0.159 HD
ENDROOT
BRANCH   1  10
ATOM     10  C   UNL     1      -5.076   5.709  22.302  0.00  0.00    +0.151 C 
BRANCH  10  11
ATOM     11  C   UNL     1      -4.540   5.271  20.967  0.00  0.00    -0.028 A 
ATOM     12  C   UNL     1      -4.450   3.908  20.649  0.00  0.00    +0.005 A 
ATOM     13  C   UNL     1      -4.126   6.214  20.014  0.00  0.00    +0.005 A 
ATOM     14  C   UNL     1      -3.980   3.501  19.398  0.00  0.00    +0.000 A 
ATOM     15  C   UNL     1      -3.657   5.804  18.766  0.00  0.00    +0.000 A 
ATOM     16  C   UNL     1      -3.586   4.447  18.457  0.00  0.00    +0.000 A 
ENDBRANCH  10  11
ENDBRANCH   1  10
TORSDOF 2
ENDMDL
MODEL 9
REMARK VINA RESULT:    -5.297      6.587      7.449
REMARK INTER + INTRA:          -6.040
REMARK INTER:                  -5.857
REMARK INTRA:                  -0.183
REMARK UNBOUND:                -0.124
REMARK  Name = 1550473
REMARK  2 active torsions:
REMARK  status: ('A' for Active; 'I' for Inactive)
REMARK    1  A    between atoms: N_1  and  C_4
REMARK    2  A    between atoms: C_4  and  C_5
REMARK                            x       y       z     vdW  Elec       q    Type
REMARK                         _______ _______ _______ _____ _____    ______ ____
ROOT
ATOM      1  N   UNL     1      -0.575 -15.075  -6.363  0.00  0.00    -0.354 N 
ATOM      2  N   UNL     1      -0.045 -15.285  -8.608  0.00  0.00    -0.372 N 
ATOM      3  N   UNL     1       1.158 -16.486  -7.066  0.00  0.00    -0.372 N 
ATOM      4  C   UNL     1       0.178 -15.616  -7.330  0.00  0.00    +0.166 C 
ATOM      5  H   UNL     1      -1.283 -14.398  -6.626  0.00  0.00    +0.163 HD
ATOM      6  H   UNL     1       0.505 -15.680  -9.359  0.00  0.00    +0.159 HD
ATOM      7  H   UNL     1      -0.783 -14.644  -8.871  0.00  0.00    +0.159 HD
ATOM      8  H   UNL     1       1.381 -16.772  -6.122  0.00  0.00    +0.159 HD
ATOM      9  H   UNL     1       1.727 -16.883  -7.804  0.00  0.00    +0.159 HD
ENDROOT
BRANCH   1  10
ATOM     10  C   UNL     1      -0.450 -15.409  -4.945  0.00  0.00    +0.151 C 
BRANCH  10  11
ATOM     11  C   UNL     1      -1.513 -16.407  -4.580  0.00  0.00    -0.028 A 
ATOM     12  C   UNL     1      -1.164 -17.702  -4.171  0.00  0.00    +0.005 A 
ATOM     13  C   UNL     1      -2.873 -16.061  -4.634  0.00  0.00    +0.005 A 
ATOM     14  C   UNL     1      -2.150 -18.620  -3.802  0.00  0.00    +0.000 A 
ATOM     15  C   UNL     1      -3.854 -16.981  -4.266  0.00  0.00    +0.000 A 
ATOM     16  C   UNL     1      -3.493 -18.259  -3.848  0.00  0.00    +0.000 A 
ENDBRANCH  10  11
ENDBRANCH   1  10
TORSDOF 2
ENDMDL
