MODEL 1
REMARK VINA RESULT:    -5.513      0.000      0.000
REMARK INTER + INTRA:          -6.267
REMARK INTER:                  -6.157
REMARK INTRA:                  -0.110
REMARK UNBOUND:                -0.110
REMARK  Name = 1550473
REMARK  2 active torsions:
REMARK  status: ('A' for Active; 'I' for Inactive)
REMARK    1  A    between atoms: N_1  and  C_4
REMARK    2  A    between atoms: C_4  and  C_5
REMARK                            x       y       z     vdW  Elec       q    Type
REMARK                         _______ _______ _______ _____ _____    ______ ____
ROOT
ATOM      1  N   UNL     1      -0.027  17.729   5.673  0.00  0.00    -0.354 N 
ATOM      2  N   UNL     1       0.920  19.757   6.266  0.00  0.00    -0.372 N 
ATOM      3  N   UNL     1       1.137  17.973   7.692  0.00  0.00    -0.372 N 
ATOM      4  C   UNL     1       0.671  18.471   6.542  0.00  0.00    +0.166 C 
ATOM      5  H   UNL     1      -0.379  18.174   4.833  0.00  0.00    +0.163 HD
ATOM      6  H   UNL     1       1.447  20.342   6.902  0.00  0.00    +0.159 HD
ATOM      7  H   UNL     1       0.606  20.188   5.405  0.00  0.00    +0.159 HD
ATOM      8  H   UNL     1       0.978  17.011   7.962  0.00  0.00    +0.159 HD
ATOM      9  H   UNL     1       1.657  18.544   8.346  0.00  0.00    +0.159 HD
ENDROOT
BRANCH   1  10
ATOM     10  C   UNL     1      -0.307  16.305   5.853  0.00  0.00    +0.151 C 
BRANCH  10  11
ATOM     11  C   UNL     1      -0.324  15.634   4.508  0.00  0.00    -0.028 A 
ATOM     12  C   UNL     1      -1.079  16.170   3.454  0.00  0.00    +0.005 A 
ATOM     13  C   UNL     1       0.418  14.465   4.278  0.00  0.00    +0.005 A 
ATOM     14  C   UNL     1      -1.072  15.563   2.196  0.00  0.00    +0.000 A 
ATOM     15  C   UNL     1       0.422  13.862   3.020  0.00  0.00    +0.000 A 
ATOM     16  C   UNL     1      -0.321  14.413   1.979  0.00  0.00    +0.000 A 
ENDBRANCH  10  11
ENDBRANCH   1  10
TORSDOF 2
ENDMDL
MODEL 2
REMARK VINA RESULT:    -5.377     13.599     14.726
REMARK INTER + INTRA:          -6.117
REMARK INTER:                  -5.979
REMARK INTRA:                  -0.138
REMARK UNBOUND:                -0.110
REMARK  Name = 1550473
REMARK  2 active torsions:
REMARK  status: ('A' for Active; 'I' for Inactive)
REMARK    1  A    between atoms: N_1  and  C_4
REMARK    2  A    between atoms: C_4  and  C_5
REMARK                            x       y       z     vdW  Elec       q    Type
REMARK                         _______ _______ _______ _____ _____    ______ ____
ROOT
ATOM      1  N   UNL     1      -3.741   7.472  16.882  0.00  0.00    -0.354 N 
ATOM      2  N   UNL     1      -1.696   6.489  17.348  0.00  0.00    -0.372 N 
ATOM      3  N   UNL     1      -2.415   8.229  18.660  0.00  0.00    -0.372 N 
ATOM      4  C   UNL     1      -2.630   7.405  17.629  0.00  0.00    +0.166 C 
ATOM      5  H   UNL     1      -3.831   6.839  16.096  0.00  0.00    +0.163 HD
ATOM      6  H   UNL     1      -0.849   6.413  17.896  0.00  0.00    +0.159 HD
ATOM      7  H   UNL     1      -1.809   5.828  16.590  0.00  0.00    +0.159 HD
ATOM      8  H   UNL     1      -3.078   8.947  18.920  0.00  0.00    +0.159 HD
ATOM      9  H   UNL     1      -1.568   8.176  19.212  0.00  0.00    +0.159 HD
ENDROOT
BRANCH   1  10
ATOM     10  C   UNL     1      -4.844   8.397  17.137  0.00  0.00    +0.151 C 
BRANCH  10  11
ATOM     11  C   UNL     1      -5.298   8.991  15.833  0.00  0.00    -0.028 A 
ATOM     12  C   UNL     1      -6.639   9.359  15.647  0.00  0.00    +0.005 A 
ATOM     13  C   UNL     1      -4.392   9.193  14.780  0.00  0.00    +0.005 A 
ATOM     14  C   UNL     1      -7.056   9.938  14.446  0.00  0.00    +0.000 A 
ATOM     15  C   UNL     1      -4.813   9.771  13.582  0.00  0.00    +0.000 A 
ATOM     16  C   UNL     1      -6.144  10.146  13.417  0.00  0.00    +0.000 A 
ENDBRANCH  10  11
ENDBRANCH   1  10
TORSDOF 2
ENDMDL
MODEL 3
REMARK VINA RESULT:    -5.251      4.319      5.767
REMARK INTER + INTRA:          -5.975
REMARK INTER:                  -5.831
REMARK INTRA:                  -0.144
REMARK UNBOUND:                -0.110
REMARK  Name = 1550473
REMARK  2 active torsions:
REMARK  status: ('A' for Active; 'I' for Inactive)
REMARK    1  A    between atoms: N_1  and  C_4
REMARK    2  A    between atoms: C_4  and  C_5
REMARK                            x       y       z     vdW  Elec       q    Type
REMARK                         _______ _______ _______ _____ _____    ______ ____
ROOT
ATOM      1  N   UNL     1      -2.816  15.082   0.516  0.00  0.00    -0.354 N 
ATOM      2  N   UNL     1      -4.969  15.794   0.044  0.00  0.00    -0.372 N 
ATOM      3  N   UNL     1      -4.594  13.559   0.405  0.00  0.00    -0.372 N 
ATOM      4  C   UNL     1      -4.113  14.804   0.325  0.00  0.00    +0.166 C 
ATOM      5  H   UNL     1      -2.509  16.042   0.412  0.00  0.00    +0.163 HD
ATOM      6  H   UNL     1      -5.953  15.615  -0.101  0.00  0.00    +0.159 HD
ATOM      7  H   UNL     1      -4.667  16.759  -0.014  0.00  0.00    +0.159 HD
ATOM      8  H   UNL     1      -3.999  12.767   0.608  0.00  0.00    +0.159 HD
ATOM      9  H   UNL     1      -5.574  13.359   0.251  0.00  0.00    +0.159 HD
ENDROOT
BRANCH   1  10
ATOM     10  C   UNL     1      -1.811  14.084   0.879  0.00  0.00    +0.151 C 
BRANCH  10  11
ATOM     11  C   UNL     1      -1.088  14.543   2.116  0.00  0.00    -0.028 A 
ATOM     12  C   UNL     1      -1.366  15.797   2.679  0.00  0.00    +0.005 A 
ATOM     13  C   UNL     1      -0.129  13.725   2.732  0.00  0.00    +0.005 A 
ATOM     14  C   UNL     1      -0.717  16.211   3.845  0.00  0.00    +0.000 A 
ATOM     15  C   UNL     1       0.518  14.142   3.896  0.00  0.00    +0.000 A 
ATOM     16  C   UNL     1       0.222  15.384   4.453  0.00  0.00    +0.000 A 
ENDBRANCH  10  11
ENDBRANCH   1  10
TORSDOF 2
ENDMDL
MODEL 4
REMARK VINA RESULT:    -5.131     16.512     17.834
REMARK INTER + INTRA:          -5.842
REMARK INTER:                  -5.714
REMARK INTRA:                  -0.128
REMARK UNBOUND:                -0.110
REMARK  Name = 1550473
REMARK  2 active torsions:
REMARK  status: ('A' for Active; 'I' for Inactive)
REMARK    1  A    between atoms: N_1  and  C_4
REMARK    2  A    between atoms: C_4  and  C_5
REMARK                            x       y       z     vdW  Elec       q    Type
REMARK                         _______ _______ _______ _____ _____    ______ ____
ROOT
ATOM      1  N   UNL     1       4.890   7.068  20.605  0.00  0.00    -0.354 N 
ATOM      2  N   UNL     1       6.135   6.624  22.507  0.00  0.00    -0.372 N 
ATOM      3  N   UNL     1       3.968   5.877  22.400  0.00  0.00    -0.372 N 
ATOM      4  C   UNL     1       4.987   6.525  21.826  0.00  0.00    +0.166 C 
ATOM      5  H   UNL     1       5.689   7.573  20.238  0.00  0.00    +0.163 HD
ATOM      6  H   UNL     1       6.239   6.222  23.428  0.00  0.00    +0.159 HD
ATOM      7  H   UNL     1       6.946   7.089  22.118  0.00  0.00    +0.159 HD
ATOM      8  H   UNL     1       3.073   5.772  21.941  0.00  0.00    +0.159 HD
ATOM      9  H   UNL     1       4.049   5.477  23.327  0.00  0.00    +0.159 HD
ENDROOT
BRANCH   1  10
ATOM     10  C   UNL     1       3.702   6.970  19.758  0.00  0.00    +0.151 C 
BRANCH  10  11
ATOM     11  C   UNL     1       3.676   8.138  18.811  0.00  0.00    -0.028 A 
ATOM     12  C   UNL     1       4.338   9.331  19.134  0.00  0.00    +0.005 A 
ATOM     13  C   UNL     1       2.995   8.055  17.587  0.00  0.00    +0.005 A 
ATOM     14  C   UNL     1       4.339  10.406  18.241  0.00  0.00    +0.000 A 
ATOM     15  C   UNL     1       2.998   9.130  16.699  0.00  0.00    +0.000 A 
ATOM     16  C   UNL     1       3.672  10.305  17.025  0.00  0.00    +0.000 A 
ENDBRANCH  10  11
ENDBRANCH   1  10
TORSDOF 2
ENDMDL
MODEL 5
REMARK VINA RESULT:    -5.113      3.522      5.392
REMARK INTER + INTRA:          -5.821
REMARK INTER:                  -5.671
REMARK INTRA:                  -0.150
REMARK UNBOUND:                -0.110
REMARK  Name = 1550473
REMARK  2 active torsions:
REMARK  status: ('A' for Active; 'I' for Inactive)
REMARK    1  A    between atoms: N_1  and  C_4
REMARK    2  A    between atoms: C_4  and  C_5
REMARK                            x       y       z     vdW  Elec       q    Type
REMARK                         _______ _______ _______ _____ _____    ______ ____
ROOT
ATOM      1  N   UNL     1      -1.210  15.274   1.601  0.00  0.00    -0.354 N 
ATOM      2  N   UNL     1      -2.599  13.793   0.488  0.00  0.00    -0.372 N 
ATOM      3  N   UNL     1      -0.757  12.975   1.585  0.00  0.00    -0.372 N 
ATOM      4  C   UNL     1      -1.511  14.022   1.233  0.00  0.00    +0.166 C 
ATOM      5  H   UNL     1      -1.806  16.028   1.277  0.00  0.00    +0.163 HD
ATOM      6  H   UNL     1      -2.853  12.858   0.197  0.00  0.00    +0.159 HD
ATOM      7  H   UNL     1      -3.218  14.542   0.203  0.00  0.00    +0.159 HD
ATOM      8  H   UNL     1       0.081  13.082   2.141  0.00  0.00    +0.159 HD
ATOM      9  H   UNL     1      -0.988  12.033   1.294  0.00  0.00    +0.159 HD
ENDROOT
BRANCH   1  10
ATOM     10  C   UNL     1      -0.078  15.625   2.457  0.00  0.00    +0.151 C 
BRANCH  10  11
ATOM     11  C   UNL     1      -0.597  16.148   3.768  0.00  0.00    -0.028 A 
ATOM     12  C   UNL     1      -0.043  15.707   4.979  0.00  0.00    +0.005 A 
ATOM     13  C   UNL     1      -1.638  17.088   3.806  0.00  0.00    +0.005 A 
ATOM     14  C   UNL     1      -0.505  16.215   6.196  0.00  0.00    +0.000 A 
ATOM     15  C   UNL     1      -2.096  17.592   5.023  0.00  0.00    +0.000 A 
ATOM     16  C   UNL     1      -1.528  17.157   6.218  0.00  0.00    +0.000 A 
ENDBRANCH  10  11
ENDBRANCH   1  10
TORSDOF 2
ENDMDL
MODEL 6
REMARK VINA RESULT:    -5.051     14.110     15.322
REMARK INTER + INTRA:          -5.751
REMARK INTER:                  -5.583
REMARK INTRA:                  -0.168
REMARK UNBOUND:                -0.110
REMARK  Name = 1550473
REMARK  2 active torsions:
REMARK  status: ('A' for Active; 'I' for Inactive)
REMARK    1  A    between atoms: N_1  and  C_4
REMARK    2  A    between atoms: C_4  and  C_5
REMARK                            x       y       z     vdW  Elec       q    Type
REMARK                         _______ _______ _______ _____ _____    ______ ____
ROOT
ATOM      1  N   UNL     1      -1.840   7.454  17.988  0.00  0.00    -0.354 N 
ATOM      2  N   UNL     1       0.306   8.262  18.316  0.00  0.00    -0.372 N 
ATOM      3  N   UNL     1      -0.080   6.808  16.582  0.00  0.00    -0.372 N 
ATOM      4  C   UNL     1      -0.551   7.501  17.624  0.00  0.00    +0.166 C 
ATOM      5  H   UNL     1      -2.128   7.979  18.806  0.00  0.00    +0.163 HD
ATOM      6  H   UNL     1       1.284   8.319  18.063  0.00  0.00    +0.159 HD
ATOM      7  H   UNL     1       0.006   8.821  19.104  0.00  0.00    +0.159 HD
ATOM      8  H   UNL     1      -0.674   6.211  16.023  0.00  0.00    +0.159 HD
ATOM      9  H   UNL     1       0.898   6.844  16.321  0.00  0.00    +0.159 HD
ENDROOT
BRANCH   1  10
ATOM     10  C   UNL     1      -2.865   6.700  17.270  0.00  0.00    +0.151 C 
BRANCH  10  11
ATOM     11  C   UNL     1      -3.818   7.663  16.617  0.00  0.00    -0.028 A 
ATOM     12  C   UNL     1      -3.510   8.237  15.375  0.00  0.00    +0.005 A 
ATOM     13  C   UNL     1      -5.032   8.003  17.233  0.00  0.00    +0.005 A 
ATOM     14  C   UNL     1      -4.408   9.109  14.754  0.00  0.00    +0.000 A 
ATOM     15  C   UNL     1      -5.925   8.874  16.611  0.00  0.00    +0.000 A 
ATOM     16  C   UNL     1      -5.614   9.425  15.370  0.00  0.00    +0.000 A 
ENDBRANCH  10  11
ENDBRANCH   1  10
TORSDOF 2
ENDMDL
MODEL 7
REMARK VINA RESULT:    -5.046     13.902     14.917
REMARK INTER + INTRA:          -5.747
REMARK INTER:                  -5.619
REMARK INTRA:                  -0.128
REMARK UNBOUND:                -0.110
REMARK  Name = 1550473
REMARK  2 active torsions:
REMARK  status: ('A' for Active; 'I' for Inactive)
REMARK    1  A    between atoms: N_1  and  C_4
REMARK    2  A    between atoms: C_4  and  C_5
REMARK                            x       y       z     vdW  Elec       q    Type
REMARK                         _______ _______ _______ _____ _____    ______ ____
ROOT
ATOM      1  N   UNL     1      -7.508   8.285  16.401  0.00  0.00    -0.354 N 
ATOM      2  N   UNL     1      -8.129   6.141  17.019  0.00  0.00    -0.372 N 
ATOM      3  N   UNL     1      -9.767   7.686  16.579  0.00  0.00    -0.372 N 
ATOM      4  C   UNL     1      -8.466   7.386  16.662  0.00  0.00    +0.166 C 
ATOM      5  H   UNL     1      -6.541   8.004  16.512  0.00  0.00    +0.163 HD
ATOM      6  H   UNL     1      -8.830   5.440  17.218  0.00  0.00    +0.159 HD
ATOM      7  H   UNL     1      -7.161   5.849  17.084  0.00  0.00    +0.159 HD
ATOM      8  H   UNL     1     -10.088   8.610  16.320  0.00  0.00    +0.159 HD
ATOM      9  H   UNL     1     -10.483   7.002  16.786  0.00  0.00    +0.159 HD
ENDROOT
BRANCH   1  10
ATOM     10  C   UNL     1      -7.770   9.652  15.953  0.00  0.00    +0.151 C 
BRANCH  10  11
ATOM     11  C   UNL     1      -6.964   9.925  14.713  0.00  0.00    -0.028 A 
ATOM     12  C   UNL     1      -7.549  10.563  13.610  0.00  0.00    +0.005 A 
ATOM     13  C   UNL     1      -5.613   9.552  14.637  0.00  0.00    +0.005 A 
ATOM     14  C   UNL     1      -6.793  10.844  12.469  0.00  0.00    +0.000 A 
ATOM     15  C   UNL     1      -4.862   9.833  13.496  0.00  0.00    +0.000 A 
ATOM     16  C   UNL     1      -5.451  10.481  12.413  0.00  0.00    +0.000 A 
ENDBRANCH  10  11
ENDBRANCH   1  10
TORSDOF 2
ENDMDL
MODEL 8
REMARK VINA RESULT:    -4.994     14.210     15.309
REMARK INTER + INTRA:          -5.688
REMARK INTER:                  -5.535
REMARK INTRA:                  -0.153
REMARK UNBOUND:                -0.110
REMARK  Name = 1550473
REMARK  2 active torsions:
REMARK  status: ('A' for Active; 'I' for Inactive)
REMARK    1  A    between atoms: N_1  and  C_4
REMARK    2  A    between atoms: C_4  and  C_5
REMARK                            x       y       z     vdW  Elec       q    Type
REMARK                         _______ _______ _______ _____ _____    ______ ____
ROOT
ATOM      1  N   UNL     1      -7.205   8.264  17.207  0.00  0.00    -0.354 N 
ATOM      2  N   UNL     1      -8.821   6.684  17.713  0.00  0.00    -0.372 N 
ATOM      3  N   UNL     1      -6.761   5.973  16.995  0.00  0.00    -0.372 N 
ATOM      4  C   UNL     1      -7.583   6.982  17.301  0.00  0.00    +0.166 C 
ATOM      5  H   UNL     1      -7.884   8.984  17.425  0.00  0.00    +0.163 HD
ATOM      6  H   UNL     1      -9.133   5.726  17.797  0.00  0.00    +0.159 HD
ATOM      7  H   UNL     1      -9.483   7.404  17.975  0.00  0.00    +0.159 HD
ATOM      8  H   UNL     1      -5.816   6.131  16.671  0.00  0.00    +0.159 HD
ATOM      9  H   UNL     1      -7.059   5.008  17.061  0.00  0.00    +0.159 HD
ENDROOT
BRANCH   1  10
ATOM     10  C   UNL     1      -5.862   8.694  16.820  0.00  0.00    +0.151 C 
BRANCH  10  11
ATOM     11  C   UNL     1      -5.920   9.309  15.449  0.00  0.00    -0.028 A 
ATOM     12  C   UNL     1      -4.772   9.367  14.646  0.00  0.00    +0.005 A 
ATOM     13  C   UNL     1      -7.122   9.829  14.944  0.00  0.00    +0.005 A 
ATOM     14  C   UNL     1      -4.831   9.911  13.360  0.00  0.00    +0.000 A 
ATOM     15  C   UNL     1      -7.177  10.372  13.661  0.00  0.00    +0.000 A 
ATOM     16  C   UNL     1      -6.033  10.410  12.868  0.00  0.00    +0.000 A 
ENDBRANCH  10  11
ENDBRANCH   1  10
TORSDOF 2
ENDMDL
MODEL 9
REMARK VINA RESULT:    -4.822     28.651     29.651
REMARK INTER + INTRA:          -5.496
REMARK INTER:                  -5.399
REMARK INTRA:                  -0.097
REMARK UNBOUND:                -0.110
REMARK  Name = 1550473
REMARK  2 active torsions:
REMARK  status: ('A' for Active; 'I' for Inactive)
REMARK    1  A    between atoms: N_1  and  C_4
REMARK    2  A    between atoms: C_4  and  C_5
REMARK                            x       y       z     vdW  Elec       q    Type
REMARK                         _______ _______ _______ _____ _____    ______ ____
ROOT
ATOM      1  N   UNL     1       0.854 -13.129   5.744  0.00  0.00    -0.354 N 
ATOM      2  N   UNL     1       2.199 -12.903   7.615  0.00  0.00    -0.372 N 
ATOM      3  N   UNL     1       2.513 -14.709   6.235  0.00  0.00    -0.372 N 
ATOM      4  C   UNL     1       1.847 -13.585   6.518  0.00  0.00    +0.166 C 
ATOM      5  H   UNL     1       0.369 -12.286   6.030  0.00  0.00    +0.163 HD
ATOM      6  H   UNL     1       2.948 -13.220   8.217  0.00  0.00    +0.159 HD
ATOM      7  H   UNL     1       1.744 -12.036   7.873  0.00  0.00    +0.159 HD
ATOM      8  H   UNL     1       2.291 -15.273   5.425  0.00  0.00    +0.159 HD
ATOM      9  H   UNL     1       3.257 -15.050   6.832  0.00  0.00    +0.159 HD
ENDROOT
BRANCH   1  10
ATOM     10  C   UNL     1       0.429 -13.767   4.499  0.00  0.00    +0.151 C 
BRANCH  10  11
ATOM     11  C   UNL     1      -0.899 -13.196   4.083  0.00  0.00    -0.028 A 
ATOM     12  C   UNL     1      -2.077 -13.579   4.741  0.00  0.00    +0.005 A 
ATOM     13  C   UNL     1      -0.985 -12.267   3.034  0.00  0.00    +0.005 A 
ATOM     14  C   UNL     1      -3.306 -13.026   4.375  0.00  0.00    +0.000 A 
ATOM     15  C   UNL     1      -2.214 -11.718   2.671  0.00  0.00    +0.000 A 
ATOM     16  C   UNL     1      -3.374 -12.096   3.343  0.00  0.00    +0.000 A 
ENDBRANCH  10  11
ENDBRANCH   1  10
TORSDOF 2
ENDMDL
