MODEL 1
REMARK VINA RESULT:    -5.420      0.000      0.000
REMARK INTER + INTRA:          -6.180
REMARK INTER:                  -6.054
REMARK INTRA:                  -0.127
REMARK UNBOUND:                -0.127
REMARK  Name = 1550473
REMARK  2 active torsions:
REMARK  status: ('A' for Active; 'I' for Inactive)
REMARK    1  A    between atoms: N_1  and  C_4
REMARK    2  A    between atoms: C_4  and  C_5
REMARK                            x       y       z     vdW  Elec       q    Type
REMARK                         _______ _______ _______ _____ _____    ______ ____
ROOT
ATOM      1  N   UNL     1       9.729  -3.739   5.288  0.00  0.00    -0.354 N 
ATOM      2  N   UNL     1      11.752  -3.907   4.173  0.00  0.00    -0.372 N 
ATOM      3  N   UNL     1      10.042  -2.730   3.196  0.00  0.00    -0.372 N 
ATOM      4  C   UNL     1      10.493  -3.456   4.224  0.00  0.00    +0.166 C 
ATOM      5  H   UNL     1      10.120  -4.320   6.020  0.00  0.00    +0.163 HD
ATOM      6  H   UNL     1      12.353  -3.707   3.385  0.00  0.00    +0.159 HD
ATOM      7  H   UNL     1      12.155  -4.448   4.928  0.00  0.00    +0.159 HD
ATOM      8  H   UNL     1       9.099  -2.366   3.170  0.00  0.00    +0.159 HD
ATOM      9  H   UNL     1      10.624  -2.529   2.393  0.00  0.00    +0.159 HD
ENDROOT
BRANCH   1  10
ATOM     10  C   UNL     1       8.362  -3.251   5.466  0.00  0.00    +0.151 C 
BRANCH  10  11
ATOM     11  C   UNL     1       7.432  -4.427   5.577  0.00  0.00    -0.028 A 
ATOM     12  C   UNL     1       6.123  -4.257   6.053  0.00  0.00    +0.005 A 
ATOM     13  C   UNL     1       7.851  -5.714   5.204  0.00  0.00    +0.005 A 
ATOM     14  C   UNL     1       5.249  -5.344   6.128  0.00  0.00    +0.000 A 
ATOM     15  C   UNL     1       6.975  -6.796   5.281  0.00  0.00    +0.000 A 
ATOM     16  C   UNL     1       5.673  -6.611   5.741  0.00  0.00    +0.000 A 
ENDBRANCH  10  11
ENDBRANCH   1  10
TORSDOF 2
ENDMDL
MODEL 2
REMARK VINA RESULT:    -5.049     31.406     32.667
REMARK INTER + INTRA:          -5.766
REMARK INTER:                  -5.601
REMARK INTRA:                  -0.165
REMARK UNBOUND:                -0.127
REMARK  Name = 1550473
REMARK  2 active torsions:
REMARK  status: ('A' for Active; 'I' for Inactive)
REMARK    1  A    between atoms: N_1  and  C_4
REMARK    2  A    between atoms: C_4  and  C_5
REMARK                            x       y       z     vdW  Elec       q    Type
REMARK                         _______ _______ _______ _____ _____    ______ ____
ROOT
ATOM      1  N   UNL     1      16.972  17.916  26.250  0.00  0.00    -0.354 N 
ATOM      2  N   UNL     1      15.218  18.295  27.714  0.00  0.00    -0.372 N 
ATOM      3  N   UNL     1      14.787  18.228  25.461  0.00  0.00    -0.372 N 
ATOM      4  C   UNL     1      15.669  18.144  26.463  0.00  0.00    +0.166 C 
ATOM      5  H   UNL     1      17.594  17.894  27.050  0.00  0.00    +0.163 HD
ATOM      6  H   UNL     1      14.240  18.465  27.906  0.00  0.00    +0.159 HD
ATOM      7  H   UNL     1      15.834  18.227  28.515  0.00  0.00    +0.159 HD
ATOM      8  H   UNL     1      15.064  18.129  24.494  0.00  0.00    +0.159 HD
ATOM      9  H   UNL     1      13.806  18.409  25.633  0.00  0.00    +0.159 HD
ENDROOT
BRANCH   1  10
ATOM     10  C   UNL     1      17.556  17.684  24.930  0.00  0.00    +0.151 C 
BRANCH  10  11
ATOM     11  C   UNL     1      18.104  18.980  24.401  0.00  0.00    -0.028 A 
ATOM     12  C   UNL     1      18.867  19.820  25.225  0.00  0.00    +0.005 A 
ATOM     13  C   UNL     1      17.870  19.372  23.074  0.00  0.00    +0.005 A 
ATOM     14  C   UNL     1      19.402  21.010  24.725  0.00  0.00    +0.000 A 
ATOM     15  C   UNL     1      18.405  20.561  22.579  0.00  0.00    +0.000 A 
ATOM     16  C   UNL     1      19.173  21.378  23.404  0.00  0.00    +0.000 A 
ENDBRANCH  10  11
ENDBRANCH   1  10
TORSDOF 2
ENDMDL
MODEL 3
REMARK VINA RESULT:    -4.912     17.654     18.653
REMARK INTER + INTRA:          -5.613
REMARK INTER:                  -5.463
REMARK INTRA:                  -0.150
REMARK UNBOUND:                -0.127
REMARK  Name = 1550473
REMARK  2 active torsions:
REMARK  status: ('A' for Active; 'I' for Inactive)
REMARK    1  A    between atoms: N_1  and  C_4
REMARK    2  A    between atoms: C_4  and  C_5
REMARK                            x       y       z     vdW  Elec       q    Type
REMARK                         _______ _______ _______ _____ _____    ______ ____
ROOT
ATOM      1  N   UNL     1      -0.222  12.540  -0.665  0.00  0.00    -0.354 N 
ATOM      2  N   UNL     1       1.365  12.960  -2.299  0.00  0.00    -0.372 N 
ATOM      3  N   UNL     1       1.524  14.056  -0.289  0.00  0.00    -0.372 N 
ATOM      4  C   UNL     1       0.879  13.184  -1.072  0.00  0.00    +0.166 C 
ATOM      5  H   UNL     1      -0.682  11.914  -1.317  0.00  0.00    +0.163 HD
ATOM      6  H   UNL     1       2.197  13.429  -2.632  0.00  0.00    +0.159 HD
ATOM      7  H   UNL     1       0.930  12.299  -2.931  0.00  0.00    +0.159 HD
ATOM      8  H   UNL     1       1.206  14.274   0.645  0.00  0.00    +0.159 HD
ATOM      9  H   UNL     1       2.352  14.544  -0.609  0.00  0.00    +0.159 HD
ENDROOT
BRANCH   1  10
ATOM     10  C   UNL     1      -0.802  12.673   0.670  0.00  0.00    +0.151 C 
BRANCH  10  11
ATOM     11  C   UNL     1      -0.767  11.335   1.356  0.00  0.00    -0.028 A 
ATOM     12  C   UNL     1      -0.865  11.248   2.752  0.00  0.00    +0.005 A 
ATOM     13  C   UNL     1      -0.641  10.150   0.615  0.00  0.00    +0.005 A 
ATOM     14  C   UNL     1      -0.863  10.004   3.388  0.00  0.00    +0.000 A 
ATOM     15  C   UNL     1      -0.639   8.910   1.253  0.00  0.00    +0.000 A 
ATOM     16  C   UNL     1      -0.752   8.837   2.639  0.00  0.00    +0.000 A 
ENDBRANCH  10  11
ENDBRANCH   1  10
TORSDOF 2
ENDMDL
MODEL 4
REMARK VINA RESULT:    -4.865      1.513      2.673
REMARK INTER + INTRA:          -5.560
REMARK INTER:                  -5.457
REMARK INTRA:                  -0.103
REMARK UNBOUND:                -0.127
REMARK  Name = 1550473
REMARK  2 active torsions:
REMARK  status: ('A' for Active; 'I' for Inactive)
REMARK    1  A    between atoms: N_1  and  C_4
REMARK    2  A    between atoms: C_4  and  C_5
REMARK                            x       y       z     vdW  Elec       q    Type
REMARK                         _______ _______ _______ _____ _____    ______ ____
ROOT
ATOM      1  N   UNL     1      11.714  -4.212   4.388  0.00  0.00    -0.354 N 
ATOM      2  N   UNL     1      13.928  -3.700   4.836  0.00  0.00    -0.372 N 
ATOM      3  N   UNL     1      13.425  -4.863   2.924  0.00  0.00    -0.372 N 
ATOM      4  C   UNL     1      13.008  -4.264   4.044  0.00  0.00    +0.166 C 
ATOM      5  H   UNL     1      11.467  -3.769   5.265  0.00  0.00    +0.163 HD
ATOM      6  H   UNL     1      14.911  -3.720   4.602  0.00  0.00    +0.159 HD
ATOM      7  H   UNL     1      13.673  -3.218   5.690  0.00  0.00    +0.159 HD
ATOM      8  H   UNL     1      12.781  -5.312   2.286  0.00  0.00    +0.159 HD
ATOM      9  H   UNL     1      14.406  -4.903   2.677  0.00  0.00    +0.159 HD
ENDROOT
BRANCH   1  10
ATOM     10  C   UNL     1      10.629  -4.748   3.568  0.00  0.00    +0.151 C 
BRANCH  10  11
ATOM     11  C   UNL     1       9.339  -4.645   4.333  0.00  0.00    -0.028 A 
ATOM     12  C   UNL     1       8.947  -3.428   4.909  0.00  0.00    +0.005 A 
ATOM     13  C   UNL     1       8.500  -5.761   4.482  0.00  0.00    +0.005 A 
ATOM     14  C   UNL     1       7.734  -3.325   5.595  0.00  0.00    +0.000 A 
ATOM     15  C   UNL     1       7.291  -5.654   5.168  0.00  0.00    +0.000 A 
ATOM     16  C   UNL     1       6.907  -4.435   5.722  0.00  0.00    +0.000 A 
ENDBRANCH  10  11
ENDBRANCH   1  10
TORSDOF 2
ENDMDL
MODEL 5
REMARK VINA RESULT:    -4.860     18.728     19.879
REMARK INTER + INTRA:          -5.555
REMARK INTER:                  -5.451
REMARK INTRA:                  -0.104
REMARK UNBOUND:                -0.127
REMARK  Name = 1550473
REMARK  2 active torsions:
REMARK  status: ('A' for Active; 'I' for Inactive)
REMARK    1  A    between atoms: N_1  and  C_4
REMARK    2  A    between atoms: C_4  and  C_5
REMARK                            x       y       z     vdW  Elec       q    Type
REMARK                         _______ _______ _______ _____ _____    ______ ____
ROOT
ATOM      1  N   UNL     1      -0.345  10.684   0.751  0.00  0.00    -0.354 N 
ATOM      2  N   UNL     1      -0.010   8.596   1.697  0.00  0.00    -0.372 N 
ATOM      3  N   UNL     1      -0.602  10.348   3.056  0.00  0.00    -0.372 N 
ATOM      4  C   UNL     1      -0.321   9.891   1.831  0.00  0.00    +0.166 C 
ATOM      5  H   UNL     1      -0.093  10.284  -0.145  0.00  0.00    +0.163 HD
ATOM      6  H   UNL     1       0.013   7.973   2.493  0.00  0.00    +0.159 HD
ATOM      7  H   UNL     1       0.197   8.189   0.793  0.00  0.00    +0.159 HD
ATOM      8  H   UNL     1      -0.839  11.316   3.225  0.00  0.00    +0.159 HD
ATOM      9  H   UNL     1      -0.573   9.742   3.867  0.00  0.00    +0.159 HD
ENDROOT
BRANCH   1  10
ATOM     10  C   UNL     1      -0.724  12.095   0.781  0.00  0.00    +0.151 C 
BRANCH  10  11
ATOM     11  C   UNL     1      -0.753  12.626  -0.626  0.00  0.00    -0.028 A 
ATOM     12  C   UNL     1       0.351  12.458  -1.473  0.00  0.00    +0.005 A 
ATOM     13  C   UNL     1      -1.886  13.292  -1.119  0.00  0.00    +0.005 A 
ATOM     14  C   UNL     1       0.313  12.924  -2.790  0.00  0.00    +0.000 A 
ATOM     15  C   UNL     1      -1.920  13.757  -2.434  0.00  0.00    +0.000 A 
ATOM     16  C   UNL     1      -0.821  13.571  -3.269  0.00  0.00    +0.000 A 
ENDBRANCH  10  11
ENDBRANCH   1  10
TORSDOF 2
ENDMDL
MODEL 6
REMARK VINA RESULT:    -4.832      1.188      2.332
REMARK INTER + INTRA:          -5.523
REMARK INTER:                  -5.395
REMARK INTRA:                  -0.129
REMARK UNBOUND:                -0.127
REMARK  Name = 1550473
REMARK  2 active torsions:
REMARK  status: ('A' for Active; 'I' for Inactive)
REMARK    1  A    between atoms: N_1  and  C_4
REMARK    2  A    between atoms: C_4  and  C_5
REMARK                            x       y       z     vdW  Elec       q    Type
REMARK                         _______ _______ _______ _____ _____    ______ ____
ROOT
ATOM      1  N   UNL     1       8.361  -4.345   4.606  0.00  0.00    -0.354 N 
ATOM      2  N   UNL     1       9.444  -2.297   4.597  0.00  0.00    -0.372 N 
ATOM      3  N   UNL     1      10.683  -4.206   4.893  0.00  0.00    -0.372 N 
ATOM      4  C   UNL     1       9.491  -3.631   4.699  0.00  0.00    +0.166 C 
ATOM      5  H   UNL     1       7.486  -3.847   4.489  0.00  0.00    +0.163 HD
ATOM      6  H   UNL     1      10.280  -1.733   4.660  0.00  0.00    +0.159 HD
ATOM      7  H   UNL     1       8.573  -1.806   4.434  0.00  0.00    +0.159 HD
ATOM      8  H   UNL     1      10.785  -5.208   4.985  0.00  0.00    +0.159 HD
ATOM      9  H   UNL     1      11.530  -3.657   4.970  0.00  0.00    +0.159 HD
ENDROOT
BRANCH   1  10
ATOM     10  C   UNL     1       8.310  -5.805   4.650  0.00  0.00    +0.151 C 
BRANCH  10  11
ATOM     11  C   UNL     1       6.958  -6.235   5.148  0.00  0.00    -0.028 A 
ATOM     12  C   UNL     1       6.510  -7.549   4.948  0.00  0.00    +0.005 A 
ATOM     13  C   UNL     1       6.121  -5.334   5.824  0.00  0.00    +0.005 A 
ATOM     14  C   UNL     1       5.266  -7.957   5.436  0.00  0.00    +0.000 A 
ATOM     15  C   UNL     1       4.879  -5.745   6.309  0.00  0.00    +0.000 A 
ATOM     16  C   UNL     1       4.454  -7.057   6.117  0.00  0.00    +0.000 A 
ENDBRANCH  10  11
ENDBRANCH   1  10
TORSDOF 2
ENDMDL
MODEL 7
REMARK VINA RESULT:    -4.711     13.233     14.395
REMARK INTER + INTRA:          -5.388
REMARK INTER:                  -5.259
REMARK INTRA:                  -0.129
REMARK UNBOUND:                -0.127
REMARK  Name = 1550473
REMARK  2 active torsions:
REMARK  status: ('A' for Active; 'I' for Inactive)
REMARK    1  A    between atoms: N_1  and  C_4
REMARK    2  A    between atoms: C_4  and  C_5
REMARK                            x       y       z     vdW  Elec       q    Type
REMARK                         _______ _______ _______ _____ _____    ______ ____
ROOT
ATOM      1  N   UNL     1      11.482  -1.235  18.541  0.00  0.00    -0.354 N 
ATOM      2  N   UNL     1      10.184  -2.293  20.141  0.00  0.00    -0.372 N 
ATOM      3  N   UNL     1      11.662  -0.669  20.808  0.00  0.00    -0.372 N 
ATOM      4  C   UNL     1      11.120  -1.390  19.821  0.00  0.00    +0.166 C 
ATOM      5  H   UNL     1      11.055  -1.834  17.843  0.00  0.00    +0.163 HD
ATOM      6  H   UNL     1       9.888  -2.430  21.097  0.00  0.00    +0.159 HD
ATOM      7  H   UNL     1       9.726  -2.858  19.436  0.00  0.00    +0.159 HD
ATOM      8  H   UNL     1      12.377   0.024  20.634  0.00  0.00    +0.159 HD
ATOM      9  H   UNL     1      11.386  -0.800  21.773  0.00  0.00    +0.159 HD
ENDROOT
BRANCH   1  10
ATOM     10  C   UNL     1      12.452  -0.243  18.080  0.00  0.00    +0.151 C 
BRANCH  10  11
ATOM     11  C   UNL     1      11.812   0.617  17.025  0.00  0.00    -0.028 A 
ATOM     12  C   UNL     1      11.495   1.956  17.293  0.00  0.00    +0.005 A 
ATOM     13  C   UNL     1      11.527   0.099  15.752  0.00  0.00    +0.005 A 
ATOM     14  C   UNL     1      10.928   2.763  16.303  0.00  0.00    +0.000 A 
ATOM     15  C   UNL     1      10.960   0.907  14.767  0.00  0.00    +0.000 A 
ATOM     16  C   UNL     1      10.664   2.240  15.042  0.00  0.00    +0.000 A 
ENDBRANCH  10  11
ENDBRANCH   1  10
TORSDOF 2
ENDMDL
MODEL 8
REMARK VINA RESULT:    -4.653     31.981     33.098
REMARK INTER + INTRA:          -5.323
REMARK INTER:                  -5.198
REMARK INTRA:                  -0.125
REMARK UNBOUND:                -0.127
REMARK  Name = 1550473
REMARK  2 active torsions:
REMARK  status: ('A' for Active; 'I' for Inactive)
REMARK    1  A    between atoms: N_1  and  C_4
REMARK    2  A    between atoms: C_4  and  C_5
REMARK                            x       y       z     vdW  Elec       q    Type
REMARK                         _______ _______ _______ _____ _____    ______ ____
ROOT
ATOM      1  N   UNL     1      18.736  20.181  24.066  0.00  0.00    -0.354 N 
ATOM      2  N   UNL     1      17.900  18.611  25.550  0.00  0.00    -0.372 N 
ATOM      3  N   UNL     1      19.992  19.480  25.916  0.00  0.00    -0.372 N 
ATOM      4  C   UNL     1      18.884  19.434  25.169  0.00  0.00    +0.166 C 
ATOM      5  H   UNL     1      17.884  20.078  23.526  0.00  0.00    +0.163 HD
ATOM      6  H   UNL     1      17.982  18.039  26.379  0.00  0.00    +0.159 HD
ATOM      7  H   UNL     1      17.031  18.545  25.034  0.00  0.00    +0.159 HD
ATOM      8  H   UNL     1      20.774  20.076  25.679  0.00  0.00    +0.159 HD
ATOM      9  H   UNL     1      20.097  18.905  26.743  0.00  0.00    +0.159 HD
ENDROOT
BRANCH   1  10
ATOM     10  C   UNL     1      19.725  21.148  23.594  0.00  0.00    +0.151 C 
BRANCH  10  11
ATOM     11  C   UNL     1      19.421  21.505  22.166  0.00  0.00    -0.028 A 
ATOM     12  C   UNL     1      18.258  21.028  21.545  0.00  0.00    +0.005 A 
ATOM     13  C   UNL     1      20.289  22.326  21.429  0.00  0.00    +0.005 A 
ATOM     14  C   UNL     1      17.959  21.384  20.227  0.00  0.00    +0.000 A 
ATOM     15  C   UNL     1      19.988  22.678  20.114  0.00  0.00    +0.000 A 
ATOM     16  C   UNL     1      18.822  22.209  19.514  0.00  0.00    +0.000 A 
ENDBRANCH  10  11
ENDBRANCH   1  10
TORSDOF 2
ENDMDL
MODEL 9
REMARK VINA RESULT:    -4.595     29.269     30.841
REMARK INTER + INTRA:          -5.259
REMARK INTER:                  -5.166
REMARK INTRA:                  -0.093
REMARK UNBOUND:                -0.127
REMARK  Name = 1550473
REMARK  2 active torsions:
REMARK  status: ('A' for Active; 'I' for Inactive)
REMARK    1  A    between atoms: N_1  and  C_4
REMARK    2  A    between atoms: C_4  and  C_5
REMARK                            x       y       z     vdW  Elec       q    Type
REMARK                         _______ _______ _______ _____ _____    ______ ____
ROOT
ATOM      1  N   UNL     1      19.012  18.469  19.033  0.00  0.00    -0.354 N 
ATOM      2  N   UNL     1      18.600  16.289  19.696  0.00  0.00    -0.372 N 
ATOM      3  N   UNL     1      17.109  17.321  18.290  0.00  0.00    -0.372 N 
ATOM      4  C   UNL     1      18.241  17.374  19.001  0.00  0.00    +0.166 C 
ATOM      5  H   UNL     1      19.842  18.456  19.615  0.00  0.00    +0.163 HD
ATOM      6  H   UNL     1      18.040  15.447  19.688  0.00  0.00    +0.159 HD
ATOM      7  H   UNL     1      19.454  16.263  20.241  0.00  0.00    +0.159 HD
ATOM      8  H   UNL     1      16.780  18.108  17.748  0.00  0.00    +0.159 HD
ATOM      9  H   UNL     1      16.529  16.491  18.279  0.00  0.00    +0.159 HD
ENDROOT
BRANCH   1  10
ATOM     10  C   UNL     1      18.739  19.685  18.269  0.00  0.00    +0.151 C 
BRANCH  10  11
ATOM     11  C   UNL     1      19.584  20.805  18.810  0.00  0.00    -0.028 A 
ATOM     12  C   UNL     1      20.956  20.864  18.525  0.00  0.00    +0.005 A 
ATOM     13  C   UNL     1      19.017  21.815  19.603  0.00  0.00    +0.005 A 
ATOM     14  C   UNL     1      21.735  21.921  19.002  0.00  0.00    +0.000 A 
ATOM     15  C   UNL     1      19.799  22.868  20.078  0.00  0.00    +0.000 A 
ATOM     16  C   UNL     1      21.157  22.922  19.775  0.00  0.00    +0.000 A 
ENDBRANCH  10  11
ENDBRANCH   1  10
TORSDOF 2
ENDMDL
