MODEL 1
REMARK VINA RESULT:    -5.232      0.000      0.000
REMARK INTER + INTRA:          -5.985
REMARK INTER:                  -5.844
REMARK INTRA:                  -0.141
REMARK UNBOUND:                -0.141
REMARK  Name = 1550473
REMARK  2 active torsions:
REMARK  status: ('A' for Active; 'I' for Inactive)
REMARK    1  A    between atoms: N_1  and  C_4
REMARK    2  A    between atoms: C_4  and  C_5
REMARK                            x       y       z     vdW  Elec       q    Type
REMARK                         _______ _______ _______ _____ _____    ______ ____
ROOT
ATOM      1  N   UNL     1      12.395  -0.354  20.727  0.00  0.00    -0.354 N 
ATOM      2  N   UNL     1      12.154  -0.938  22.955  0.00  0.00    -0.372 N 
ATOM      3  N   UNL     1      13.322   0.965  22.427  0.00  0.00    -0.372 N 
ATOM      4  C   UNL     1      12.627  -0.103  22.022  0.00  0.00    +0.166 C 
ATOM      5  H   UNL     1      11.888  -1.197  20.483  0.00  0.00    +0.163 HD
ATOM      6  H   UNL     1      12.310  -0.773  23.940  0.00  0.00    +0.159 HD
ATOM      7  H   UNL     1      11.608  -1.755  22.711  0.00  0.00    +0.159 HD
ATOM      8  H   UNL     1      13.710   1.631  21.773  0.00  0.00    +0.159 HD
ATOM      9  H   UNL     1      13.498   1.142  23.408  0.00  0.00    +0.159 HD
ENDROOT
BRANCH   1  10
ATOM     10  C   UNL     1      12.820   0.521  19.635  0.00  0.00    +0.151 C 
BRANCH  10  11
ATOM     11  C   UNL     1      11.604   1.017  18.903  0.00  0.00    -0.028 A 
ATOM     12  C   UNL     1      10.787   0.126  18.193  0.00  0.00    +0.005 A 
ATOM     13  C   UNL     1      11.261   2.378  18.919  0.00  0.00    +0.005 A 
ATOM     14  C   UNL     1       9.641   0.582  17.537  0.00  0.00    +0.000 A 
ATOM     15  C   UNL     1      10.116   2.830  18.263  0.00  0.00    +0.000 A 
ATOM     16  C   UNL     1       9.305   1.931  17.574  0.00  0.00    +0.000 A 
ENDBRANCH  10  11
ENDBRANCH   1  10
TORSDOF 2
ENDMDL
MODEL 2
REMARK VINA RESULT:    -5.205      1.388      2.254
REMARK INTER + INTRA:          -5.955
REMARK INTER:                  -5.775
REMARK INTRA:                  -0.180
REMARK UNBOUND:                -0.141
REMARK  Name = 1550473
REMARK  2 active torsions:
REMARK  status: ('A' for Active; 'I' for Inactive)
REMARK    1  A    between atoms: N_1  and  C_4
REMARK    2  A    between atoms: C_4  and  C_5
REMARK                            x       y       z     vdW  Elec       q    Type
REMARK                         _______ _______ _______ _____ _____    ______ ____
ROOT
ATOM      1  N   UNL     1      12.425   0.177  19.651  0.00  0.00    -0.354 N 
ATOM      2  N   UNL     1      12.810  -0.491  21.835  0.00  0.00    -0.372 N 
ATOM      3  N   UNL     1      11.716   1.490  21.458  0.00  0.00    -0.372 N 
ATOM      4  C   UNL     1      12.313   0.399  20.968  0.00  0.00    +0.166 C 
ATOM      5  H   UNL     1      12.915  -0.655  19.343  0.00  0.00    +0.163 HD
ATOM      6  H   UNL     1      12.737  -0.352  22.834  0.00  0.00    +0.159 HD
ATOM      7  H   UNL     1      13.259  -1.344  21.525  0.00  0.00    +0.159 HD
ATOM      8  H   UNL     1      11.325   2.203  20.856  0.00  0.00    +0.159 HD
ATOM      9  H   UNL     1      11.644   1.653  22.455  0.00  0.00    +0.159 HD
ENDROOT
BRANCH   1  10
ATOM     10  C   UNL     1      11.870   1.056  18.624  0.00  0.00    +0.151 C 
BRANCH  10  11
ATOM     11  C   UNL     1      10.554   0.498  18.157  0.00  0.00    -0.028 A 
ATOM     12  C   UNL     1       9.347   1.011  18.653  0.00  0.00    +0.005 A 
ATOM     13  C   UNL     1      10.508  -0.539  17.213  0.00  0.00    +0.005 A 
ATOM     14  C   UNL     1       8.124   0.513  18.197  0.00  0.00    +0.000 A 
ATOM     15  C   UNL     1       9.285  -1.034  16.761  0.00  0.00    +0.000 A 
ATOM     16  C   UNL     1       8.093  -0.506  17.251  0.00  0.00    +0.000 A 
ENDBRANCH  10  11
ENDBRANCH   1  10
TORSDOF 2
ENDMDL
MODEL 3
REMARK VINA RESULT:    -5.115     34.564     35.881
REMARK INTER + INTRA:          -5.854
REMARK INTER:                  -5.744
REMARK INTRA:                  -0.111
REMARK UNBOUND:                -0.141
REMARK  Name = 1550473
REMARK  2 active torsions:
REMARK  status: ('A' for Active; 'I' for Inactive)
REMARK    1  A    between atoms: N_1  and  C_4
REMARK    2  A    between atoms: C_4  and  C_5
REMARK                            x       y       z     vdW  Elec       q    Type
REMARK                         _______ _______ _______ _____ _____    ______ ____
ROOT
ATOM      1  N   UNL     1      13.145   3.199 -17.221  0.00  0.00    -0.354 N 
ATOM      2  N   UNL     1      13.485   3.540 -19.487  0.00  0.00    -0.372 N 
ATOM      3  N   UNL     1      15.235   3.872 -18.040  0.00  0.00    -0.372 N 
ATOM      4  C   UNL     1      13.955   3.536 -18.234  0.00  0.00    +0.166 C 
ATOM      5  H   UNL     1      12.177   2.983 -17.431  0.00  0.00    +0.163 HD
ATOM      6  H   UNL     1      14.073   3.786 -20.271  0.00  0.00    +0.159 HD
ATOM      7  H   UNL     1      12.529   3.280 -19.698  0.00  0.00    +0.159 HD
ATOM      8  H   UNL     1      15.649   3.894 -17.118  0.00  0.00    +0.159 HD
ATOM      9  H   UNL     1      15.836   4.133 -18.811  0.00  0.00    +0.159 HD
ENDROOT
BRANCH   1  10
ATOM     10  C   UNL     1      13.572   3.111 -15.826  0.00  0.00    +0.151 C 
BRANCH  10  11
ATOM     11  C   UNL     1      12.430   2.598 -14.994  0.00  0.00    -0.028 A 
ATOM     12  C   UNL     1      12.662   1.698 -13.943  0.00  0.00    +0.005 A 
ATOM     13  C   UNL     1      11.113   3.011 -15.247  0.00  0.00    +0.005 A 
ATOM     14  C   UNL     1      11.605   1.245 -13.150  0.00  0.00    +0.000 A 
ATOM     15  C   UNL     1      10.060   2.555 -14.454  0.00  0.00    +0.000 A 
ATOM     16  C   UNL     1      10.307   1.674 -13.404  0.00  0.00    +0.000 A 
ENDBRANCH  10  11
ENDBRANCH   1  10
TORSDOF 2
ENDMDL
MODEL 4
REMARK VINA RESULT:    -4.988     10.480     12.021
REMARK INTER + INTRA:          -5.713
REMARK INTER:                  -5.619
REMARK INTRA:                  -0.094
REMARK UNBOUND:                -0.141
REMARK  Name = 1550473
REMARK  2 active torsions:
REMARK  status: ('A' for Active; 'I' for Inactive)
REMARK    1  A    between atoms: N_1  and  C_4
REMARK    2  A    between atoms: C_4  and  C_5
REMARK                            x       y       z     vdW  Elec       q    Type
REMARK                         _______ _______ _______ _____ _____    ______ ____
ROOT
ATOM      1  N   UNL     1       2.663  -4.580  15.353  0.00  0.00    -0.354 N 
ATOM      2  N   UNL     1       1.173  -2.919  14.735  0.00  0.00    -0.372 N 
ATOM      3  N   UNL     1       1.380  -4.775  13.402  0.00  0.00    -0.372 N 
ATOM      4  C   UNL     1       1.748  -4.104  14.498  0.00  0.00    +0.166 C 
ATOM      5  H   UNL     1       2.921  -4.010  16.150  0.00  0.00    +0.163 HD
ATOM      6  H   UNL     1       0.477  -2.535  14.110  0.00  0.00    +0.159 HD
ATOM      7  H   UNL     1       1.399  -2.371  15.556  0.00  0.00    +0.159 HD
ATOM      8  H   UNL     1       1.780  -5.672  13.163  0.00  0.00    +0.159 HD
ATOM      9  H   UNL     1       0.693  -4.402  12.758  0.00  0.00    +0.159 HD
ENDROOT
BRANCH   1  10
ATOM     10  C   UNL     1       3.310  -5.884  15.215  0.00  0.00    +0.151 C 
BRANCH  10  11
ATOM     11  C   UNL     1       3.829  -6.319  16.558  0.00  0.00    -0.028 A 
ATOM     12  C   UNL     1       3.114  -7.245  17.332  0.00  0.00    +0.005 A 
ATOM     13  C   UNL     1       5.039  -5.814  17.059  0.00  0.00    +0.005 A 
ATOM     14  C   UNL     1       3.611  -7.672  18.566  0.00  0.00    +0.000 A 
ATOM     15  C   UNL     1       5.531  -6.242  18.292  0.00  0.00    +0.000 A 
ATOM     16  C   UNL     1       4.818  -7.173  19.044  0.00  0.00    +0.000 A 
ENDBRANCH  10  11
ENDBRANCH   1  10
TORSDOF 2
ENDMDL
MODEL 5
REMARK VINA RESULT:    -4.957     19.213     20.662
REMARK INTER + INTRA:          -5.678
REMARK INTER:                  -5.536
REMARK INTRA:                  -0.142
REMARK UNBOUND:                -0.141
REMARK  Name = 1550473
REMARK  2 active torsions:
REMARK  status: ('A' for Active; 'I' for Inactive)
REMARK    1  A    between atoms: N_1  and  C_4
REMARK    2  A    between atoms: C_4  and  C_5
REMARK                            x       y       z     vdW  Elec       q    Type
REMARK                         _______ _______ _______ _____ _____    ______ ____
ROOT
ATOM      1  N   UNL     1      -3.584   9.562   9.283  0.00  0.00    -0.354 N 
ATOM      2  N   UNL     1      -2.625   8.200   7.674  0.00  0.00    -0.372 N 
ATOM      3  N   UNL     1      -1.947   7.986   9.855  0.00  0.00    -0.372 N 
ATOM      4  C   UNL     1      -2.723   8.591   8.950  0.00  0.00    +0.166 C 
ATOM      5  H   UNL     1      -4.123  10.001   8.545  0.00  0.00    +0.163 HD
ATOM      6  H   UNL     1      -1.987   7.467   7.393  0.00  0.00    +0.159 HD
ATOM      7  H   UNL     1      -3.198   8.609   6.946  0.00  0.00    +0.159 HD
ATOM      8  H   UNL     1      -1.968   8.239  10.834  0.00  0.00    +0.159 HD
ATOM      9  H   UNL     1      -1.293   7.259   9.592  0.00  0.00    +0.159 HD
ENDROOT
BRANCH   1  10
ATOM     10  C   UNL     1      -3.806  10.024  10.652  0.00  0.00    +0.151 C 
BRANCH  10  11
ATOM     11  C   UNL     1      -5.100   9.450  11.160  0.00  0.00    -0.028 A 
ATOM     12  C   UNL     1      -5.341   9.349  12.538  0.00  0.00    +0.005 A 
ATOM     13  C   UNL     1      -6.091   9.011  10.269  0.00  0.00    +0.005 A 
ATOM     14  C   UNL     1      -6.555   8.843  13.011  0.00  0.00    +0.000 A 
ATOM     15  C   UNL     1      -7.301   8.506  10.745  0.00  0.00    +0.000 A 
ATOM     16  C   UNL     1      -7.534   8.425  12.115  0.00  0.00    +0.000 A 
ENDBRANCH  10  11
ENDBRANCH   1  10
TORSDOF 2
ENDMDL
MODEL 6
REMARK VINA RESULT:    -4.940     30.111     31.747
REMARK INTER + INTRA:          -5.659
REMARK INTER:                  -5.561
REMARK INTRA:                  -0.099
REMARK UNBOUND:                -0.141
REMARK  Name = 1550473
REMARK  2 active torsions:
REMARK  status: ('A' for Active; 'I' for Inactive)
REMARK    1  A    between atoms: N_1  and  C_4
REMARK    2  A    between atoms: C_4  and  C_5
REMARK                            x       y       z     vdW  Elec       q    Type
REMARK                         _______ _______ _______ _____ _____    ______ ____
ROOT
ATOM      1  N   UNL     1      -9.311  -5.497  -3.797  0.00  0.00    -0.354 N 
ATOM      2  N   UNL     1      -8.984  -4.391  -5.805  0.00  0.00    -0.372 N 
ATOM      3  N   UNL     1     -11.062  -4.335  -4.834  0.00  0.00    -0.372 N 
ATOM      4  C   UNL     1      -9.791  -4.748  -4.798  0.00  0.00    +0.166 C 
ATOM      5  H   UNL     1      -8.345  -5.802  -3.844  0.00  0.00    +0.163 HD
ATOM      6  H   UNL     1      -9.317  -3.824  -6.573  0.00  0.00    +0.159 HD
ATOM      7  H   UNL     1      -8.008  -4.659  -5.827  0.00  0.00    +0.159 HD
ATOM      8  H   UNL     1     -11.723  -4.576  -4.107  0.00  0.00    +0.159 HD
ATOM      9  H   UNL     1     -11.417  -3.777  -5.600  0.00  0.00    +0.159 HD
ENDROOT
BRANCH   1  10
ATOM     10  C   UNL     1     -10.091  -5.894  -2.626  0.00  0.00    +0.151 C 
BRANCH  10  11
ATOM     11  C   UNL     1      -9.352  -6.974  -1.886  0.00  0.00    -0.028 A 
ATOM     12  C   UNL     1      -8.064  -6.738  -1.383  0.00  0.00    +0.005 A 
ATOM     13  C   UNL     1      -9.935  -8.233  -1.679  0.00  0.00    +0.005 A 
ATOM     14  C   UNL     1      -7.388  -7.731  -0.669  0.00  0.00    +0.000 A 
ATOM     15  C   UNL     1      -9.257  -9.222  -0.966  0.00  0.00    +0.000 A 
ATOM     16  C   UNL     1      -7.985  -8.970  -0.460  0.00  0.00    +0.000 A 
ENDBRANCH  10  11
ENDBRANCH   1  10
TORSDOF 2
ENDMDL
MODEL 7
REMARK VINA RESULT:    -4.829      3.055      4.807
REMARK INTER + INTRA:          -5.535
REMARK INTER:                  -5.446
REMARK INTRA:                  -0.088
REMARK UNBOUND:                -0.141
REMARK  Name = 1550473
REMARK  2 active torsions:
REMARK  status: ('A' for Active; 'I' for Inactive)
REMARK    1  A    between atoms: N_1  and  C_4
REMARK    2  A    between atoms: C_4  and  C_5
REMARK                            x       y       z     vdW  Elec       q    Type
REMARK                         _______ _______ _______ _____ _____    ______ ____
ROOT
ATOM      1  N   UNL     1      11.108   0.689  20.212  0.00  0.00    -0.354 N 
ATOM      2  N   UNL     1       9.032   0.659  19.184  0.00  0.00    -0.372 N 
ATOM      3  N   UNL     1      10.627   2.120  18.419  0.00  0.00    -0.372 N 
ATOM      4  C   UNL     1      10.270   1.158  19.277  0.00  0.00    +0.166 C 
ATOM      5  H   UNL     1      10.767  -0.019  20.851  0.00  0.00    +0.163 HD
ATOM      6  H   UNL     1       8.379   0.990  18.486  0.00  0.00    +0.159 HD
ATOM      7  H   UNL     1       8.709  -0.082  19.795  0.00  0.00    +0.159 HD
ATOM      8  H   UNL     1      11.545   2.543  18.440  0.00  0.00    +0.159 HD
ATOM      9  H   UNL     1       9.984   2.473  17.721  0.00  0.00    +0.159 HD
ENDROOT
BRANCH   1  10
ATOM     10  C   UNL     1      12.494   1.128  20.362  0.00  0.00    +0.151 C 
BRANCH  10  11
ATOM     11  C   UNL     1      12.595   2.035  21.558  0.00  0.00    -0.028 A 
ATOM     12  C   UNL     1      11.468   2.299  22.349  0.00  0.00    +0.005 A 
ATOM     13  C   UNL     1      13.818   2.628  21.908  0.00  0.00    +0.005 A 
ATOM     14  C   UNL     1      11.568   3.117  23.477  0.00  0.00    +0.000 A 
ATOM     15  C   UNL     1      13.914   3.445  23.035  0.00  0.00    +0.000 A 
ATOM     16  C   UNL     1      12.789   3.687  23.820  0.00  0.00    +0.000 A 
ENDBRANCH  10  11
ENDBRANCH   1  10
TORSDOF 2
ENDMDL
MODEL 8
REMARK VINA RESULT:    -4.727      2.371      4.684
REMARK INTER + INTRA:          -5.421
REMARK INTER:                  -5.272
REMARK INTRA:                  -0.149
REMARK UNBOUND:                -0.141
REMARK  Name = 1550473
REMARK  2 active torsions:
REMARK  status: ('A' for Active; 'I' for Inactive)
REMARK    1  A    between atoms: N_1  and  C_4
REMARK    2  A    between atoms: C_4  and  C_5
REMARK                            x       y       z     vdW  Elec       q    Type
REMARK                         _______ _______ _______ _____ _____    ______ ____
ROOT
ATOM      1  N   UNL     1      12.442   0.792  18.883  0.00  0.00    -0.354 N 
ATOM      2  N   UNL     1      11.091  -0.216  17.295  0.00  0.00    -0.372 N 
ATOM      3  N   UNL     1      10.410   1.764  18.235  0.00  0.00    -0.372 N 
ATOM      4  C   UNL     1      11.322   0.789  18.149  0.00  0.00    +0.166 C 
ATOM      5  H   UNL     1      13.079   0.008  18.793  0.00  0.00    +0.163 HD
ATOM      6  H   UNL     1      10.255  -0.244  16.725  0.00  0.00    +0.159 HD
ATOM      7  H   UNL     1      11.750  -0.974  17.173  0.00  0.00    +0.159 HD
ATOM      8  H   UNL     1      10.522   2.547  18.865  0.00  0.00    +0.159 HD
ATOM      9  H   UNL     1       9.563   1.747  17.682  0.00  0.00    +0.159 HD
ENDROOT
BRANCH   1  10
ATOM     10  C   UNL     1      12.814   1.866  19.802  0.00  0.00    +0.151 C 
BRANCH  10  11
ATOM     11  C   UNL     1      12.334   1.517  21.184  0.00  0.00    -0.028 A 
ATOM     12  C   UNL     1      11.803   2.507  22.024  0.00  0.00    +0.005 A 
ATOM     13  C   UNL     1      12.402   0.198  21.657  0.00  0.00    +0.005 A 
ATOM     14  C   UNL     1      11.330   2.179  23.296  0.00  0.00    +0.000 A 
ATOM     15  C   UNL     1      11.929  -0.126  22.929  0.00  0.00    +0.000 A 
ATOM     16  C   UNL     1      11.391   0.864  23.747  0.00  0.00    +0.000 A 
ENDBRANCH  10  11
ENDBRANCH   1  10
TORSDOF 2
ENDMDL
MODEL 9
REMARK VINA RESULT:    -4.638     33.089     34.200
REMARK INTER + INTRA:          -5.322
REMARK INTER:                  -5.182
REMARK INTRA:                  -0.141
REMARK UNBOUND:                -0.141
REMARK  Name = 1550473
REMARK  2 active torsions:
REMARK  status: ('A' for Active; 'I' for Inactive)
REMARK    1  A    between atoms: N_1  and  C_4
REMARK    2  A    between atoms: C_4  and  C_5
REMARK                            x       y       z     vdW  Elec       q    Type
REMARK                         _______ _______ _______ _____ _____    ______ ____
ROOT
ATOM      1  N   UNL     1       7.402   1.747 -14.197  0.00  0.00    -0.354 N 
ATOM      2  N   UNL     1       5.676   0.746 -15.374  0.00  0.00    -0.372 N 
ATOM      3  N   UNL     1       6.473  -0.283 -13.485  0.00  0.00    -0.372 N 
ATOM      4  C   UNL     1       6.529   0.741 -14.342  0.00  0.00    +0.166 C 
ATOM      5  H   UNL     1       7.414   2.479 -14.899  0.00  0.00    +0.163 HD
ATOM      6  H   UNL     1       5.004   0.003 -15.508  0.00  0.00    +0.159 HD
ATOM      7  H   UNL     1       5.660   1.502 -16.048  0.00  0.00    +0.159 HD
ATOM      8  H   UNL     1       7.094  -0.349 -12.689  0.00  0.00    +0.159 HD
ATOM      9  H   UNL     1       5.816  -1.042 -13.608  0.00  0.00    +0.159 HD
ENDROOT
BRANCH   1  10
ATOM     10  C   UNL     1       8.336   1.864 -13.079  0.00  0.00    +0.151 C 
BRANCH  10  11
ATOM     11  C   UNL     1       9.740   1.914 -13.616  0.00  0.00    -0.028 A 
ATOM     12  C   UNL     1      10.028   2.619 -14.794  0.00  0.00    +0.005 A 
ATOM     13  C   UNL     1      10.789   1.263 -12.947  0.00  0.00    +0.005 A 
ATOM     14  C   UNL     1      11.337   2.691 -15.276  0.00  0.00    +0.000 A 
ATOM     15  C   UNL     1      12.094   1.337 -13.433  0.00  0.00    +0.000 A 
ATOM     16  C   UNL     1      12.369   2.052 -14.595  0.00  0.00    +0.000 A 
ENDBRANCH  10  11
ENDBRANCH   1  10
TORSDOF 2
ENDMDL
