MODEL 1
REMARK VINA RESULT:    -5.185      0.000      0.000
REMARK INTER + INTRA:          -5.926
REMARK INTER:                  -5.792
REMARK INTRA:                  -0.135
REMARK UNBOUND:                -0.135
REMARK  Name = 1550473
REMARK  2 active torsions:
REMARK  status: ('A' for Active; 'I' for Inactive)
REMARK    1  A    between atoms: N_1  and  C_4
REMARK    2  A    between atoms: C_4  and  C_5
REMARK                            x       y       z     vdW  Elec       q    Type
REMARK                         _______ _______ _______ _____ _____    ______ ____
ROOT
ATOM      1  N   UNL     1      10.806  -4.801   1.379  0.00  0.00    -0.354 N 
ATOM      2  N   UNL     1      12.066  -6.716   1.043  0.00  0.00    -0.372 N 
ATOM      3  N   UNL     1      10.061  -6.501  -0.052  0.00  0.00    -0.372 N 
ATOM      4  C   UNL     1      10.967  -5.994   0.791  0.00  0.00    +0.166 C 
ATOM      5  H   UNL     1      11.515  -4.487   2.032  0.00  0.00    +0.163 HD
ATOM      6  H   UNL     1      12.216  -7.618   0.611  0.00  0.00    +0.159 HD
ATOM      7  H   UNL     1      12.795  -6.378   1.660  0.00  0.00    +0.159 HD
ATOM      8  H   UNL     1       9.207  -6.009  -0.280  0.00  0.00    +0.159 HD
ATOM      9  H   UNL     1      10.188  -7.407  -0.485  0.00  0.00    +0.159 HD
ENDROOT
BRANCH   1  10
ATOM     10  C   UNL     1       9.672  -3.913   1.131  0.00  0.00    +0.151 C 
BRANCH  10  11
ATOM     11  C   UNL     1       9.080  -3.492   2.447  0.00  0.00    -0.028 A 
ATOM     12  C   UNL     1       7.701  -3.262   2.567  0.00  0.00    +0.005 A 
ATOM     13  C   UNL     1       9.891  -3.328   3.581  0.00  0.00    +0.005 A 
ATOM     14  C   UNL     1       7.147  -2.900   3.797  0.00  0.00    +0.000 A 
ATOM     15  C   UNL     1       9.334  -2.965   4.807  0.00  0.00    +0.000 A 
ATOM     16  C   UNL     1       7.961  -2.754   4.915  0.00  0.00    +0.000 A 
ENDBRANCH  10  11
ENDBRANCH   1  10
TORSDOF 2
ENDMDL
MODEL 2
REMARK VINA RESULT:    -5.124      2.869      4.754
REMARK INTER + INTRA:          -5.858
REMARK INTER:                  -5.732
REMARK INTRA:                  -0.126
REMARK UNBOUND:                -0.135
REMARK  Name = 1550473
REMARK  2 active torsions:
REMARK  status: ('A' for Active; 'I' for Inactive)
REMARK    1  A    between atoms: N_1  and  C_4
REMARK    2  A    between atoms: C_4  and  C_5
REMARK                            x       y       z     vdW  Elec       q    Type
REMARK                         _______ _______ _______ _____ _____    ______ ____
ROOT
ATOM      1  N   UNL     1       8.953  -3.522   3.974  0.00  0.00    -0.354 N 
ATOM      2  N   UNL     1       7.646  -1.633   3.679  0.00  0.00    -0.372 N 
ATOM      3  N   UNL     1       7.856  -3.119   1.943  0.00  0.00    -0.372 N 
ATOM      4  C   UNL     1       8.160  -2.772   3.198  0.00  0.00    +0.166 C 
ATOM      5  H   UNL     1       9.170  -3.188   4.906  0.00  0.00    +0.163 HD
ATOM      6  H   UNL     1       7.042  -1.048   3.117  0.00  0.00    +0.159 HD
ATOM      7  H   UNL     1       7.827  -1.325   4.626  0.00  0.00    +0.159 HD
ATOM      8  H   UNL     1       8.216  -3.964   1.519  0.00  0.00    +0.159 HD
ATOM      9  H   UNL     1       7.262  -2.541   1.362  0.00  0.00    +0.159 HD
ENDROOT
BRANCH   1  10
ATOM     10  C   UNL     1       9.520  -4.806   3.565  0.00  0.00    +0.151 C 
BRANCH  10  11
ATOM     11  C   UNL     1      10.960  -4.607   3.181  0.00  0.00    -0.028 A 
ATOM     12  C   UNL     1      11.657  -3.464   3.600  0.00  0.00    +0.005 A 
ATOM     13  C   UNL     1      11.635  -5.559   2.402  0.00  0.00    +0.005 A 
ATOM     14  C   UNL     1      13.004  -3.293   3.269  0.00  0.00    +0.000 A 
ATOM     15  C   UNL     1      12.979  -5.384   2.072  0.00  0.00    +0.000 A 
ATOM     16  C   UNL     1      13.663  -4.253   2.508  0.00  0.00    +0.000 A 
ENDBRANCH  10  11
ENDBRANCH   1  10
TORSDOF 2
ENDMDL
MODEL 3
REMARK VINA RESULT:    -5.036      2.565      3.847
REMARK INTER + INTRA:          -5.760
REMARK INTER:                  -5.605
REMARK INTRA:                  -0.155
REMARK UNBOUND:                -0.135
REMARK  Name = 1550473
REMARK  2 active torsions:
REMARK  status: ('A' for Active; 'I' for Inactive)
REMARK    1  A    between atoms: N_1  and  C_4
REMARK    2  A    between atoms: C_4  and  C_5
REMARK                            x       y       z     vdW  Elec       q    Type
REMARK                         _______ _______ _______ _____ _____    ______ ____
ROOT
ATOM      1  N   UNL     1      10.433  -7.461   0.399  0.00  0.00    -0.354 N 
ATOM      2  N   UNL     1       9.937  -9.674   0.872  0.00  0.00    -0.372 N 
ATOM      3  N   UNL     1       8.428  -8.049   1.460  0.00  0.00    -0.372 N 
ATOM      4  C   UNL     1       9.600  -8.379   0.908  0.00  0.00    +0.166 C 
ATOM      5  H   UNL     1      11.321  -7.773   0.022  0.00  0.00    +0.163 HD
ATOM      6  H   UNL     1       9.328 -10.389   1.245  0.00  0.00    +0.159 HD
ATOM      7  H   UNL     1      10.804  -9.987   0.453  0.00  0.00    +0.159 HD
ATOM      8  H   UNL     1       8.117  -7.088   1.524  0.00  0.00    +0.159 HD
ATOM      9  H   UNL     1       7.809  -8.749   1.849  0.00  0.00    +0.159 HD
ENDROOT
BRANCH   1  10
ATOM     10  C   UNL     1      10.137  -6.031   0.341  0.00  0.00    +0.151 C 
BRANCH  10  11
ATOM     11  C   UNL     1      11.044  -5.302   1.293  0.00  0.00    -0.028 A 
ATOM     12  C   UNL     1      12.379  -5.702   1.451  0.00  0.00    +0.005 A 
ATOM     13  C   UNL     1      10.576  -4.208   2.037  0.00  0.00    +0.005 A 
ATOM     14  C   UNL     1      13.231  -5.007   2.313  0.00  0.00    +0.000 A 
ATOM     15  C   UNL     1      11.430  -3.517   2.897  0.00  0.00    +0.000 A 
ATOM     16  C   UNL     1      12.757  -3.915   3.033  0.00  0.00    +0.000 A 
ENDBRANCH  10  11
ENDBRANCH   1  10
TORSDOF 2
ENDMDL
MODEL 4
REMARK VINA RESULT:    -4.914      3.342      4.402
REMARK INTER + INTRA:          -5.623
REMARK INTER:                  -5.494
REMARK INTRA:                  -0.128
REMARK UNBOUND:                -0.135
REMARK  Name = 1550473
REMARK  2 active torsions:
REMARK  status: ('A' for Active; 'I' for Inactive)
REMARK    1  A    between atoms: N_1  and  C_4
REMARK    2  A    between atoms: C_4  and  C_5
REMARK                            x       y       z     vdW  Elec       q    Type
REMARK                         _______ _______ _______ _____ _____    ______ ____
ROOT
ATOM      1  N   UNL     1      11.530  -6.574   2.117  0.00  0.00    -0.354 N 
ATOM      2  N   UNL     1       9.579  -7.817   2.224  0.00  0.00    -0.372 N 
ATOM      3  N   UNL     1      10.471  -7.328   0.167  0.00  0.00    -0.372 N 
ATOM      4  C   UNL     1      10.539  -7.231   1.499  0.00  0.00    +0.166 C 
ATOM      5  H   UNL     1      11.508  -6.511   3.129  0.00  0.00    +0.163 HD
ATOM      6  H   UNL     1       8.821  -8.323   1.785  0.00  0.00    +0.159 HD
ATOM      7  H   UNL     1       9.584  -7.792   3.236  0.00  0.00    +0.159 HD
ATOM      8  H   UNL     1      11.162  -6.903  -0.437  0.00  0.00    +0.159 HD
ATOM      9  H   UNL     1       9.714  -7.820  -0.290  0.00  0.00    +0.159 HD
ENDROOT
BRANCH   1  10
ATOM     10  C   UNL     1      12.653  -5.947   1.423  0.00  0.00    +0.151 C 
BRANCH  10  11
ATOM     11  C   UNL     1      13.138  -4.775   2.231  0.00  0.00    -0.028 A 
ATOM     12  C   UNL     1      14.468  -4.343   2.131  0.00  0.00    +0.005 A 
ATOM     13  C   UNL     1      12.270  -4.089   3.094  0.00  0.00    +0.005 A 
ATOM     14  C   UNL     1      14.911  -3.236   2.859  0.00  0.00    +0.000 A 
ATOM     15  C   UNL     1      12.716  -2.984   3.819  0.00  0.00    +0.000 A 
ATOM     16  C   UNL     1      14.036  -2.557   3.700  0.00  0.00    +0.000 A 
ENDBRANCH  10  11
ENDBRANCH   1  10
TORSDOF 2
ENDMDL
MODEL 5
REMARK VINA RESULT:    -4.762     22.055     23.221
REMARK INTER + INTRA:          -5.453
REMARK INTER:                  -5.282
REMARK INTRA:                  -0.171
REMARK UNBOUND:                -0.135
REMARK  Name = 1550473
REMARK  2 active torsions:
REMARK  status: ('A' for Active; 'I' for Inactive)
REMARK    1  A    between atoms: N_1  and  C_4
REMARK    2  A    between atoms: C_4  and  C_5
REMARK                            x       y       z     vdW  Elec       q    Type
REMARK                         _______ _______ _______ _____ _____    ______ ____
ROOT
ATOM      1  N   UNL     1     -11.658 -13.419  -5.195  0.00  0.00    -0.354 N 
ATOM      2  N   UNL     1     -13.066 -14.936  -4.156  0.00  0.00    -0.372 N 
ATOM      3  N   UNL     1     -13.918 -12.916  -4.834  0.00  0.00    -0.372 N 
ATOM      4  C   UNL     1     -12.873 -13.745  -4.736  0.00  0.00    +0.166 C 
ATOM      5  H   UNL     1     -10.900 -14.080  -5.063  0.00  0.00    +0.163 HD
ATOM      6  H   UNL     1     -13.973 -15.211  -3.803  0.00  0.00    +0.159 HD
ATOM      7  H   UNL     1     -12.318 -15.613  -4.067  0.00  0.00    +0.159 HD
ATOM      8  H   UNL     1     -13.837 -12.000  -5.255  0.00  0.00    +0.159 HD
ATOM      9  H   UNL     1     -14.831 -13.168  -4.476  0.00  0.00    +0.159 HD
ENDROOT
BRANCH   1  10
ATOM     10  C   UNL     1     -11.354 -12.169  -5.890  0.00  0.00    +0.151 C 
BRANCH  10  11
ATOM     11  C   UNL     1     -10.598 -11.261  -4.960  0.00  0.00    -0.028 A 
ATOM     12  C   UNL     1     -11.085  -9.980  -4.663  0.00  0.00    +0.005 A 
ATOM     13  C   UNL     1      -9.397 -11.679  -4.366  0.00  0.00    +0.005 A 
ATOM     14  C   UNL     1     -10.398  -9.148  -3.776  0.00  0.00    +0.000 A 
ATOM     15  C   UNL     1      -8.714 -10.845  -3.482  0.00  0.00    +0.000 A 
ATOM     16  C   UNL     1      -9.216  -9.580  -3.185  0.00  0.00    +0.000 A 
ENDBRANCH  10  11
ENDBRANCH   1  10
TORSDOF 2
ENDMDL
MODEL 6
REMARK VINA RESULT:    -4.661     19.890     21.068
REMARK INTER + INTRA:          -5.341
REMARK INTER:                  -5.187
REMARK INTRA:                  -0.154
REMARK UNBOUND:                -0.135
REMARK  Name = 1550473
REMARK  2 active torsions:
REMARK  status: ('A' for Active; 'I' for Inactive)
REMARK    1  A    between atoms: N_1  and  C_4
REMARK    2  A    between atoms: C_4  and  C_5
REMARK                            x       y       z     vdW  Elec       q    Type
REMARK                         _______ _______ _______ _____ _____    ______ ____
ROOT
ATOM      1  N   UNL     1      -7.564 -14.152  -3.870  0.00  0.00    -0.354 N 
ATOM      2  N   UNL     1      -5.647 -15.140  -4.715  0.00  0.00    -0.372 N 
ATOM      3  N   UNL     1      -5.445 -13.257  -3.420  0.00  0.00    -0.372 N 
ATOM      4  C   UNL     1      -6.230 -14.174  -3.995  0.00  0.00    +0.166 C 
ATOM      5  H   UNL     1      -8.104 -14.858  -4.356  0.00  0.00    +0.163 HD
ATOM      6  H   UNL     1      -4.643 -15.184  -4.825  0.00  0.00    +0.159 HD
ATOM      7  H   UNL     1      -6.187 -15.871  -5.162  0.00  0.00    +0.159 HD
ATOM      8  H   UNL     1      -5.823 -12.499  -2.868  0.00  0.00    +0.159 HD
ATOM      9  H   UNL     1      -4.439 -13.278  -3.527  0.00  0.00    +0.159 HD
ENDROOT
BRANCH   1  10
ATOM     10  C   UNL     1      -8.293 -13.175  -3.064  0.00  0.00    +0.151 C 
BRANCH  10  11
ATOM     11  C   UNL     1      -9.091 -12.284  -3.975  0.00  0.00    -0.028 A 
ATOM     12  C   UNL     1      -8.965 -10.889  -3.897  0.00  0.00    +0.005 A 
ATOM     13  C   UNL     1      -9.971 -12.828  -4.924  0.00  0.00    +0.005 A 
ATOM     14  C   UNL     1      -9.684 -10.062  -4.763  0.00  0.00    +0.000 A 
ATOM     15  C   UNL     1     -10.687 -11.999  -5.787  0.00  0.00    +0.000 A 
ATOM     16  C   UNL     1     -10.541 -10.616  -5.708  0.00  0.00    +0.000 A 
ENDBRANCH  10  11
ENDBRANCH   1  10
TORSDOF 2
ENDMDL
MODEL 7
REMARK VINA RESULT:    -4.606     13.772     15.166
REMARK INTER + INTRA:          -5.279
REMARK INTER:                  -5.159
REMARK INTRA:                  -0.120
REMARK UNBOUND:                -0.135
REMARK  Name = 1550473
REMARK  2 active torsions:
REMARK  status: ('A' for Active; 'I' for Inactive)
REMARK    1  A    between atoms: N_1  and  C_4
REMARK    2  A    between atoms: C_4  and  C_5
REMARK                            x       y       z     vdW  Elec       q    Type
REMARK                         _______ _______ _______ _____ _____    ______ ____
ROOT
ATOM      1  N   UNL     1      13.593  -0.696 -12.891  0.00  0.00    -0.354 N 
ATOM      2  N   UNL     1      13.092  -0.914 -15.142  0.00  0.00    -0.372 N 
ATOM      3  N   UNL     1      15.185  -1.505 -14.409  0.00  0.00    -0.372 N 
ATOM      4  C   UNL     1      13.963  -1.038 -14.133  0.00  0.00    +0.166 C 
ATOM      5  H   UNL     1      12.663  -0.320 -12.752  0.00  0.00    +0.163 HD
ATOM      6  H   UNL     1      13.341  -1.168 -16.089  0.00  0.00    +0.159 HD
ATOM      7  H   UNL     1      12.147  -0.582 -14.993  0.00  0.00    +0.159 HD
ATOM      8  H   UNL     1      15.890  -1.616 -13.693  0.00  0.00    +0.159 HD
ATOM      9  H   UNL     1      15.457  -1.753 -15.352  0.00  0.00    +0.159 HD
ENDROOT
BRANCH   1  10
ATOM     10  C   UNL     1      14.448  -0.843 -11.714  0.00  0.00    +0.151 C 
BRANCH  10  11
ATOM     11  C   UNL     1      13.855  -0.058 -10.576  0.00  0.00    -0.028 A 
ATOM     12  C   UNL     1      14.653   0.338  -9.493  0.00  0.00    +0.005 A 
ATOM     13  C   UNL     1      12.498   0.296 -10.578  0.00  0.00    +0.005 A 
ATOM     14  C   UNL     1      14.110   1.093  -8.450  0.00  0.00    +0.000 A 
ATOM     15  C   UNL     1      11.959   1.049  -9.534  0.00  0.00    +0.000 A 
ATOM     16  C   UNL     1      12.766   1.449  -8.472  0.00  0.00    +0.000 A 
ENDBRANCH  10  11
ENDBRANCH   1  10
TORSDOF 2
ENDMDL
MODEL 8
REMARK VINA RESULT:    -4.593     21.444     22.667
REMARK INTER + INTRA:          -5.264
REMARK INTER:                  -5.128
REMARK INTRA:                  -0.136
REMARK UNBOUND:                -0.135
REMARK  Name = 1550473
REMARK  2 active torsions:
REMARK  status: ('A' for Active; 'I' for Inactive)
REMARK    1  A    between atoms: N_1  and  C_4
REMARK    2  A    between atoms: C_4  and  C_5
REMARK                            x       y       z     vdW  Elec       q    Type
REMARK                         _______ _______ _______ _____ _____    ______ ____
ROOT
ATOM      1  N   UNL     1     -11.584 -11.718  -6.370  0.00  0.00    -0.354 N 
ATOM      2  N   UNL     1     -13.149 -11.743  -8.077  0.00  0.00    -0.372 N 
ATOM      3  N   UNL     1     -10.920 -11.847  -8.614  0.00  0.00    -0.372 N 
ATOM      4  C   UNL     1     -11.872 -11.769  -7.677  0.00  0.00    +0.166 C 
ATOM      5  H   UNL     1     -12.349 -11.630  -5.712  0.00  0.00    +0.163 HD
ATOM      6  H   UNL     1     -13.397 -11.783  -9.057  0.00  0.00    +0.159 HD
ATOM      7  H   UNL     1     -13.914 -11.700  -7.415  0.00  0.00    +0.159 HD
ATOM      8  H   UNL     1      -9.937 -11.864  -8.378  0.00  0.00    +0.159 HD
ATOM      9  H   UNL     1     -11.148 -11.876  -9.600  0.00  0.00    +0.159 HD
ENDROOT
BRANCH   1  10
ATOM     10  C   UNL     1     -10.228 -11.795  -5.828  0.00  0.00    +0.151 C 
BRANCH  10  11
ATOM     11  C   UNL     1      -9.931 -10.532  -5.068  0.00  0.00    -0.028 A 
ATOM     12  C   UNL     1      -9.350 -10.588  -3.793  0.00  0.00    +0.005 A 
ATOM     13  C   UNL     1     -10.224  -9.275  -5.620  0.00  0.00    +0.005 A 
ATOM     14  C   UNL     1      -9.046  -9.414  -3.099  0.00  0.00    +0.000 A 
ATOM     15  C   UNL     1      -9.919  -8.105  -4.924  0.00  0.00    +0.000 A 
ATOM     16  C   UNL     1      -9.329  -8.175  -3.665  0.00  0.00    +0.000 A 
ENDBRANCH  10  11
ENDBRANCH   1  10
TORSDOF 2
ENDMDL
MODEL 9
REMARK VINA RESULT:    -4.583      2.205      3.351
REMARK INTER + INTRA:          -5.254
REMARK INTER:                  -5.073
REMARK INTRA:                  -0.181
REMARK UNBOUND:                -0.135
REMARK  Name = 1550473
REMARK  2 active torsions:
REMARK  status: ('A' for Active; 'I' for Inactive)
REMARK    1  A    between atoms: N_1  and  C_4
REMARK    2  A    between atoms: C_4  and  C_5
REMARK                            x       y       z     vdW  Elec       q    Type
REMARK                         _______ _______ _______ _____ _____    ______ ____
ROOT
ATOM      1  N   UNL     1      11.108  -4.618   3.414  0.00  0.00    -0.354 N 
ATOM      2  N   UNL     1      12.851  -3.150   3.001  0.00  0.00    -0.372 N 
ATOM      3  N   UNL     1      12.631  -5.011   1.677  0.00  0.00    -0.372 N 
ATOM      4  C   UNL     1      12.186  -4.271   2.698  0.00  0.00    +0.166 C 
ATOM      5  H   UNL     1      10.840  -4.030   4.195  0.00  0.00    +0.163 HD
ATOM      6  H   UNL     1      13.666  -2.861   2.476  0.00  0.00    +0.159 HD
ATOM      7  H   UNL     1      12.554  -2.541   3.753  0.00  0.00    +0.159 HD
ATOM      8  H   UNL     1      12.177  -5.872   1.401  0.00  0.00    +0.159 HD
ATOM      9  H   UNL     1      13.451  -4.745   1.147  0.00  0.00    +0.159 HD
ENDROOT
BRANCH   1  10
ATOM     10  C   UNL     1      10.282  -5.790   3.133  0.00  0.00    +0.151 C 
BRANCH  10  11
ATOM     11  C   UNL     1       9.088  -5.367   2.323  0.00  0.00    -0.028 A 
ATOM     12  C   UNL     1       8.209  -4.387   2.808  0.00  0.00    +0.005 A 
ATOM     13  C   UNL     1       8.833  -5.937   1.066  0.00  0.00    +0.005 A 
ATOM     14  C   UNL     1       7.117  -3.972   2.042  0.00  0.00    +0.000 A 
ATOM     15  C   UNL     1       7.740  -5.521   0.305  0.00  0.00    +0.000 A 
ATOM     16  C   UNL     1       6.884  -4.536   0.793  0.00  0.00    +0.000 A 
ENDBRANCH  10  11
ENDBRANCH   1  10
TORSDOF 2
ENDMDL
