MODEL 1
REMARK VINA RESULT:    -6.148      0.000      0.000
REMARK INTER + INTRA:          -7.041
REMARK INTER:                  -6.866
REMARK INTRA:                  -0.174
REMARK UNBOUND:                -0.174
REMARK  Name = 1550473
REMARK  2 active torsions:
REMARK  status: ('A' for Active; 'I' for Inactive)
REMARK    1  A    between atoms: N_1  and  C_4
REMARK    2  A    between atoms: C_4  and  C_5
REMARK                            x       y       z     vdW  Elec       q    Type
REMARK                         _______ _______ _______ _____ _____    ______ ____
ROOT
ATOM      1  N   UNL     1       3.576  -1.072  -3.929  0.00  0.00    -0.354 N 
ATOM      2  N   UNL     1       5.668  -0.121  -4.219  0.00  0.00    -0.372 N 
ATOM      3  N   UNL     1       4.606   0.128  -2.200  0.00  0.00    -0.372 N 
ATOM      4  C   UNL     1       4.602  -0.361  -3.444  0.00  0.00    +0.166 C 
ATOM      5  H   UNL     1       3.621  -1.389  -4.890  0.00  0.00    +0.163 HD
ATOM      6  H   UNL     1       6.459   0.410  -3.880  0.00  0.00    +0.159 HD
ATOM      7  H   UNL     1       5.730  -0.478  -5.164  0.00  0.00    +0.159 HD
ATOM      8  H   UNL     1       3.830  -0.013  -1.567  0.00  0.00    +0.159 HD
ATOM      9  H   UNL     1       5.384   0.672  -1.846  0.00  0.00    +0.159 HD
ENDROOT
BRANCH   1  10
ATOM     10  C   UNL     1       2.393  -1.434  -3.150  0.00  0.00    +0.151 C 
BRANCH  10  11
ATOM     11  C   UNL     1       2.604  -2.792  -2.538  0.00  0.00    -0.028 A 
ATOM     12  C   UNL     1       2.525  -2.966  -1.149  0.00  0.00    +0.005 A 
ATOM     13  C   UNL     1       2.877  -3.909  -3.343  0.00  0.00    +0.005 A 
ATOM     14  C   UNL     1       2.691  -4.232  -0.582  0.00  0.00    +0.000 A 
ATOM     15  C   UNL     1       3.043  -5.171  -2.773  0.00  0.00    +0.000 A 
ATOM     16  C   UNL     1       2.947  -5.333  -1.393  0.00  0.00    +0.000 A 
ENDBRANCH  10  11
ENDBRANCH   1  10
TORSDOF 2
ENDMDL
MODEL 2
REMARK VINA RESULT:    -5.701     14.665     16.061
REMARK INTER + INTRA:          -6.542
REMARK INTER:                  -6.429
REMARK INTRA:                  -0.113
REMARK UNBOUND:                -0.174
REMARK  Name = 1550473
REMARK  2 active torsions:
REMARK  status: ('A' for Active; 'I' for Inactive)
REMARK    1  A    between atoms: N_1  and  C_4
REMARK    2  A    between atoms: C_4  and  C_5
REMARK                            x       y       z     vdW  Elec       q    Type
REMARK                         _______ _______ _______ _____ _____    ______ ____
ROOT
ATOM      1  N   UNL     1       0.487   2.849  12.828  0.00  0.00    -0.354 N 
ATOM      2  N   UNL     1       2.587   1.874  12.767  0.00  0.00    -0.372 N 
ATOM      3  N   UNL     1       0.737   0.519  12.864  0.00  0.00    -0.372 N 
ATOM      4  C   UNL     1       1.255   1.751  12.821  0.00  0.00    +0.166 C 
ATOM      5  H   UNL     1       0.941   3.755  12.825  0.00  0.00    +0.163 HD
ATOM      6  H   UNL     1       3.192   1.064  12.757  0.00  0.00    +0.159 HD
ATOM      7  H   UNL     1       3.037   2.780  12.717  0.00  0.00    +0.159 HD
ATOM      8  H   UNL     1      -0.260   0.359  12.911  0.00  0.00    +0.159 HD
ATOM      9  H   UNL     1       1.327  -0.304  12.866  0.00  0.00    +0.159 HD
ENDROOT
BRANCH   1  10
ATOM     10  C   UNL     1      -0.975   2.824  12.831  0.00  0.00    +0.151 C 
BRANCH  10  11
ATOM     11  C   UNL     1      -1.476   3.259  11.481  0.00  0.00    -0.028 A 
ATOM     12  C   UNL     1      -1.142   2.532  10.329  0.00  0.00    +0.005 A 
ATOM     13  C   UNL     1      -2.289   4.395  11.348  0.00  0.00    +0.005 A 
ATOM     14  C   UNL     1      -1.632   2.919   9.079  0.00  0.00    +0.000 A 
ATOM     15  C   UNL     1      -2.775   4.778  10.099  0.00  0.00    +0.000 A 
ATOM     16  C   UNL     1      -2.448   4.039   8.965  0.00  0.00    +0.000 A 
ENDBRANCH  10  11
ENDBRANCH   1  10
TORSDOF 2
ENDMDL
MODEL 3
REMARK VINA RESULT:    -5.685      8.823      9.974
REMARK INTER + INTRA:          -6.524
REMARK INTER:                  -6.366
REMARK INTRA:                  -0.158
REMARK UNBOUND:                -0.174
REMARK  Name = 1550473
REMARK  2 active torsions:
REMARK  status: ('A' for Active; 'I' for Inactive)
REMARK    1  A    between atoms: N_1  and  C_4
REMARK    2  A    between atoms: C_4  and  C_5
REMARK                            x       y       z     vdW  Elec       q    Type
REMARK                         _______ _______ _______ _____ _____    ______ ____
ROOT
ATOM      1  N   UNL     1      -4.193  -0.393  -6.670  0.00  0.00    -0.354 N 
ATOM      2  N   UNL     1      -3.428  -0.663  -8.840  0.00  0.00    -0.372 N 
ATOM      3  N   UNL     1      -5.537   0.178  -8.504  0.00  0.00    -0.372 N 
ATOM      4  C   UNL     1      -4.394  -0.290  -7.991  0.00  0.00    +0.166 C 
ATOM      5  H   UNL     1      -3.316  -0.784  -6.346  0.00  0.00    +0.163 HD
ATOM      6  H   UNL     1      -3.550  -0.594  -9.841  0.00  0.00    +0.159 HD
ATOM      7  H   UNL     1      -2.535  -1.011  -8.512  0.00  0.00    +0.159 HD
ATOM      8  H   UNL     1      -6.307   0.471  -7.917  0.00  0.00    +0.159 HD
ATOM      9  H   UNL     1      -5.681   0.244  -9.503  0.00  0.00    +0.159 HD
ENDROOT
BRANCH   1  10
ATOM     10  C   UNL     1      -5.159   0.036  -5.661  0.00  0.00    +0.151 C 
BRANCH  10  11
ATOM     11  C   UNL     1      -4.669   1.305  -5.020  0.00  0.00    -0.028 A 
ATOM     12  C   UNL     1      -5.579   2.242  -4.508  0.00  0.00    +0.005 A 
ATOM     13  C   UNL     1      -3.296   1.575  -4.916  0.00  0.00    +0.005 A 
ATOM     14  C   UNL     1      -5.124   3.407  -3.886  0.00  0.00    +0.000 A 
ATOM     15  C   UNL     1      -2.845   2.739  -4.295  0.00  0.00    +0.000 A 
ATOM     16  C   UNL     1      -3.760   3.654  -3.777  0.00  0.00    +0.000 A 
ENDBRANCH  10  11
ENDBRANCH   1  10
TORSDOF 2
ENDMDL
MODEL 4
REMARK VINA RESULT:    -5.583     16.330     17.700
REMARK INTER + INTRA:          -6.410
REMARK INTER:                  -6.278
REMARK INTRA:                  -0.133
REMARK UNBOUND:                -0.174
REMARK  Name = 1550473
REMARK  2 active torsions:
REMARK  status: ('A' for Active; 'I' for Inactive)
REMARK    1  A    between atoms: N_1  and  C_4
REMARK    2  A    between atoms: C_4  and  C_5
REMARK                            x       y       z     vdW  Elec       q    Type
REMARK                         _______ _______ _______ _____ _____    ______ ____
ROOT
ATOM      1  N   UNL     1       1.035   3.035  12.156  0.00  0.00    -0.354 N 
ATOM      2  N   UNL     1       2.908   1.891  12.898  0.00  0.00    -0.372 N 
ATOM      3  N   UNL     1       0.909   0.772  12.753  0.00  0.00    -0.372 N 
ATOM      4  C   UNL     1       1.603   1.905  12.598  0.00  0.00    +0.166 C 
ATOM      5  H   UNL     1       1.609   3.868  12.089  0.00  0.00    +0.163 HD
ATOM      6  H   UNL     1       3.364   1.052  13.230  0.00  0.00    +0.159 HD
ATOM      7  H   UNL     1       3.489   2.713  12.786  0.00  0.00    +0.159 HD
ATOM      8  H   UNL     1      -0.080   0.718  12.550  0.00  0.00    +0.159 HD
ATOM      9  H   UNL     1       1.346  -0.074  13.096  0.00  0.00    +0.159 HD
ENDROOT
BRANCH   1  10
ATOM     10  C   UNL     1      -0.365   3.142  11.751  0.00  0.00    +0.151 C 
BRANCH  10  11
ATOM     11  C   UNL     1      -1.120   3.918  12.795  0.00  0.00    -0.028 A 
ATOM     12  C   UNL     1      -2.523   3.936  12.794  0.00  0.00    +0.005 A 
ATOM     13  C   UNL     1      -0.439   4.634  13.792  0.00  0.00    +0.005 A 
ATOM     14  C   UNL     1      -3.225   4.632  13.781  0.00  0.00    +0.000 A 
ATOM     15  C   UNL     1      -1.143   5.328  14.775  0.00  0.00    +0.000 A 
ATOM     16  C   UNL     1      -2.536   5.325  14.771  0.00  0.00    +0.000 A 
ENDBRANCH  10  11
ENDBRANCH   1  10
TORSDOF 2
ENDMDL
MODEL 5
REMARK VINA RESULT:    -5.407     12.058     13.521
REMARK INTER + INTRA:          -6.213
REMARK INTER:                  -6.041
REMARK INTRA:                  -0.172
REMARK UNBOUND:                -0.174
REMARK  Name = 1550473
REMARK  2 active torsions:
REMARK  status: ('A' for Active; 'I' for Inactive)
REMARK    1  A    between atoms: N_1  and  C_4
REMARK    2  A    between atoms: C_4  and  C_5
REMARK                            x       y       z     vdW  Elec       q    Type
REMARK                         _______ _______ _______ _____ _____    ______ ____
ROOT
ATOM      1  N   UNL     1      -6.487   4.244  -2.425  0.00  0.00    -0.354 N 
ATOM      2  N   UNL     1      -5.640   2.620  -1.006  0.00  0.00    -0.372 N 
ATOM      3  N   UNL     1      -5.510   2.290  -3.273  0.00  0.00    -0.372 N 
ATOM      4  C   UNL     1      -5.884   3.061  -2.247  0.00  0.00    +0.166 C 
ATOM      5  H   UNL     1      -6.773   4.767  -1.605  0.00  0.00    +0.163 HD
ATOM      6  H   UNL     1      -5.184   1.733  -0.841  0.00  0.00    +0.159 HD
ATOM      7  H   UNL     1      -5.886   3.166  -0.189  0.00  0.00    +0.159 HD
ATOM      8  H   UNL     1      -5.671   2.562  -4.234  0.00  0.00    +0.159 HD
ATOM      9  H   UNL     1      -5.063   1.393  -3.128  0.00  0.00    +0.159 HD
ENDROOT
BRANCH   1  10
ATOM     10  C   UNL     1      -6.749   4.839  -3.734  0.00  0.00    +0.151 C 
BRANCH  10  11
ATOM     11  C   UNL     1      -8.149   4.492  -4.159  0.00  0.00    -0.028 A 
ATOM     12  C   UNL     1      -8.379   3.806  -5.361  0.00  0.00    +0.005 A 
ATOM     13  C   UNL     1      -9.250   4.841  -3.362  0.00  0.00    +0.005 A 
ATOM     14  C   UNL     1      -9.677   3.457  -5.741  0.00  0.00    +0.000 A 
ATOM     15  C   UNL     1     -10.545   4.492  -3.746  0.00  0.00    +0.000 A 
ATOM     16  C   UNL     1     -10.758   3.798  -4.934  0.00  0.00    +0.000 A 
ENDBRANCH  10  11
ENDBRANCH   1  10
TORSDOF 2
ENDMDL
MODEL 6
REMARK VINA RESULT:    -5.234      7.618      9.227
REMARK INTER + INTRA:          -6.020
REMARK INTER:                  -5.908
REMARK INTRA:                  -0.112
REMARK UNBOUND:                -0.174
REMARK  Name = 1550473
REMARK  2 active torsions:
REMARK  status: ('A' for Active; 'I' for Inactive)
REMARK    1  A    between atoms: N_1  and  C_4
REMARK    2  A    between atoms: C_4  and  C_5
REMARK                            x       y       z     vdW  Elec       q    Type
REMARK                         _______ _______ _______ _____ _____    ______ ____
ROOT
ATOM      1  N   UNL     1      -2.962   0.268  -6.946  0.00  0.00    -0.354 N 
ATOM      2  N   UNL     1      -2.967  -0.797  -9.002  0.00  0.00    -0.372 N 
ATOM      3  N   UNL     1      -0.979  -0.559  -7.881  0.00  0.00    -0.372 N 
ATOM      4  C   UNL     1      -2.300  -0.356  -7.929  0.00  0.00    +0.166 C 
ATOM      5  H   UNL     1      -3.958   0.418  -7.056  0.00  0.00    +0.163 HD
ATOM      6  H   UNL     1      -2.495  -1.274  -9.759  0.00  0.00    +0.159 HD
ATOM      7  H   UNL     1      -3.970  -0.686  -9.089  0.00  0.00    +0.159 HD
ATOM      8  H   UNL     1      -0.417  -0.245  -7.102  0.00  0.00    +0.159 HD
ATOM      9  H   UNL     1      -0.487  -1.024  -8.634  0.00  0.00    +0.159 HD
ENDROOT
BRANCH   1  10
ATOM     10  C   UNL     1      -2.338   0.739  -5.710  0.00  0.00    +0.151 C 
BRANCH  10  11
ATOM     11  C   UNL     1      -3.277   1.687  -5.016  0.00  0.00    -0.028 A 
ATOM     12  C   UNL     1      -4.660   1.452  -5.024  0.00  0.00    +0.005 A 
ATOM     13  C   UNL     1      -2.789   2.818  -4.344  0.00  0.00    +0.005 A 
ATOM     14  C   UNL     1      -5.529   2.316  -4.354  0.00  0.00    +0.000 A 
ATOM     15  C   UNL     1      -3.661   3.678  -3.677  0.00  0.00    +0.000 A 
ATOM     16  C   UNL     1      -5.030   3.426  -3.680  0.00  0.00    +0.000 A 
ENDBRANCH  10  11
ENDBRANCH   1  10
TORSDOF 2
ENDMDL
MODEL 7
REMARK VINA RESULT:    -5.210     20.719     21.473
REMARK INTER + INTRA:          -5.993
REMARK INTER:                  -5.830
REMARK INTRA:                  -0.163
REMARK UNBOUND:                -0.174
REMARK  Name = 1550473
REMARK  2 active torsions:
REMARK  status: ('A' for Active; 'I' for Inactive)
REMARK    1  A    between atoms: N_1  and  C_4
REMARK    2  A    between atoms: C_4  and  C_5
REMARK                            x       y       z     vdW  Elec       q    Type
REMARK                         _______ _______ _______ _____ _____    ______ ____
ROOT
ATOM      1  N   UNL     1       5.995   4.624  17.514  0.00  0.00    -0.354 N 
ATOM      2  N   UNL     1       4.936   5.547  19.355  0.00  0.00    -0.372 N 
ATOM      3  N   UNL     1       4.085   3.626  18.434  0.00  0.00    -0.372 N 
ATOM      4  C   UNL     1       5.010   4.591  18.421  0.00  0.00    +0.166 C 
ATOM      5  H   UNL     1       6.648   5.399  17.539  0.00  0.00    +0.163 HD
ATOM      6  H   UNL     1       4.206   5.547  20.055  0.00  0.00    +0.159 HD
ATOM      7  H   UNL     1       5.617   6.296  19.406  0.00  0.00    +0.159 HD
ATOM      8  H   UNL     1       4.082   2.878  17.753  0.00  0.00    +0.159 HD
ATOM      9  H   UNL     1       3.340   3.614  19.119  0.00  0.00    +0.159 HD
ENDROOT
BRANCH   1  10
ATOM     10  C   UNL     1       6.197   3.601  16.489  0.00  0.00    +0.151 C 
BRANCH  10  11
ATOM     11  C   UNL     1       7.472   2.858  16.780  0.00  0.00    -0.028 A 
ATOM     12  C   UNL     1       7.444   1.642  17.479  0.00  0.00    +0.005 A 
ATOM     13  C   UNL     1       8.711   3.363  16.356  0.00  0.00    +0.005 A 
ATOM     14  C   UNL     1       8.625   0.937  17.724  0.00  0.00    +0.000 A 
ATOM     15  C   UNL     1       9.888   2.656  16.603  0.00  0.00    +0.000 A 
ATOM     16  C   UNL     1       9.844   1.443  17.285  0.00  0.00    +0.000 A 
ENDBRANCH  10  11
ENDBRANCH   1  10
TORSDOF 2
ENDMDL
MODEL 8
REMARK VINA RESULT:    -5.148      2.883      4.642
REMARK INTER + INTRA:          -5.924
REMARK INTER:                  -5.761
REMARK INTRA:                  -0.163
REMARK UNBOUND:                -0.174
REMARK  Name = 1550473
REMARK  2 active torsions:
REMARK  status: ('A' for Active; 'I' for Inactive)
REMARK    1  A    between atoms: N_1  and  C_4
REMARK    2  A    between atoms: C_4  and  C_5
REMARK                            x       y       z     vdW  Elec       q    Type
REMARK                         _______ _______ _______ _____ _____    ______ ____
ROOT
ATOM      1  N   UNL     1       1.299  -3.169  -3.834  0.00  0.00    -0.354 N 
ATOM      2  N   UNL     1       1.296  -4.508  -5.724  0.00  0.00    -0.372 N 
ATOM      3  N   UNL     1       2.932  -4.821  -4.145  0.00  0.00    -0.372 N 
ATOM      4  C   UNL     1       1.845  -4.158  -4.554  0.00  0.00    +0.166 C 
ATOM      5  H   UNL     1       0.494  -2.685  -4.214  0.00  0.00    +0.163 HD
ATOM      6  H   UNL     1       1.684  -5.253  -6.287  0.00  0.00    +0.159 HD
ATOM      7  H   UNL     1       0.464  -4.054  -6.079  0.00  0.00    +0.159 HD
ATOM      8  H   UNL     1       3.397  -4.601  -3.274  0.00  0.00    +0.159 HD
ATOM      9  H   UNL     1       3.341  -5.562  -4.700  0.00  0.00    +0.159 HD
ENDROOT
BRANCH   1  10
ATOM     10  C   UNL     1       1.788  -2.747  -2.523  0.00  0.00    +0.151 C 
BRANCH  10  11
ATOM     11  C   UNL     1       2.422  -1.389  -2.648  0.00  0.00    -0.028 A 
ATOM     12  C   UNL     1       1.650  -0.272  -3.002  0.00  0.00    +0.005 A 
ATOM     13  C   UNL     1       3.793  -1.211  -2.409  0.00  0.00    +0.005 A 
ATOM     14  C   UNL     1       2.233   0.994  -3.090  0.00  0.00    +0.000 A 
ATOM     15  C   UNL     1       4.371   0.055  -2.498  0.00  0.00    +0.000 A 
ATOM     16  C   UNL     1       3.590   1.158  -2.836  0.00  0.00    +0.000 A 
ENDBRANCH  10  11
ENDBRANCH   1  10
TORSDOF 2
ENDMDL
MODEL 9
REMARK VINA RESULT:    -5.061     12.388     13.698
REMARK INTER + INTRA:          -5.827
REMARK INTER:                  -5.707
REMARK INTRA:                  -0.120
REMARK UNBOUND:                -0.174
REMARK  Name = 1550473
REMARK  2 active torsions:
REMARK  status: ('A' for Active; 'I' for Inactive)
REMARK    1  A    between atoms: N_1  and  C_4
REMARK    2  A    between atoms: C_4  and  C_5
REMARK                            x       y       z     vdW  Elec       q    Type
REMARK                         _______ _______ _______ _____ _____    ______ ____
ROOT
ATOM      1  N   UNL     1      -6.882   5.622  -1.651  0.00  0.00    -0.354 N 
ATOM      2  N   UNL     1      -4.592   5.789  -1.347  0.00  0.00    -0.372 N 
ATOM      3  N   UNL     1      -5.729   4.098  -0.293  0.00  0.00    -0.372 N 
ATOM      4  C   UNL     1      -5.750   5.167  -1.097  0.00  0.00    +0.166 C 
ATOM      5  H   UNL     1      -6.835   6.454  -2.227  0.00  0.00    +0.163 HD
ATOM      6  H   UNL     1      -3.721   5.467  -0.947  0.00  0.00    +0.159 HD
ATOM      7  H   UNL     1      -4.541   6.594  -1.961  0.00  0.00    +0.159 HD
ATOM      8  H   UNL     1      -6.570   3.587  -0.060  0.00  0.00    +0.159 HD
ATOM      9  H   UNL     1      -4.870   3.767   0.127  0.00  0.00    +0.159 HD
ENDROOT
BRANCH   1  10
ATOM     10  C   UNL     1      -8.187   4.984  -1.485  0.00  0.00    +0.151 C 
BRANCH  10  11
ATOM     11  C   UNL     1      -8.716   4.589  -2.837  0.00  0.00    -0.028 A 
ATOM     12  C   UNL     1      -7.837   4.217  -3.864  0.00  0.00    +0.005 A 
ATOM     13  C   UNL     1     -10.095   4.580  -3.094  0.00  0.00    +0.005 A 
ATOM     14  C   UNL     1      -8.329   3.821  -5.110  0.00  0.00    +0.000 A 
ATOM     15  C   UNL     1     -10.582   4.185  -4.340  0.00  0.00    +0.000 A 
ATOM     16  C   UNL     1      -9.699   3.804  -5.347  0.00  0.00    +0.000 A 
ENDBRANCH  10  11
ENDBRANCH   1  10
TORSDOF 2
ENDMDL
