MODEL 1
REMARK VINA RESULT:    -6.675      0.000      0.000
REMARK INTER + INTRA:          -7.471
REMARK INTER:                  -7.455
REMARK INTRA:                  -0.016
REMARK UNBOUND:                -0.016
REMARK  Name = 1550473
REMARK  2 active torsions:
REMARK  status: ('A' for Active; 'I' for Inactive)
REMARK    1  A    between atoms: N_1  and  C_4
REMARK    2  A    between atoms: C_4  and  C_5
REMARK                            x       y       z     vdW  Elec       q    Type
REMARK                         _______ _______ _______ _____ _____    ______ ____
ROOT
ATOM      1  N   UNL     1       4.527  -2.820   5.077  0.00  0.00    -0.354 N 
ATOM      2  N   UNL     1       4.155  -1.397   6.866  0.00  0.00    -0.372 N 
ATOM      3  N   UNL     1       2.421  -2.686   6.095  0.00  0.00    -0.372 N 
ATOM      4  C   UNL     1       3.701  -2.311   6.001  0.00  0.00    +0.166 C 
ATOM      5  H   UNL     1       5.478  -2.473   5.038  0.00  0.00    +0.163 HD
ATOM      6  H   UNL     1       3.556  -0.998   7.576  0.00  0.00    +0.159 HD
ATOM      7  H   UNL     1       5.119  -1.085   6.854  0.00  0.00    +0.159 HD
ATOM      8  H   UNL     1       2.014  -3.368   5.468  0.00  0.00    +0.159 HD
ATOM      9  H   UNL     1       1.802  -2.289   6.791  0.00  0.00    +0.159 HD
ENDROOT
BRANCH   1  10
ATOM     10  C   UNL     1       4.146  -3.860   4.123  0.00  0.00    +0.151 C 
BRANCH  10  11
ATOM     11  C   UNL     1       3.876  -3.225   2.786  0.00  0.00    -0.028 A 
ATOM     12  C   UNL     1       4.566  -3.653   1.643  0.00  0.00    +0.005 A 
ATOM     13  C   UNL     1       2.928  -2.199   2.656  0.00  0.00    +0.005 A 
ATOM     14  C   UNL     1       4.294  -3.085   0.396  0.00  0.00    +0.000 A 
ATOM     15  C   UNL     1       2.661  -1.633   1.410  0.00  0.00    +0.000 A 
ATOM     16  C   UNL     1       3.342  -2.078   0.279  0.00  0.00    +0.000 A 
ENDBRANCH  10  11
ENDBRANCH   1  10
TORSDOF 2
ENDMDL
MODEL 2
REMARK VINA RESULT:    -6.453     17.638     18.217
REMARK INTER + INTRA:          -7.224
REMARK INTER:                  -7.175
REMARK INTRA:                  -0.049
REMARK UNBOUND:                -0.016
REMARK  Name = 1550473
REMARK  2 active torsions:
REMARK  status: ('A' for Active; 'I' for Inactive)
REMARK    1  A    between atoms: N_1  and  C_4
REMARK    2  A    between atoms: C_4  and  C_5
REMARK                            x       y       z     vdW  Elec       q    Type
REMARK                         _______ _______ _______ _____ _____    ______ ____
ROOT
ATOM      1  N   UNL     1       8.759  12.540   9.325  0.00  0.00    -0.354 N 
ATOM      2  N   UNL     1       9.973  12.687   7.358  0.00  0.00    -0.372 N 
ATOM      3  N   UNL     1      10.038  14.441   8.836  0.00  0.00    -0.372 N 
ATOM      4  C   UNL     1       9.583  13.224   8.520  0.00  0.00    +0.166 C 
ATOM      5  H   UNL     1       8.425  11.634   9.015  0.00  0.00    +0.163 HD
ATOM      6  H   UNL     1      10.596  13.178   6.732  0.00  0.00    +0.159 HD
ATOM      7  H   UNL     1       9.674  11.762   7.072  0.00  0.00    +0.159 HD
ATOM      8  H   UNL     1       9.777  14.904   9.696  0.00  0.00    +0.159 HD
ATOM      9  H   UNL     1      10.654  14.953   8.217  0.00  0.00    +0.159 HD
ENDROOT
BRANCH   1  10
ATOM     10  C   UNL     1       8.317  13.012  10.636  0.00  0.00    +0.151 C 
BRANCH  10  11
ATOM     11  C   UNL     1       6.881  13.447  10.543  0.00  0.00    -0.028 A 
ATOM     12  C   UNL     1       5.982  13.161  11.581  0.00  0.00    +0.005 A 
ATOM     13  C   UNL     1       6.413  14.150   9.422  0.00  0.00    +0.005 A 
ATOM     14  C   UNL     1       4.654  13.590  11.509  0.00  0.00    +0.000 A 
ATOM     15  C   UNL     1       5.087  14.576   9.354  0.00  0.00    +0.000 A 
ATOM     16  C   UNL     1       4.209  14.299  10.398  0.00  0.00    +0.000 A 
ENDBRANCH  10  11
ENDBRANCH   1  10
TORSDOF 2
ENDMDL
MODEL 3
REMARK VINA RESULT:    -6.259     17.157     18.067
REMARK INTER + INTRA:          -7.007
REMARK INTER:                  -6.867
REMARK INTRA:                  -0.140
REMARK UNBOUND:                -0.016
REMARK  Name = 1550473
REMARK  2 active torsions:
REMARK  status: ('A' for Active; 'I' for Inactive)
REMARK    1  A    between atoms: N_1  and  C_4
REMARK    2  A    between atoms: C_4  and  C_5
REMARK                            x       y       z     vdW  Elec       q    Type
REMARK                         _______ _______ _______ _____ _____    ______ ____
ROOT
ATOM      1  N   UNL     1       7.103  12.825   9.399  0.00  0.00    -0.354 N 
ATOM      2  N   UNL     1       9.012  11.533   9.631  0.00  0.00    -0.372 N 
ATOM      3  N   UNL     1       9.182  13.812   9.842  0.00  0.00    -0.372 N 
ATOM      4  C   UNL     1       8.421  12.735   9.623  0.00  0.00    +0.166 C 
ATOM      5  H   UNL     1       6.588  11.973   9.210  0.00  0.00    +0.163 HD
ATOM      6  H   UNL     1      10.004  11.434   9.801  0.00  0.00    +0.159 HD
ATOM      7  H   UNL     1       8.486  10.680   9.488  0.00  0.00    +0.159 HD
ATOM      8  H   UNL     1       8.799  14.748   9.842  0.00  0.00    +0.159 HD
ATOM      9  H   UNL     1      10.179  13.733  10.001  0.00  0.00    +0.159 HD
ENDROOT
BRANCH   1  10
ATOM     10  C   UNL     1       6.354  14.080   9.422  0.00  0.00    +0.151 C 
BRANCH  10  11
ATOM     11  C   UNL     1       5.100  13.889  10.229  0.00  0.00    -0.028 A 
ATOM     12  C   UNL     1       4.071  14.841  10.182  0.00  0.00    +0.005 A 
ATOM     13  C   UNL     1       4.931  12.755  11.038  0.00  0.00    +0.005 A 
ATOM     14  C   UNL     1       2.893  14.649  10.907  0.00  0.00    +0.000 A 
ATOM     15  C   UNL     1       3.753  12.567  11.761  0.00  0.00    +0.000 A 
ATOM     16  C   UNL     1       2.733  13.513  11.694  0.00  0.00    +0.000 A 
ENDBRANCH  10  11
ENDBRANCH   1  10
TORSDOF 2
ENDMDL
MODEL 4
REMARK VINA RESULT:    -5.890     18.746     19.831
REMARK INTER + INTRA:          -6.595
REMARK INTER:                  -6.424
REMARK INTRA:                  -0.171
REMARK UNBOUND:                -0.016
REMARK  Name = 1550473
REMARK  2 active torsions:
REMARK  status: ('A' for Active; 'I' for Inactive)
REMARK    1  A    between atoms: N_1  and  C_4
REMARK    2  A    between atoms: C_4  and  C_5
REMARK                            x       y       z     vdW  Elec       q    Type
REMARK                         _______ _______ _______ _____ _____    ______ ____
ROOT
ATOM      1  N   UNL     1       2.389  16.343  11.558  0.00  0.00    -0.354 N 
ATOM      2  N   UNL     1       2.272  18.594  12.091  0.00  0.00    -0.372 N 
ATOM      3  N   UNL     1       2.372  17.980   9.882  0.00  0.00    -0.372 N 
ATOM      4  C   UNL     1       2.346  17.625  11.171  0.00  0.00    +0.166 C 
ATOM      5  H   UNL     1       2.396  16.140  12.551  0.00  0.00    +0.163 HD
ATOM      6  H   UNL     1       2.235  19.570  11.828  0.00  0.00    +0.159 HD
ATOM      7  H   UNL     1       2.233  18.387  13.081  0.00  0.00    +0.159 HD
ATOM      8  H   UNL     1       2.433  17.297   9.139  0.00  0.00    +0.159 HD
ATOM      9  H   UNL     1       2.347  18.952   9.600  0.00  0.00    +0.159 HD
ENDROOT
BRANCH   1  10
ATOM     10  C   UNL     1       2.415  15.210  10.635  0.00  0.00    +0.151 C 
BRANCH  10  11
ATOM     11  C   UNL     1       3.783  14.585  10.663  0.00  0.00    -0.028 A 
ATOM     12  C   UNL     1       4.191  13.815  11.762  0.00  0.00    +0.005 A 
ATOM     13  C   UNL     1       4.673  14.754   9.591  0.00  0.00    +0.005 A 
ATOM     14  C   UNL     1       5.450  13.210  11.775  0.00  0.00    +0.000 A 
ATOM     15  C   UNL     1       5.929  14.148   9.609  0.00  0.00    +0.000 A 
ATOM     16  C   UNL     1       6.316  13.374  10.700  0.00  0.00    +0.000 A 
ENDBRANCH  10  11
ENDBRANCH   1  10
TORSDOF 2
ENDMDL
MODEL 5
REMARK VINA RESULT:    -5.435     24.795     26.613
REMARK INTER + INTRA:          -6.086
REMARK INTER:                  -5.945
REMARK INTRA:                  -0.141
REMARK UNBOUND:                -0.016
REMARK  Name = 1550473
REMARK  2 active torsions:
REMARK  status: ('A' for Active; 'I' for Inactive)
REMARK    1  A    between atoms: N_1  and  C_4
REMARK    2  A    between atoms: C_4  and  C_5
REMARK                            x       y       z     vdW  Elec       q    Type
REMARK                         _______ _______ _______ _____ _____    ______ ____
ROOT
ATOM      1  N   UNL     1       4.293   2.813 -23.805  0.00  0.00    -0.354 N 
ATOM      2  N   UNL     1       5.720   1.588 -25.156  0.00  0.00    -0.372 N 
ATOM      3  N   UNL     1       3.471   1.140 -25.225  0.00  0.00    -0.372 N 
ATOM      4  C   UNL     1       4.483   1.854 -24.720  0.00  0.00    +0.166 C 
ATOM      5  H   UNL     1       5.105   3.298 -23.440  0.00  0.00    +0.163 HD
ATOM      6  H   UNL     1       5.894   0.873 -25.849  0.00  0.00    +0.159 HD
ATOM      7  H   UNL     1       6.525   2.105 -24.824  0.00  0.00    +0.159 HD
ATOM      8  H   UNL     1       2.514   1.288 -24.933  0.00  0.00    +0.159 HD
ATOM      9  H   UNL     1       3.626   0.412 -25.910  0.00  0.00    +0.159 HD
ENDROOT
BRANCH   1  10
ATOM     10  C   UNL     1       2.981   3.217 -23.303  0.00  0.00    +0.151 C 
BRANCH  10  11
ATOM     11  C   UNL     1       3.029   3.288 -21.802  0.00  0.00    -0.028 A 
ATOM     12  C   UNL     1       3.527   2.211 -21.054  0.00  0.00    +0.005 A 
ATOM     13  C   UNL     1       2.584   4.431 -21.121  0.00  0.00    +0.005 A 
ATOM     14  C   UNL     1       3.600   2.287 -19.661  0.00  0.00    +0.000 A 
ATOM     15  C   UNL     1       2.657   4.504 -19.730  0.00  0.00    +0.000 A 
ATOM     16  C   UNL     1       3.167   3.433 -19.001  0.00  0.00    +0.000 A 
ENDBRANCH  10  11
ENDBRANCH   1  10
TORSDOF 2
ENDMDL
MODEL 6
REMARK VINA RESULT:    -5.401      3.275      4.690
REMARK INTER + INTRA:          -6.049
REMARK INTER:                  -5.905
REMARK INTRA:                  -0.143
REMARK UNBOUND:                -0.016
REMARK  Name = 1550473
REMARK  2 active torsions:
REMARK  status: ('A' for Active; 'I' for Inactive)
REMARK    1  A    between atoms: N_1  and  C_4
REMARK    2  A    between atoms: C_4  and  C_5
REMARK                            x       y       z     vdW  Elec       q    Type
REMARK                         _______ _______ _______ _____ _____    ______ ____
ROOT
ATOM      1  N   UNL     1       6.558  -4.546   1.535  0.00  0.00    -0.354 N 
ATOM      2  N   UNL     1       8.343  -4.944   0.113  0.00  0.00    -0.372 N 
ATOM      3  N   UNL     1       6.641  -6.480   0.213  0.00  0.00    -0.372 N 
ATOM      4  C   UNL     1       7.167  -5.323   0.629  0.00  0.00    +0.166 C 
ATOM      5  H   UNL     1       7.024  -3.696   1.831  0.00  0.00    +0.163 HD
ATOM      6  H   UNL     1       8.825  -5.508  -0.574  0.00  0.00    +0.159 HD
ATOM      7  H   UNL     1       8.784  -4.071   0.377  0.00  0.00    +0.159 HD
ATOM      8  H   UNL     1       5.759  -6.825   0.568  0.00  0.00    +0.159 HD
ATOM      9  H   UNL     1       7.114  -7.064  -0.465  0.00  0.00    +0.159 HD
ENDROOT
BRANCH   1  10
ATOM     10  C   UNL     1       5.250  -4.841   2.118  0.00  0.00    +0.151 C 
BRANCH  10  11
ATOM     11  C   UNL     1       4.336  -3.669   1.892  0.00  0.00    -0.028 A 
ATOM     12  C   UNL     1       3.631  -3.099   2.962  0.00  0.00    +0.005 A 
ATOM     13  C   UNL     1       4.174  -3.120   0.610  0.00  0.00    +0.005 A 
ATOM     14  C   UNL     1       2.805  -1.991   2.758  0.00  0.00    +0.000 A 
ATOM     15  C   UNL     1       3.347  -2.015   0.411  0.00  0.00    +0.000 A 
ATOM     16  C   UNL     1       2.665  -1.449   1.485  0.00  0.00    +0.000 A 
ENDBRANCH  10  11
ENDBRANCH   1  10
TORSDOF 2
ENDMDL
MODEL 7
REMARK VINA RESULT:    -5.299     19.636     20.880
REMARK INTER + INTRA:          -5.934
REMARK INTER:                  -5.824
REMARK INTRA:                  -0.110
REMARK UNBOUND:                -0.016
REMARK  Name = 1550473
REMARK  2 active torsions:
REMARK  status: ('A' for Active; 'I' for Inactive)
REMARK    1  A    between atoms: N_1  and  C_4
REMARK    2  A    between atoms: C_4  and  C_5
REMARK                            x       y       z     vdW  Elec       q    Type
REMARK                         _______ _______ _______ _____ _____    ______ ____
ROOT
ATOM      1  N   UNL     1     -14.965  -0.011  -3.036  0.00  0.00    -0.354 N 
ATOM      2  N   UNL     1     -14.398   2.235  -3.068  0.00  0.00    -0.372 N 
ATOM      3  N   UNL     1     -12.815   0.682  -3.659  0.00  0.00    -0.372 N 
ATOM      4  C   UNL     1     -14.061   0.953  -3.254  0.00  0.00    +0.166 C 
ATOM      5  H   UNL     1     -15.883   0.258  -2.701  0.00  0.00    +0.163 HD
ATOM      6  H   UNL     1     -13.737   2.984  -3.228  0.00  0.00    +0.159 HD
ATOM      7  H   UNL     1     -15.330   2.503  -2.777  0.00  0.00    +0.159 HD
ATOM      8  H   UNL     1     -12.496  -0.265  -3.812  0.00  0.00    +0.159 HD
ATOM      9  H   UNL     1     -12.136   1.417  -3.813  0.00  0.00    +0.159 HD
ENDROOT
BRANCH   1  10
ATOM     10  C   UNL     1     -14.716  -1.433  -3.261  0.00  0.00    +0.151 C 
BRANCH  10  11
ATOM     11  C   UNL     1     -15.608  -1.919  -4.370  0.00  0.00    -0.028 A 
ATOM     12  C   UNL     1     -16.247  -3.164  -4.276  0.00  0.00    +0.005 A 
ATOM     13  C   UNL     1     -15.822  -1.136  -5.515  0.00  0.00    +0.005 A 
ATOM     14  C   UNL     1     -17.099  -3.602  -5.293  0.00  0.00    +0.000 A 
ATOM     15  C   UNL     1     -16.673  -1.578  -6.528  0.00  0.00    +0.000 A 
ATOM     16  C   UNL     1     -17.313  -2.809  -6.415  0.00  0.00    +0.000 A 
ENDBRANCH  10  11
ENDBRANCH   1  10
TORSDOF 2
ENDMDL
MODEL 8
REMARK VINA RESULT:    -5.277     12.076     14.350
REMARK INTER + INTRA:          -5.910
REMARK INTER:                  -5.818
REMARK INTRA:                  -0.092
REMARK UNBOUND:                -0.016
REMARK  Name = 1550473
REMARK  2 active torsions:
REMARK  status: ('A' for Active; 'I' for Inactive)
REMARK    1  A    between atoms: N_1  and  C_4
REMARK    2  A    between atoms: C_4  and  C_5
REMARK                            x       y       z     vdW  Elec       q    Type
REMARK                         _______ _______ _______ _____ _____    ______ ____
ROOT
ATOM      1  N   UNL     1      11.596  -5.384  12.796  0.00  0.00    -0.354 N 
ATOM      2  N   UNL     1      11.140  -3.765  11.205  0.00  0.00    -0.372 N 
ATOM      3  N   UNL     1      13.293  -3.998  11.965  0.00  0.00    -0.372 N 
ATOM      4  C   UNL     1      12.015  -4.392  12.000  0.00  0.00    +0.166 C 
ATOM      5  H   UNL     1      10.609  -5.615  12.799  0.00  0.00    +0.163 HD
ATOM      6  H   UNL     1      11.428  -3.015  10.590  0.00  0.00    +0.159 HD
ATOM      7  H   UNL     1      10.163  -4.028  11.175  0.00  0.00    +0.159 HD
ATOM      8  H   UNL     1      14.001  -4.427  12.545  0.00  0.00    +0.159 HD
ATOM      9  H   UNL     1      13.598  -3.242  11.365  0.00  0.00    +0.159 HD
ENDROOT
BRANCH   1  10
ATOM     10  C   UNL     1      12.477  -6.167  13.660  0.00  0.00    +0.151 C 
BRANCH  10  11
ATOM     11  C   UNL     1      11.653  -7.162  14.430  0.00  0.00    -0.028 A 
ATOM     12  C   UNL     1      10.958  -6.770  15.583  0.00  0.00    +0.005 A 
ATOM     13  C   UNL     1      11.560  -8.497  14.009  0.00  0.00    +0.005 A 
ATOM     14  C   UNL     1      10.168  -7.687  16.282  0.00  0.00    +0.000 A 
ATOM     15  C   UNL     1      10.771  -9.410  14.709  0.00  0.00    +0.000 A 
ATOM     16  C   UNL     1      10.074  -9.003  15.844  0.00  0.00    +0.000 A 
ENDBRANCH  10  11
ENDBRANCH   1  10
TORSDOF 2
ENDMDL
MODEL 9
REMARK VINA RESULT:    -5.145      1.699      3.007
REMARK INTER + INTRA:          -5.762
REMARK INTER:                  -5.622
REMARK INTRA:                  -0.140
REMARK UNBOUND:                -0.016
REMARK  Name = 1550473
REMARK  2 active torsions:
REMARK  status: ('A' for Active; 'I' for Inactive)
REMARK    1  A    between atoms: N_1  and  C_4
REMARK    2  A    between atoms: C_4  and  C_5
REMARK                            x       y       z     vdW  Elec       q    Type
REMARK                         _______ _______ _______ _____ _____    ______ ____
ROOT
ATOM      1  N   UNL     1       4.110  -2.232   4.346  0.00  0.00    -0.354 N 
ATOM      2  N   UNL     1       3.817  -1.449   6.506  0.00  0.00    -0.372 N 
ATOM      3  N   UNL     1       5.635  -0.733   5.304  0.00  0.00    -0.372 N 
ATOM      4  C   UNL     1       4.525  -1.475   5.371  0.00  0.00    +0.166 C 
ATOM      5  H   UNL     1       3.277  -2.796   4.470  0.00  0.00    +0.163 HD
ATOM      6  H   UNL     1       4.103  -0.885   7.295  0.00  0.00    +0.159 HD
ATOM      7  H   UNL     1       2.959  -1.978   6.611  0.00  0.00    +0.159 HD
ATOM      8  H   UNL     1       6.217  -0.713   4.477  0.00  0.00    +0.159 HD
ATOM      9  H   UNL     1       5.945  -0.170   6.087  0.00  0.00    +0.159 HD
ENDROOT
BRANCH   1  10
ATOM     10  C   UNL     1       4.780  -2.289   3.048  0.00  0.00    +0.151 C 
BRANCH  10  11
ATOM     11  C   UNL     1       4.903  -3.726   2.621  0.00  0.00    -0.028 A 
ATOM     12  C   UNL     1       5.001  -4.747   3.578  0.00  0.00    +0.005 A 
ATOM     13  C   UNL     1       4.917  -4.074   1.262  0.00  0.00    +0.005 A 
ATOM     14  C   UNL     1       5.085  -6.084   3.183  0.00  0.00    +0.000 A 
ATOM     15  C   UNL     1       5.002  -5.410   0.871  0.00  0.00    +0.000 A 
ATOM     16  C   UNL     1       5.083  -6.415   1.832  0.00  0.00    +0.000 A 
ENDBRANCH  10  11
ENDBRANCH   1  10
TORSDOF 2
ENDMDL
