MODEL 1
REMARK VINA RESULT:    -4.669      0.000      0.000
REMARK INTER + INTRA:          -5.392
REMARK INTER:                  -5.215
REMARK INTRA:                  -0.177
REMARK UNBOUND:                -0.177
REMARK  Name = 1550473
REMARK  2 active torsions:
REMARK  status: ('A' for Active; 'I' for Inactive)
REMARK    1  A    between atoms: N_1  and  C_4
REMARK    2  A    between atoms: C_4  and  C_5
REMARK                            x       y       z     vdW  Elec       q    Type
REMARK                         _______ _______ _______ _____ _____    ______ ____
ROOT
ATOM      1  N   UNL     1       5.004  15.208  10.516  0.00  0.00    -0.354 N 
ATOM      2  N   UNL     1       5.211  17.018   9.085  0.00  0.00    -0.372 N 
ATOM      3  N   UNL     1       4.821  14.939   8.195  0.00  0.00    -0.372 N 
ATOM      4  C   UNL     1       5.010  15.708   9.273  0.00  0.00    +0.166 C 
ATOM      5  H   UNL     1       5.183  15.838  11.289  0.00  0.00    +0.163 HD
ATOM      6  H   UNL     1       5.218  17.424   8.159  0.00  0.00    +0.159 HD
ATOM      7  H   UNL     1       5.345  17.653   9.862  0.00  0.00    +0.159 HD
ATOM      8  H   UNL     1       4.670  13.942   8.268  0.00  0.00    +0.159 HD
ATOM      9  H   UNL     1       4.836  15.325   7.259  0.00  0.00    +0.159 HD
ENDROOT
BRANCH   1  10
ATOM     10  C   UNL     1       4.741  13.805  10.832  0.00  0.00    +0.151 C 
BRANCH  10  11
ATOM     11  C   UNL     1       6.031  13.139  11.221  0.00  0.00    -0.028 A 
ATOM     12  C   UNL     1       6.446  13.119  12.561  0.00  0.00    +0.005 A 
ATOM     13  C   UNL     1       6.842  12.522  10.256  0.00  0.00    +0.005 A 
ATOM     14  C   UNL     1       7.630  12.474  12.928  0.00  0.00    +0.000 A 
ATOM     15  C   UNL     1       8.024  11.880  10.626  0.00  0.00    +0.000 A 
ATOM     16  C   UNL     1       8.416  11.854  11.962  0.00  0.00    +0.000 A 
ENDBRANCH  10  11
ENDBRANCH   1  10
TORSDOF 2
ENDMDL
MODEL 2
REMARK VINA RESULT:    -4.083     37.482     38.568
REMARK INTER + INTRA:          -4.738
REMARK INTER:                  -4.594
REMARK INTRA:                  -0.144
REMARK UNBOUND:                -0.177
REMARK  Name = 1550473
REMARK  2 active torsions:
REMARK  status: ('A' for Active; 'I' for Inactive)
REMARK    1  A    between atoms: N_1  and  C_4
REMARK    2  A    between atoms: C_4  and  C_5
REMARK                            x       y       z     vdW  Elec       q    Type
REMARK                         _______ _______ _______ _____ _____    ______ ____
ROOT
ATOM      1  N   UNL     1      -3.200  -5.275 -22.489  0.00  0.00    -0.354 N 
ATOM      2  N   UNL     1      -5.205  -4.155 -22.191  0.00  0.00    -0.372 N 
ATOM      3  N   UNL     1      -3.305  -2.936 -22.605  0.00  0.00    -0.372 N 
ATOM      4  C   UNL     1      -3.889  -4.127 -22.431  0.00  0.00    +0.166 C 
ATOM      5  H   UNL     1      -3.695  -6.142 -22.318  0.00  0.00    +0.163 HD
ATOM      6  H   UNL     1      -5.752  -3.305 -22.145  0.00  0.00    +0.159 HD
ATOM      7  H   UNL     1      -5.706  -5.026 -22.066  0.00  0.00    +0.159 HD
ATOM      8  H   UNL     1      -2.314  -2.847 -22.784  0.00  0.00    +0.159 HD
ATOM      9  H   UNL     1      -3.834  -2.074 -22.551  0.00  0.00    +0.159 HD
ENDROOT
BRANCH   1  10
ATOM     10  C   UNL     1      -1.773  -5.357 -22.797  0.00  0.00    +0.151 C 
BRANCH  10  11
ATOM     11  C   UNL     1      -1.088  -6.172 -21.735  0.00  0.00    -0.028 A 
ATOM     12  C   UNL     1      -1.336  -5.925 -20.377  0.00  0.00    +0.005 A 
ATOM     13  C   UNL     1      -0.193  -7.197 -22.081  0.00  0.00    +0.005 A 
ATOM     14  C   UNL     1      -0.723  -6.702 -19.391  0.00  0.00    +0.000 A 
ATOM     15  C   UNL     1       0.418  -7.969 -21.093  0.00  0.00    +0.000 A 
ATOM     16  C   UNL     1       0.151  -7.723 -19.749  0.00  0.00    +0.000 A 
ENDBRANCH  10  11
ENDBRANCH   1  10
TORSDOF 2
ENDMDL
MODEL 3
REMARK VINA RESULT:    -4.003      1.910      2.687
REMARK INTER + INTRA:          -4.648
REMARK INTER:                  -4.523
REMARK INTRA:                  -0.124
REMARK UNBOUND:                -0.177
REMARK  Name = 1550473
REMARK  2 active torsions:
REMARK  status: ('A' for Active; 'I' for Inactive)
REMARK    1  A    between atoms: N_1  and  C_4
REMARK    2  A    between atoms: C_4  and  C_5
REMARK                            x       y       z     vdW  Elec       q    Type
REMARK                         _______ _______ _______ _____ _____    ______ ____
ROOT
ATOM      1  N   UNL     1       6.812  12.812   9.990  0.00  0.00    -0.354 N 
ATOM      2  N   UNL     1       5.894  12.116   7.980  0.00  0.00    -0.372 N 
ATOM      3  N   UNL     1       4.696  13.553   9.308  0.00  0.00    -0.372 N 
ATOM      4  C   UNL     1       5.804  12.833   9.107  0.00  0.00    +0.166 C 
ATOM      5  H   UNL     1       7.612  12.222   9.793  0.00  0.00    +0.163 HD
ATOM      6  H   UNL     1       5.152  12.115   7.294  0.00  0.00    +0.159 HD
ATOM      7  H   UNL     1       6.715  11.564   7.764  0.00  0.00    +0.159 HD
ATOM      8  H   UNL     1       4.563  14.112  10.141  0.00  0.00    +0.159 HD
ATOM      9  H   UNL     1       3.936  13.556   8.638  0.00  0.00    +0.159 HD
ENDROOT
BRANCH   1  10
ATOM     10  C   UNL     1       6.836  13.599  11.221  0.00  0.00    +0.151 C 
BRANCH  10  11
ATOM     11  C   UNL     1       7.516  12.802  12.300  0.00  0.00    -0.028 A 
ATOM     12  C   UNL     1       7.181  12.997  13.648  0.00  0.00    +0.005 A 
ATOM     13  C   UNL     1       8.493  11.846  11.980  0.00  0.00    +0.005 A 
ATOM     14  C   UNL     1       7.791  12.235  14.648  0.00  0.00    +0.000 A 
ATOM     15  C   UNL     1       9.100  11.089  12.982  0.00  0.00    +0.000 A 
ATOM     16  C   UNL     1       8.747  11.282  14.315  0.00  0.00    +0.000 A 
ENDBRANCH  10  11
ENDBRANCH   1  10
TORSDOF 2
ENDMDL
MODEL 4
REMARK VINA RESULT:    -3.930      4.338      5.925
REMARK INTER + INTRA:          -4.566
REMARK INTER:                  -4.450
REMARK INTRA:                  -0.116
REMARK UNBOUND:                -0.177
REMARK  Name = 1550473
REMARK  2 active torsions:
REMARK  status: ('A' for Active; 'I' for Inactive)
REMARK    1  A    between atoms: N_1  and  C_4
REMARK    2  A    between atoms: C_4  and  C_5
REMARK                            x       y       z     vdW  Elec       q    Type
REMARK                         _______ _______ _______ _____ _____    ______ ____
ROOT
ATOM      1  N   UNL     1       9.118  10.494  13.060  0.00  0.00    -0.354 N 
ATOM      2  N   UNL     1       9.635   9.191  14.904  0.00  0.00    -0.372 N 
ATOM      3  N   UNL     1      11.198  10.678  14.124  0.00  0.00    -0.372 N 
ATOM      4  C   UNL     1       9.983  10.131  14.017  0.00  0.00    +0.166 C 
ATOM      5  H   UNL     1       8.224  10.019  13.014  0.00  0.00    +0.163 HD
ATOM      6  H   UNL     1      10.265   8.899  15.639  0.00  0.00    +0.159 HD
ATOM      7  H   UNL     1       8.723   8.751  14.884  0.00  0.00    +0.159 HD
ATOM      8  H   UNL     1      11.524  11.389  13.482  0.00  0.00    +0.159 HD
ATOM      9  H   UNL     1      11.848  10.391  14.845  0.00  0.00    +0.159 HD
ENDROOT
BRANCH   1  10
ATOM     10  C   UNL     1       9.379  11.545  12.079  0.00  0.00    +0.151 C 
BRANCH  10  11
ATOM     11  C   UNL     1       8.074  12.177  11.677  0.00  0.00    -0.028 A 
ATOM     12  C   UNL     1       7.237  12.755  12.642  0.00  0.00    +0.005 A 
ATOM     13  C   UNL     1       7.673  12.204  10.333  0.00  0.00    +0.005 A 
ATOM     14  C   UNL     1       6.039  13.368  12.266  0.00  0.00    +0.000 A 
ATOM     15  C   UNL     1       6.476  12.817   9.961  0.00  0.00    +0.000 A 
ATOM     16  C   UNL     1       5.660  13.401  10.928  0.00  0.00    +0.000 A 
ENDBRANCH  10  11
ENDBRANCH   1  10
TORSDOF 2
ENDMDL
MODEL 5
REMARK VINA RESULT:    -3.920      4.720      5.928
REMARK INTER + INTRA:          -4.556
REMARK INTER:                  -4.427
REMARK INTRA:                  -0.129
REMARK UNBOUND:                -0.177
REMARK  Name = 1550473
REMARK  2 active torsions:
REMARK  status: ('A' for Active; 'I' for Inactive)
REMARK    1  A    between atoms: N_1  and  C_4
REMARK    2  A    between atoms: C_4  and  C_5
REMARK                            x       y       z     vdW  Elec       q    Type
REMARK                         _______ _______ _______ _____ _____    ______ ____
ROOT
ATOM      1  N   UNL     1      11.187  11.688  11.605  0.00  0.00    -0.354 N 
ATOM      2  N   UNL     1      13.041  10.512  12.343  0.00  0.00    -0.372 N 
ATOM      3  N   UNL     1      12.473  10.407  10.122  0.00  0.00    -0.372 N 
ATOM      4  C   UNL     1      12.222  10.876  11.349  0.00  0.00    +0.166 C 
ATOM      5  H   UNL     1      11.033  11.984  12.561  0.00  0.00    +0.163 HD
ATOM      6  H   UNL     1      13.832   9.904  12.180  0.00  0.00    +0.159 HD
ATOM      7  H   UNL     1      12.912  10.847  13.290  0.00  0.00    +0.159 HD
ATOM      8  H   UNL     1      11.889  10.639   9.330  0.00  0.00    +0.159 HD
ATOM      9  H   UNL     1      13.253   9.787   9.942  0.00  0.00    +0.159 HD
ENDROOT
BRANCH   1  10
ATOM     10  C   UNL     1      10.267  12.186  10.584  0.00  0.00    +0.151 C 
BRANCH  10  11
ATOM     11  C   UNL     1       8.926  12.443  11.214  0.00  0.00    -0.028 A 
ATOM     12  C   UNL     1       8.773  12.392  12.607  0.00  0.00    +0.005 A 
ATOM     13  C   UNL     1       7.806  12.744  10.424  0.00  0.00    +0.005 A 
ATOM     14  C   UNL     1       7.535  12.660  13.195  0.00  0.00    +0.000 A 
ATOM     15  C   UNL     1       6.571  13.011  11.015  0.00  0.00    +0.000 A 
ATOM     16  C   UNL     1       6.436  12.971  12.400  0.00  0.00    +0.000 A 
ENDBRANCH  10  11
ENDBRANCH   1  10
TORSDOF 2
ENDMDL
MODEL 6
REMARK VINA RESULT:    -3.886      3.551      5.106
REMARK INTER + INTRA:          -4.517
REMARK INTER:                  -4.371
REMARK INTRA:                  -0.146
REMARK UNBOUND:                -0.177
REMARK  Name = 1550473
REMARK  2 active torsions:
REMARK  status: ('A' for Active; 'I' for Inactive)
REMARK    1  A    between atoms: N_1  and  C_4
REMARK    2  A    between atoms: C_4  and  C_5
REMARK                            x       y       z     vdW  Elec       q    Type
REMARK                         _______ _______ _______ _____ _____    ______ ____
ROOT
ATOM      1  N   UNL     1       9.456  11.874  11.515  0.00  0.00    -0.354 N 
ATOM      2  N   UNL     1      11.701  12.219  11.063  0.00  0.00    -0.372 N 
ATOM      3  N   UNL     1      10.741  13.330  12.826  0.00  0.00    -0.372 N 
ATOM      4  C   UNL     1      10.617  12.474  11.806  0.00  0.00    +0.166 C 
ATOM      5  H   UNL     1       9.420  11.259  10.710  0.00  0.00    +0.163 HD
ATOM      6  H   UNL     1      12.592  12.654  11.261  0.00  0.00    +0.159 HD
ATOM      7  H   UNL     1      11.673  11.569  10.287  0.00  0.00    +0.159 HD
ATOM      8  H   UNL     1       9.960  13.570  13.422  0.00  0.00    +0.159 HD
ATOM      9  H   UNL     1      11.622  13.785  13.033  0.00  0.00    +0.159 HD
ENDROOT
BRANCH   1  10
ATOM     10  C   UNL     1       8.231  12.042  12.295  0.00  0.00    +0.151 C 
BRANCH  10  11
ATOM     11  C   UNL     1       7.154  12.598  11.404  0.00  0.00    -0.028 A 
ATOM     12  C   UNL     1       7.153  12.321  10.029  0.00  0.00    +0.005 A 
ATOM     13  C   UNL     1       6.127  13.397  11.930  0.00  0.00    +0.005 A 
ATOM     14  C   UNL     1       6.137  12.811   9.207  0.00  0.00    +0.000 A 
ATOM     15  C   UNL     1       5.114  13.886  11.105  0.00  0.00    +0.000 A 
ATOM     16  C   UNL     1       5.118  13.591   9.744  0.00  0.00    +0.000 A 
ENDBRANCH  10  11
ENDBRANCH   1  10
TORSDOF 2
ENDMDL
MODEL 7
REMARK VINA RESULT:    -3.509      4.918      6.682
REMARK INTER + INTRA:          -4.096
REMARK INTER:                  -3.958
REMARK INTRA:                  -0.138
REMARK UNBOUND:                -0.177
REMARK  Name = 1550473
REMARK  2 active torsions:
REMARK  status: ('A' for Active; 'I' for Inactive)
REMARK    1  A    between atoms: N_1  and  C_4
REMARK    2  A    between atoms: C_4  and  C_5
REMARK                            x       y       z     vdW  Elec       q    Type
REMARK                         _______ _______ _______ _____ _____    ______ ____
ROOT
ATOM      1  N   UNL     1       8.366  10.431  15.365  0.00  0.00    -0.354 N 
ATOM      2  N   UNL     1       8.216   8.298  16.254  0.00  0.00    -0.372 N 
ATOM      3  N   UNL     1      10.184   8.955  15.275  0.00  0.00    -0.372 N 
ATOM      4  C   UNL     1       8.926   9.242  15.624  0.00  0.00    +0.166 C 
ATOM      5  H   UNL     1       7.399  10.576  15.629  0.00  0.00    +0.163 HD
ATOM      6  H   UNL     1       8.612   7.392  16.467  0.00  0.00    +0.159 HD
ATOM      7  H   UNL     1       7.264   8.461  16.558  0.00  0.00    +0.159 HD
ATOM      8  H   UNL     1      10.771   9.622  14.792  0.00  0.00    +0.159 HD
ATOM      9  H   UNL     1      10.595   8.050  15.468  0.00  0.00    +0.159 HD
ENDROOT
BRANCH   1  10
ATOM     10  C   UNL     1       9.070  11.545  14.732  0.00  0.00    +0.151 C 
BRANCH  10  11
ATOM     11  C   UNL     1       8.318  11.965  13.500  0.00  0.00    -0.028 A 
ATOM     12  C   UNL     1       8.723  11.523  12.232  0.00  0.00    +0.005 A 
ATOM     13  C   UNL     1       7.194  12.801  13.594  0.00  0.00    +0.005 A 
ATOM     14  C   UNL     1       8.006  11.888  11.090  0.00  0.00    +0.000 A 
ATOM     15  C   UNL     1       6.482  13.165  12.451  0.00  0.00    +0.000 A 
ATOM     16  C   UNL     1       6.887  12.706  11.200  0.00  0.00    +0.000 A 
ENDBRANCH  10  11
ENDBRANCH   1  10
TORSDOF 2
ENDMDL
MODEL 8
REMARK VINA RESULT:    -3.473     57.103     57.850
REMARK INTER + INTRA:          -4.056
REMARK INTER:                  -3.882
REMARK INTRA:                  -0.175
REMARK UNBOUND:                -0.177
REMARK  Name = 1550473
REMARK  2 active torsions:
REMARK  status: ('A' for Active; 'I' for Inactive)
REMARK    1  A    between atoms: N_1  and  C_4
REMARK    2  A    between atoms: C_4  and  C_5
REMARK                            x       y       z     vdW  Elec       q    Type
REMARK                         _______ _______ _______ _____ _____    ______ ____
ROOT
ATOM      1  N   UNL     1      37.563  59.682  27.268  0.00  0.00    -0.354 N 
ATOM      2  N   UNL     1      37.605  60.934  25.320  0.00  0.00    -0.372 N 
ATOM      3  N   UNL     1      37.937  61.994  27.328  0.00  0.00    -0.372 N 
ATOM      4  C   UNL     1      37.702  60.864  26.653  0.00  0.00    +0.166 C 
ATOM      5  H   UNL     1      37.356  58.866  26.703  0.00  0.00    +0.163 HD
ATOM      6  H   UNL     1      37.708  61.811  24.828  0.00  0.00    +0.159 HD
ATOM      7  H   UNL     1      37.444  60.110  24.754  0.00  0.00    +0.159 HD
ATOM      8  H   UNL     1      38.015  62.010  28.336  0.00  0.00    +0.159 HD
ATOM      9  H   UNL     1      38.031  62.884  26.854  0.00  0.00    +0.159 HD
ENDROOT
BRANCH   1  10
ATOM     10  C   UNL     1      37.704  59.489  28.710  0.00  0.00    +0.151 C 
BRANCH  10  11
ATOM     11  C   UNL     1      36.345  59.257  29.310  0.00  0.00    -0.028 A 
ATOM     12  C   UNL     1      35.536  60.341  29.681  0.00  0.00    +0.005 A 
ATOM     13  C   UNL     1      35.857  57.955  29.504  0.00  0.00    +0.005 A 
ATOM     14  C   UNL     1      34.261  60.126  30.211  0.00  0.00    +0.000 A 
ATOM     15  C   UNL     1      34.584  57.745  30.034  0.00  0.00    +0.000 A 
ATOM     16  C   UNL     1      33.786  58.831  30.385  0.00  0.00    +0.000 A 
ENDBRANCH  10  11
ENDBRANCH   1  10
TORSDOF 2
ENDMDL
MODEL 9
REMARK VINA RESULT:    -3.371     18.521     19.917
REMARK INTER + INTRA:          -3.942
REMARK INTER:                  -3.827
REMARK INTRA:                  -0.115
REMARK UNBOUND:                -0.177
REMARK  Name = 1550473
REMARK  2 active torsions:
REMARK  status: ('A' for Active; 'I' for Inactive)
REMARK    1  A    between atoms: N_1  and  C_4
REMARK    2  A    between atoms: C_4  and  C_5
REMARK                            x       y       z     vdW  Elec       q    Type
REMARK                         _______ _______ _______ _____ _____    ______ ____
ROOT
ATOM      1  N   UNL     1      14.679  -2.990  12.094  0.00  0.00    -0.354 N 
ATOM      2  N   UNL     1      14.728  -1.582  10.256  0.00  0.00    -0.372 N 
ATOM      3  N   UNL     1      16.458  -3.056  10.571  0.00  0.00    -0.372 N 
ATOM      4  C   UNL     1      15.291  -2.553  10.986  0.00  0.00    +0.166 C 
ATOM      5  H   UNL     1      13.810  -2.546  12.372  0.00  0.00    +0.163 HD
ATOM      6  H   UNL     1      15.164  -1.234   9.413  0.00  0.00    +0.159 HD
ATOM      7  H   UNL     1      13.837  -1.172  10.510  0.00  0.00    +0.159 HD
ATOM      8  H   UNL     1      16.938  -3.786  11.080  0.00  0.00    +0.159 HD
ATOM      9  H   UNL     1      16.916  -2.713   9.736  0.00  0.00    +0.159 HD
ENDROOT
BRANCH   1  10
ATOM     10  C   UNL     1      15.181  -4.079  12.930  0.00  0.00    +0.151 C 
BRANCH  10  11
ATOM     11  C   UNL     1      14.047  -4.632  13.749  0.00  0.00    -0.028 A 
ATOM     12  C   UNL     1      12.822  -4.952  13.145  0.00  0.00    +0.005 A 
ATOM     13  C   UNL     1      14.194  -4.845  15.128  0.00  0.00    +0.005 A 
ATOM     14  C   UNL     1      11.779  -5.493  13.900  0.00  0.00    +0.000 A 
ATOM     15  C   UNL     1      13.149  -5.385  15.879  0.00  0.00    +0.000 A 
ATOM     16  C   UNL     1      11.943  -5.711  15.264  0.00  0.00    +0.000 A 
ENDBRANCH  10  11
ENDBRANCH   1  10
TORSDOF 2
ENDMDL
