MODEL 1
REMARK VINA RESULT:    -4.247      0.000      0.000
REMARK INTER + INTRA:          -4.866
REMARK INTER:                  -4.744
REMARK INTRA:                  -0.122
REMARK UNBOUND:                -0.122
REMARK  Name = 1550473
REMARK  2 active torsions:
REMARK  status: ('A' for Active; 'I' for Inactive)
REMARK    1  A    between atoms: N_1  and  C_4
REMARK    2  A    between atoms: C_4  and  C_5
REMARK                            x       y       z     vdW  Elec       q    Type
REMARK                         _______ _______ _______ _____ _____    ______ ____
ROOT
ATOM      1  N   UNL     1      -5.149  -7.536   2.843  0.00  0.00    -0.354 N 
ATOM      2  N   UNL     1      -6.984  -6.258   3.447  0.00  0.00    -0.372 N 
ATOM      3  N   UNL     1      -7.109  -7.555   1.558  0.00  0.00    -0.372 N 
ATOM      4  C   UNL     1      -6.403  -7.126   2.609  0.00  0.00    +0.166 C 
ATOM      5  H   UNL     1      -4.657  -7.150   3.640  0.00  0.00    +0.163 HD
ATOM      6  H   UNL     1      -7.930  -5.933   3.298  0.00  0.00    +0.159 HD
ATOM      7  H   UNL     1      -6.506  -5.909   4.268  0.00  0.00    +0.159 HD
ATOM      8  H   UNL     1      -6.726  -8.206   0.885  0.00  0.00    +0.159 HD
ATOM      9  H   UNL     1      -8.053  -7.232   1.386  0.00  0.00    +0.159 HD
ENDROOT
BRANCH   1  10
ATOM     10  C   UNL     1      -4.445  -8.520   2.023  0.00  0.00    +0.151 C 
BRANCH  10  11
ATOM     11  C   UNL     1      -3.092  -7.975   1.655  0.00  0.00    -0.028 A 
ATOM     12  C   UNL     1      -2.201  -7.551   2.652  0.00  0.00    +0.005 A 
ATOM     13  C   UNL     1      -2.693  -7.886   0.313  0.00  0.00    +0.005 A 
ATOM     14  C   UNL     1      -0.933  -7.072   2.313  0.00  0.00    +0.000 A 
ATOM     15  C   UNL     1      -1.427  -7.407  -0.022  0.00  0.00    +0.000 A 
ATOM     16  C   UNL     1      -0.546  -7.003   0.979  0.00  0.00    +0.000 A 
ENDBRANCH  10  11
ENDBRANCH   1  10
TORSDOF 2
ENDMDL
MODEL 2
REMARK VINA RESULT:    -4.213     15.852     16.978
REMARK INTER + INTRA:          -4.827
REMARK INTER:                  -4.737
REMARK INTRA:                  -0.091
REMARK UNBOUND:                -0.122
REMARK  Name = 1550473
REMARK  2 active torsions:
REMARK  status: ('A' for Active; 'I' for Inactive)
REMARK    1  A    between atoms: N_1  and  C_4
REMARK    2  A    between atoms: C_4  and  C_5
REMARK                            x       y       z     vdW  Elec       q    Type
REMARK                         _______ _______ _______ _____ _____    ______ ____
ROOT
ATOM      1  N   UNL     1       1.728  -7.175 -14.715  0.00  0.00    -0.354 N 
ATOM      2  N   UNL     1       0.545  -8.188 -16.430  0.00  0.00    -0.372 N 
ATOM      3  N   UNL     1      -0.089  -6.097 -15.728  0.00  0.00    -0.372 N 
ATOM      4  C   UNL     1       0.734  -7.144 -15.613  0.00  0.00    +0.166 C 
ATOM      5  H   UNL     1       2.299  -8.011 -14.657  0.00  0.00    +0.163 HD
ATOM      6  H   UNL     1      -0.194  -8.192 -17.119  0.00  0.00    +0.159 HD
ATOM      7  H   UNL     1       1.146  -9.003 -16.400  0.00  0.00    +0.159 HD
ATOM      8  H   UNL     1      -0.004  -5.281 -15.138  0.00  0.00    +0.159 HD
ATOM      9  H   UNL     1      -0.843  -6.087 -16.405  0.00  0.00    +0.159 HD
ENDROOT
BRANCH   1  10
ATOM     10  C   UNL     1       2.052  -6.069 -13.816  0.00  0.00    +0.151 C 
BRANCH  10  11
ATOM     11  C   UNL     1       3.217  -6.464 -12.950  0.00  0.00    -0.028 A 
ATOM     12  C   UNL     1       3.006  -7.132 -11.735  0.00  0.00    +0.005 A 
ATOM     13  C   UNL     1       4.533  -6.180 -13.343  0.00  0.00    +0.005 A 
ATOM     14  C   UNL     1       4.089  -7.526 -10.945  0.00  0.00    +0.000 A 
ATOM     15  C   UNL     1       5.612  -6.574 -12.552  0.00  0.00    +0.000 A 
ATOM     16  C   UNL     1       5.389  -7.250 -11.354  0.00  0.00    +0.000 A 
ENDBRANCH  10  11
ENDBRANCH   1  10
TORSDOF 2
ENDMDL
MODEL 3
REMARK VINA RESULT:    -4.204      3.475      5.351
REMARK INTER + INTRA:          -4.817
REMARK INTER:                  -4.695
REMARK INTRA:                  -0.122
REMARK UNBOUND:                -0.122
REMARK  Name = 1550473
REMARK  2 active torsions:
REMARK  status: ('A' for Active; 'I' for Inactive)
REMARK    1  A    between atoms: N_1  and  C_4
REMARK    2  A    between atoms: C_4  and  C_5
REMARK                            x       y       z     vdW  Elec       q    Type
REMARK                         _______ _______ _______ _____ _____    ______ ____
ROOT
ATOM      1  N   UNL     1      -2.959  -7.412   0.371  0.00  0.00    -0.354 N 
ATOM      2  N   UNL     1      -1.620  -5.650   1.055  0.00  0.00    -0.372 N 
ATOM      3  N   UNL     1      -0.665  -7.383  -0.107  0.00  0.00    -0.372 N 
ATOM      4  C   UNL     1      -1.755  -6.828   0.434  0.00  0.00    +0.166 C 
ATOM      5  H   UNL     1      -3.740  -6.954   0.827  0.00  0.00    +0.163 HD
ATOM      6  H   UNL     1      -0.724  -5.184   1.116  0.00  0.00    +0.159 HD
ATOM      7  H   UNL     1      -2.411  -5.173   1.470  0.00  0.00    +0.159 HD
ATOM      8  H   UNL     1      -0.698  -8.274  -0.584  0.00  0.00    +0.159 HD
ATOM      9  H   UNL     1       0.242  -6.938  -0.046  0.00  0.00    +0.159 HD
ENDROOT
BRANCH   1  10
ATOM     10  C   UNL     1      -3.223  -8.668  -0.328  0.00  0.00    +0.151 C 
BRANCH  10  11
ATOM     11  C   UNL     1      -4.697  -8.777  -0.603  0.00  0.00    -0.028 A 
ATOM     12  C   UNL     1      -5.180  -9.693  -1.550  0.00  0.00    +0.005 A 
ATOM     13  C   UNL     1      -5.618  -7.970   0.083  0.00  0.00    +0.005 A 
ATOM     14  C   UNL     1      -6.551  -9.815  -1.784  0.00  0.00    +0.000 A 
ATOM     15  C   UNL     1      -6.987  -8.094  -0.155  0.00  0.00    +0.000 A 
ATOM     16  C   UNL     1      -7.453  -9.019  -1.086  0.00  0.00    +0.000 A 
ENDBRANCH  10  11
ENDBRANCH   1  10
TORSDOF 2
ENDMDL
MODEL 4
REMARK VINA RESULT:    -4.165     15.227     16.867
REMARK INTER + INTRA:          -4.774
REMARK INTER:                  -4.609
REMARK INTRA:                  -0.165
REMARK UNBOUND:                -0.122
REMARK  Name = 1550473
REMARK  2 active torsions:
REMARK  status: ('A' for Active; 'I' for Inactive)
REMARK    1  A    between atoms: N_1  and  C_4
REMARK    2  A    between atoms: C_4  and  C_5
REMARK                            x       y       z     vdW  Elec       q    Type
REMARK                         _______ _______ _______ _____ _____    ______ ____
ROOT
ATOM      1  N   UNL     1       3.942  -6.755 -11.045  0.00  0.00    -0.354 N 
ATOM      2  N   UNL     1       5.395  -8.378 -10.258  0.00  0.00    -0.372 N 
ATOM      3  N   UNL     1       3.364  -9.025 -11.108  0.00  0.00    -0.372 N 
ATOM      4  C   UNL     1       4.222  -8.044 -10.809  0.00  0.00    +0.166 C 
ATOM      5  H   UNL     1       4.622  -6.057 -10.768  0.00  0.00    +0.163 HD
ATOM      6  H   UNL     1       5.635  -9.343 -10.072  0.00  0.00    +0.159 HD
ATOM      7  H   UNL     1       6.092  -7.682 -10.024  0.00  0.00    +0.159 HD
ATOM      8  H   UNL     1       2.460  -8.839 -11.521  0.00  0.00    +0.159 HD
ATOM      9  H   UNL     1       3.582  -9.996 -10.918  0.00  0.00    +0.159 HD
ENDROOT
BRANCH   1  10
ATOM     10  C   UNL     1       2.716  -6.289 -11.691  0.00  0.00    +0.151 C 
BRANCH  10  11
ATOM     11  C   UNL     1       2.971  -6.117 -13.163  0.00  0.00    -0.028 A 
ATOM     12  C   UNL     1       2.013  -6.522 -14.104  0.00  0.00    +0.005 A 
ATOM     13  C   UNL     1       4.168  -5.545 -13.623  0.00  0.00    +0.005 A 
ATOM     14  C   UNL     1       2.237  -6.334 -15.470  0.00  0.00    +0.000 A 
ATOM     15  C   UNL     1       4.387  -5.361 -14.988  0.00  0.00    +0.000 A 
ATOM     16  C   UNL     1       3.421  -5.753 -15.911  0.00  0.00    +0.000 A 
ENDBRANCH  10  11
ENDBRANCH   1  10
TORSDOF 2
ENDMDL
MODEL 5
REMARK VINA RESULT:    -4.140      1.251      2.238
REMARK INTER + INTRA:          -4.746
REMARK INTER:                  -4.599
REMARK INTRA:                  -0.147
REMARK UNBOUND:                -0.122
REMARK  Name = 1550473
REMARK  2 active torsions:
REMARK  status: ('A' for Active; 'I' for Inactive)
REMARK    1  A    between atoms: N_1  and  C_4
REMARK    2  A    between atoms: C_4  and  C_5
REMARK                            x       y       z     vdW  Elec       q    Type
REMARK                         _______ _______ _______ _____ _____    ______ ____
ROOT
ATOM      1  N   UNL     1      -5.535  -8.597   0.674  0.00  0.00    -0.354 N 
ATOM      2  N   UNL     1      -7.458  -7.537  -0.062  0.00  0.00    -0.372 N 
ATOM      3  N   UNL     1      -6.603  -6.982   1.994  0.00  0.00    -0.372 N 
ATOM      4  C   UNL     1      -6.519  -7.711   0.876  0.00  0.00    +0.166 C 
ATOM      5  H   UNL     1      -5.544  -9.140  -0.182  0.00  0.00    +0.163 HD
ATOM      6  H   UNL     1      -8.211  -6.873   0.060  0.00  0.00    +0.159 HD
ATOM      7  H   UNL     1      -7.439  -8.048  -0.936  0.00  0.00    +0.159 HD
ATOM      8  H   UNL     1      -5.930  -7.071   2.743  0.00  0.00    +0.159 HD
ATOM      9  H   UNL     1      -7.356  -6.321   2.140  0.00  0.00    +0.159 HD
ENDROOT
BRANCH   1  10
ATOM     10  C   UNL     1      -4.434  -8.824   1.609  0.00  0.00    +0.151 C 
BRANCH  10  11
ATOM     11  C   UNL     1      -3.142  -8.421   0.954  0.00  0.00    -0.028 A 
ATOM     12  C   UNL     1      -2.884  -8.763  -0.381  0.00  0.00    +0.005 A 
ATOM     13  C   UNL     1      -2.174  -7.692   1.662  0.00  0.00    +0.005 A 
ATOM     14  C   UNL     1      -1.697  -8.363  -1.000  0.00  0.00    +0.000 A 
ATOM     15  C   UNL     1      -0.990  -7.296   1.041  0.00  0.00    +0.000 A 
ATOM     16  C   UNL     1      -0.752  -7.629  -0.290  0.00  0.00    +0.000 A 
ENDBRANCH  10  11
ENDBRANCH   1  10
TORSDOF 2
ENDMDL
MODEL 6
REMARK VINA RESULT:    -4.053      2.918      4.031
REMARK INTER + INTRA:          -4.648
REMARK INTER:                  -4.523
REMARK INTRA:                  -0.125
REMARK UNBOUND:                -0.122
REMARK  Name = 1550473
REMARK  2 active torsions:
REMARK  status: ('A' for Active; 'I' for Inactive)
REMARK    1  A    between atoms: N_1  and  C_4
REMARK    2  A    between atoms: C_4  and  C_5
REMARK                            x       y       z     vdW  Elec       q    Type
REMARK                         _______ _______ _______ _____ _____    ______ ____
ROOT
ATOM      1  N   UNL     1      -1.021  -7.792   3.518  0.00  0.00    -0.354 N 
ATOM      2  N   UNL     1      -0.982  -8.976   5.508  0.00  0.00    -0.372 N 
ATOM      3  N   UNL     1      -2.509  -7.282   5.255  0.00  0.00    -0.372 N 
ATOM      4  C   UNL     1      -1.506  -8.007   4.748  0.00  0.00    +0.166 C 
ATOM      5  H   UNL     1      -0.240  -8.356   3.204  0.00  0.00    +0.163 HD
ATOM      6  H   UNL     1      -1.330  -9.163   6.439  0.00  0.00    +0.159 HD
ATOM      7  H   UNL     1      -0.232  -9.568   5.174  0.00  0.00    +0.159 HD
ATOM      8  H   UNL     1      -2.944  -6.532   4.734  0.00  0.00    +0.159 HD
ATOM      9  H   UNL     1      -2.863  -7.447   6.189  0.00  0.00    +0.159 HD
ENDROOT
BRANCH   1  10
ATOM     10  C   UNL     1      -1.556  -6.798   2.589  0.00  0.00    +0.151 C 
BRANCH  10  11
ATOM     11  C   UNL     1      -1.827  -7.458   1.265  0.00  0.00    -0.028 A 
ATOM     12  C   UNL     1      -0.804  -7.593   0.315  0.00  0.00    +0.005 A 
ATOM     13  C   UNL     1      -3.102  -7.955   0.957  0.00  0.00    +0.005 A 
ATOM     14  C   UNL     1      -1.047  -8.233  -0.903  0.00  0.00    +0.000 A 
ATOM     15  C   UNL     1      -3.341  -8.593  -0.260  0.00  0.00    +0.000 A 
ATOM     16  C   UNL     1      -2.313  -8.734  -1.189  0.00  0.00    +0.000 A 
ENDBRANCH  10  11
ENDBRANCH   1  10
TORSDOF 2
ENDMDL
MODEL 7
REMARK VINA RESULT:    -4.046     20.123     21.156
REMARK INTER + INTRA:          -4.641
REMARK INTER:                  -4.515
REMARK INTRA:                  -0.126
REMARK UNBOUND:                -0.122
REMARK  Name = 1550473
REMARK  2 active torsions:
REMARK  status: ('A' for Active; 'I' for Inactive)
REMARK    1  A    between atoms: N_1  and  C_4
REMARK    2  A    between atoms: C_4  and  C_5
REMARK                            x       y       z     vdW  Elec       q    Type
REMARK                         _______ _______ _______ _____ _____    ______ ____
ROOT
ATOM      1  N   UNL     1       0.556  12.254   7.727  0.00  0.00    -0.354 N 
ATOM      2  N   UNL     1      -1.533  12.416   6.739  0.00  0.00    -0.372 N 
ATOM      3  N   UNL     1      -0.386  10.434   6.590  0.00  0.00    -0.372 N 
ATOM      4  C   UNL     1      -0.440  11.698   7.024  0.00  0.00    +0.166 C 
ATOM      5  H   UNL     1       0.467  13.226   8.001  0.00  0.00    +0.163 HD
ATOM      6  H   UNL     1      -2.302  12.022   6.214  0.00  0.00    +0.159 HD
ATOM      7  H   UNL     1      -1.639  13.373   7.054  0.00  0.00    +0.159 HD
ATOM      8  H   UNL     1       0.413   9.841   6.766  0.00  0.00    +0.159 HD
ATOM      9  H   UNL     1      -1.141  10.026   6.052  0.00  0.00    +0.159 HD
ENDROOT
BRANCH   1  10
ATOM     10  C   UNL     1       1.765  11.542   8.135  0.00  0.00    +0.151 C 
BRANCH  10  11
ATOM     11  C   UNL     1       1.800  11.455   9.636  0.00  0.00    -0.028 A 
ATOM     12  C   UNL     1       0.772  12.018  10.406  0.00  0.00    +0.005 A 
ATOM     13  C   UNL     1       2.856  10.806  10.294  0.00  0.00    +0.005 A 
ATOM     14  C   UNL     1       0.789  11.912  11.799  0.00  0.00    +0.000 A 
ATOM     15  C   UNL     1       2.870  10.702  11.685  0.00  0.00    +0.000 A 
ATOM     16  C   UNL     1       1.835  11.253  12.437  0.00  0.00    +0.000 A 
ENDBRANCH  10  11
ENDBRANCH   1  10
TORSDOF 2
ENDMDL
MODEL 8
REMARK VINA RESULT:    -3.990      2.394      2.909
REMARK INTER + INTRA:          -4.579
REMARK INTER:                  -4.450
REMARK INTRA:                  -0.129
REMARK UNBOUND:                -0.122
REMARK  Name = 1550473
REMARK  2 active torsions:
REMARK  status: ('A' for Active; 'I' for Inactive)
REMARK    1  A    between atoms: N_1  and  C_4
REMARK    2  A    between atoms: C_4  and  C_5
REMARK                            x       y       z     vdW  Elec       q    Type
REMARK                         _______ _______ _______ _____ _____    ______ ____
ROOT
ATOM      1  N   UNL     1      -3.157  -7.331   4.594  0.00  0.00    -0.354 N 
ATOM      2  N   UNL     1      -2.887  -7.092   6.882  0.00  0.00    -0.372 N 
ATOM      3  N   UNL     1      -4.321  -8.701   6.097  0.00  0.00    -0.372 N 
ATOM      4  C   UNL     1      -3.459  -7.712   5.843  0.00  0.00    +0.166 C 
ATOM      5  H   UNL     1      -2.518  -6.554   4.469  0.00  0.00    +0.163 HD
ATOM      6  H   UNL     1      -3.093  -7.359   7.835  0.00  0.00    +0.159 HD
ATOM      7  H   UNL     1      -2.214  -6.346   6.753  0.00  0.00    +0.159 HD
ATOM      8  H   UNL     1      -4.792  -9.205   5.357  0.00  0.00    +0.159 HD
ATOM      9  H   UNL     1      -4.549  -8.976   7.044  0.00  0.00    +0.159 HD
ENDROOT
BRANCH   1  10
ATOM     10  C   UNL     1      -3.683  -7.976   3.393  0.00  0.00    +0.151 C 
BRANCH  10  11
ATOM     11  C   UNL     1      -2.729  -7.745   2.253  0.00  0.00    -0.028 A 
ATOM     12  C   UNL     1      -1.551  -7.011   2.449  0.00  0.00    +0.005 A 
ATOM     13  C   UNL     1      -2.996  -8.264   0.976  0.00  0.00    +0.005 A 
ATOM     14  C   UNL     1      -0.650  -6.822   1.398  0.00  0.00    +0.000 A 
ATOM     15  C   UNL     1      -2.094  -8.072  -0.070  0.00  0.00    +0.000 A 
ATOM     16  C   UNL     1      -0.920  -7.353   0.142  0.00  0.00    +0.000 A 
ENDBRANCH  10  11
ENDBRANCH   1  10
TORSDOF 2
ENDMDL
MODEL 9
REMARK VINA RESULT:    -3.937     23.300     24.010
REMARK INTER + INTRA:          -4.519
REMARK INTER:                  -4.378
REMARK INTRA:                  -0.141
REMARK UNBOUND:                -0.122
REMARK  Name = 1550473
REMARK  2 active torsions:
REMARK  status: ('A' for Active; 'I' for Inactive)
REMARK    1  A    between atoms: N_1  and  C_4
REMARK    2  A    between atoms: C_4  and  C_5
REMARK                            x       y       z     vdW  Elec       q    Type
REMARK                         _______ _______ _______ _____ _____    ______ ____
ROOT
ATOM      1  N   UNL     1      -4.769  10.922 -13.751  0.00  0.00    -0.354 N 
ATOM      2  N   UNL     1      -3.736  11.601 -11.792  0.00  0.00    -0.372 N 
ATOM      3  N   UNL     1      -2.713  10.011 -13.092  0.00  0.00    -0.372 N 
ATOM      4  C   UNL     1      -3.744  10.838 -12.892  0.00  0.00    +0.166 C 
ATOM      5  H   UNL     1      -5.535  11.547 -13.526  0.00  0.00    +0.163 HD
ATOM      6  H   UNL     1      -2.975  11.562 -11.127  0.00  0.00    +0.159 HD
ATOM      7  H   UNL     1      -4.481  12.258 -11.593  0.00  0.00    +0.159 HD
ATOM      8  H   UNL     1      -2.661   9.405 -13.899  0.00  0.00    +0.159 HD
ATOM      9  H   UNL     1      -1.947   9.950 -12.432  0.00  0.00    +0.159 HD
ENDROOT
BRANCH   1  10
ATOM     10  C   UNL     1      -4.848  10.175 -15.005  0.00  0.00    +0.151 C 
BRANCH  10  11
ATOM     11  C   UNL     1      -6.147   9.419 -15.045  0.00  0.00    -0.028 A 
ATOM     12  C   UNL     1      -6.520   8.704 -16.193  0.00  0.00    +0.005 A 
ATOM     13  C   UNL     1      -7.007   9.407 -13.935  0.00  0.00    +0.005 A 
ATOM     14  C   UNL     1      -7.712   7.977 -16.219  0.00  0.00    +0.000 A 
ATOM     15  C   UNL     1      -8.196   8.680 -13.967  0.00  0.00    +0.000 A 
ATOM     16  C   UNL     1      -8.548   7.963 -15.108  0.00  0.00    +0.000 A 
ENDBRANCH  10  11
ENDBRANCH   1  10
TORSDOF 2
ENDMDL
