MODEL 1
REMARK VINA RESULT:    -6.043      0.000      0.000
REMARK INTER + INTRA:          -6.934
REMARK INTER:                  -6.750
REMARK INTRA:                  -0.185
REMARK UNBOUND:                -0.185
REMARK  Name = 1550473
REMARK  2 active torsions:
REMARK  status: ('A' for Active; 'I' for Inactive)
REMARK    1  A    between atoms: N_1  and  C_4
REMARK    2  A    between atoms: C_4  and  C_5
REMARK                            x       y       z     vdW  Elec       q    Type
REMARK                         _______ _______ _______ _____ _____    ______ ____
ROOT
ATOM      1  N   UNL     1       8.622  16.100  13.140  0.00  0.00    -0.354 N 
ATOM      2  N   UNL     1      10.797  16.019  13.930  0.00  0.00    -0.372 N 
ATOM      3  N   UNL     1       9.142  16.792  15.318  0.00  0.00    -0.372 N 
ATOM      4  C   UNL     1       9.505  16.305  14.126  0.00  0.00    +0.166 C 
ATOM      5  H   UNL     1       8.965  15.757  12.250  0.00  0.00    +0.163 HD
ATOM      6  H   UNL     1      11.486  16.160  14.657  0.00  0.00    +0.159 HD
ATOM      7  H   UNL     1      11.130  15.633  13.055  0.00  0.00    +0.159 HD
ATOM      8  H   UNL     1       8.183  17.034  15.528  0.00  0.00    +0.159 HD
ATOM      9  H   UNL     1       9.818  16.951  16.054  0.00  0.00    +0.159 HD
ENDROOT
BRANCH   1  10
ATOM     10  C   UNL     1       7.184  16.329  13.269  0.00  0.00    +0.151 C 
BRANCH  10  11
ATOM     11  C   UNL     1       6.497  15.013  13.512  0.00  0.00    -0.028 A 
ATOM     12  C   UNL     1       6.398  14.062  12.487  0.00  0.00    +0.005 A 
ATOM     13  C   UNL     1       5.948  14.710  14.768  0.00  0.00    +0.005 A 
ATOM     14  C   UNL     1       5.786  12.828  12.720  0.00  0.00    +0.000 A 
ATOM     15  C   UNL     1       5.337  13.477  14.997  0.00  0.00    +0.000 A 
ATOM     16  C   UNL     1       5.259  12.535  13.974  0.00  0.00    +0.000 A 
ENDBRANCH  10  11
ENDBRANCH   1  10
TORSDOF 2
ENDMDL
MODEL 2
REMARK VINA RESULT:    -5.232      3.908      5.047
REMARK INTER + INTRA:          -6.028
REMARK INTER:                  -5.922
REMARK INTRA:                  -0.106
REMARK UNBOUND:                -0.185
REMARK  Name = 1550473
REMARK  2 active torsions:
REMARK  status: ('A' for Active; 'I' for Inactive)
REMARK    1  A    between atoms: N_1  and  C_4
REMARK    2  A    between atoms: C_4  and  C_5
REMARK                            x       y       z     vdW  Elec       q    Type
REMARK                         _______ _______ _______ _____ _____    ______ ____
ROOT
ATOM      1  N   UNL     1       5.940  11.559  15.846  0.00  0.00    -0.354 N 
ATOM      2  N   UNL     1       6.311  11.865  18.111  0.00  0.00    -0.372 N 
ATOM      3  N   UNL     1       6.486   9.752  17.234  0.00  0.00    -0.372 N 
ATOM      4  C   UNL     1       6.243  11.054  17.049  0.00  0.00    +0.166 C 
ATOM      5  H   UNL     1       5.737  12.550  15.777  0.00  0.00    +0.163 HD
ATOM      6  H   UNL     1       6.541  11.513  19.031  0.00  0.00    +0.159 HD
ATOM      7  H   UNL     1       6.153  12.862  18.031  0.00  0.00    +0.159 HD
ATOM      8  H   UNL     1       6.445   9.086  16.474  0.00  0.00    +0.159 HD
ATOM      9  H   UNL     1       6.707   9.379  18.149  0.00  0.00    +0.159 HD
ENDROOT
BRANCH   1  10
ATOM     10  C   UNL     1       5.893  10.770  14.616  0.00  0.00    +0.151 C 
BRANCH  10  11
ATOM     11  C   UNL     1       5.595  11.683  13.458  0.00  0.00    -0.028 A 
ATOM     12  C   UNL     1       4.555  11.385  12.566  0.00  0.00    +0.005 A 
ATOM     13  C   UNL     1       6.345  12.851  13.252  0.00  0.00    +0.005 A 
ATOM     14  C   UNL     1       4.258  12.247  11.508  0.00  0.00    +0.000 A 
ATOM     15  C   UNL     1       6.046  13.709  12.194  0.00  0.00    +0.000 A 
ATOM     16  C   UNL     1       5.001  13.408  11.324  0.00  0.00    +0.000 A 
ENDBRANCH  10  11
ENDBRANCH   1  10
TORSDOF 2
ENDMDL
MODEL 3
REMARK VINA RESULT:    -5.218      3.769      5.042
REMARK INTER + INTRA:          -6.013
REMARK INTER:                  -5.885
REMARK INTRA:                  -0.129
REMARK UNBOUND:                -0.185
REMARK  Name = 1550473
REMARK  2 active torsions:
REMARK  status: ('A' for Active; 'I' for Inactive)
REMARK    1  A    between atoms: N_1  and  C_4
REMARK    2  A    between atoms: C_4  and  C_5
REMARK                            x       y       z     vdW  Elec       q    Type
REMARK                         _______ _______ _______ _____ _____    ______ ____
ROOT
ATOM      1  N   UNL     1       5.693  12.177  16.732  0.00  0.00    -0.354 N 
ATOM      2  N   UNL     1       6.103  11.907  18.996  0.00  0.00    -0.372 N 
ATOM      3  N   UNL     1       6.465  10.135  17.584  0.00  0.00    -0.372 N 
ATOM      4  C   UNL     1       6.085  11.406  17.755  0.00  0.00    +0.166 C 
ATOM      5  H   UNL     1       5.388  13.123  16.932  0.00  0.00    +0.163 HD
ATOM      6  H   UNL     1       6.397  11.350  19.787  0.00  0.00    +0.159 HD
ATOM      7  H   UNL     1       5.841  12.867  19.186  0.00  0.00    +0.159 HD
ATOM      8  H   UNL     1       6.468   9.695  16.673  0.00  0.00    +0.159 HD
ATOM      9  H   UNL     1       6.751   9.558  18.365  0.00  0.00    +0.159 HD
ENDROOT
BRANCH   1  10
ATOM     10  C   UNL     1       5.688  11.744  15.336  0.00  0.00    +0.151 C 
BRANCH  10  11
ATOM     11  C   UNL     1       5.848  12.947  14.448  0.00  0.00    -0.028 A 
ATOM     12  C   UNL     1       5.825  14.240  14.990  0.00  0.00    +0.005 A 
ATOM     13  C   UNL     1       6.029  12.800  13.064  0.00  0.00    +0.005 A 
ATOM     14  C   UNL     1       6.004  15.357  14.169  0.00  0.00    +0.000 A 
ATOM     15  C   UNL     1       6.206  13.917  12.248  0.00  0.00    +0.000 A 
ATOM     16  C   UNL     1       6.196  15.195  12.801  0.00  0.00    +0.000 A 
ENDBRANCH  10  11
ENDBRANCH   1  10
TORSDOF 2
ENDMDL
MODEL 4
REMARK VINA RESULT:    -4.823     19.976     21.170
REMARK INTER + INTRA:          -5.571
REMARK INTER:                  -5.416
REMARK INTRA:                  -0.156
REMARK UNBOUND:                -0.185
REMARK  Name = 1550473
REMARK  2 active torsions:
REMARK  status: ('A' for Active; 'I' for Inactive)
REMARK    1  A    between atoms: N_1  and  C_4
REMARK    2  A    between atoms: C_4  and  C_5
REMARK                            x       y       z     vdW  Elec       q    Type
REMARK                         _______ _______ _______ _____ _____    ______ ____
ROOT
ATOM      1  N   UNL     1      -0.808  14.826  -4.998  0.00  0.00    -0.354 N 
ATOM      2  N   UNL     1      -0.466  12.965  -6.333  0.00  0.00    -0.372 N 
ATOM      3  N   UNL     1      -0.143  15.050  -7.234  0.00  0.00    -0.372 N 
ATOM      4  C   UNL     1      -0.474  14.295  -6.182  0.00  0.00    +0.166 C 
ATOM      5  H   UNL     1      -1.079  14.200  -4.249  0.00  0.00    +0.163 HD
ATOM      6  H   UNL     1      -0.215  12.535  -7.213  0.00  0.00    +0.159 HD
ATOM      7  H   UNL     1      -0.693  12.340  -5.569  0.00  0.00    +0.159 HD
ATOM      8  H   UNL     1      -0.135  16.060  -7.187  0.00  0.00    +0.159 HD
ATOM      9  H   UNL     1       0.100  14.639  -8.127  0.00  0.00    +0.159 HD
ENDROOT
BRANCH   1  10
ATOM     10  C   UNL     1      -0.796  16.260  -4.713  0.00  0.00    +0.151 C 
BRANCH  10  11
ATOM     11  C   UNL     1      -2.173  16.687  -4.283  0.00  0.00    -0.028 A 
ATOM     12  C   UNL     1      -3.212  16.788  -5.220  0.00  0.00    +0.005 A 
ATOM     13  C   UNL     1      -2.446  16.986  -2.940  0.00  0.00    +0.005 A 
ATOM     14  C   UNL     1      -4.498  17.155  -4.816  0.00  0.00    +0.000 A 
ATOM     15  C   UNL     1      -3.731  17.354  -2.540  0.00  0.00    +0.000 A 
ATOM     16  C   UNL     1      -4.757  17.436  -3.478  0.00  0.00    +0.000 A 
ENDBRANCH  10  11
ENDBRANCH   1  10
TORSDOF 2
ENDMDL
MODEL 5
REMARK VINA RESULT:    -4.670     31.069     32.453
REMARK INTER + INTRA:          -5.400
REMARK INTER:                  -5.302
REMARK INTRA:                  -0.098
REMARK UNBOUND:                -0.185
REMARK  Name = 1550473
REMARK  2 active torsions:
REMARK  status: ('A' for Active; 'I' for Inactive)
REMARK    1  A    between atoms: N_1  and  C_4
REMARK    2  A    between atoms: C_4  and  C_5
REMARK                            x       y       z     vdW  Elec       q    Type
REMARK                         _______ _______ _______ _____ _____    ______ ____
ROOT
ATOM      1  N   UNL     1      14.010  -8.483  -5.973  0.00  0.00    -0.354 N 
ATOM      2  N   UNL     1      15.641  -7.847  -4.457  0.00  0.00    -0.372 N 
ATOM      3  N   UNL     1      13.576  -6.853  -4.346  0.00  0.00    -0.372 N 
ATOM      4  C   UNL     1      14.396  -7.730  -4.934  0.00  0.00    +0.166 C 
ATOM      5  H   UNL     1      14.689  -9.107  -6.393  0.00  0.00    +0.163 HD
ATOM      6  H   UNL     1      15.960  -7.294  -3.672  0.00  0.00    +0.159 HD
ATOM      7  H   UNL     1      16.304  -8.504  -4.850  0.00  0.00    +0.159 HD
ATOM      8  H   UNL     1      12.626  -6.713  -4.662  0.00  0.00    +0.159 HD
ATOM      9  H   UNL     1      13.880  -6.283  -3.567  0.00  0.00    +0.159 HD
ENDROOT
BRANCH   1  10
ATOM     10  C   UNL     1      12.661  -8.471  -6.534  0.00  0.00    +0.151 C 
BRANCH  10  11
ATOM     11  C   UNL     1      12.727  -8.876  -7.981  0.00  0.00    -0.028 A 
ATOM     12  C   UNL     1      12.487  -7.936  -8.994  0.00  0.00    +0.005 A 
ATOM     13  C   UNL     1      13.035 -10.195  -8.345  0.00  0.00    +0.005 A 
ATOM     14  C   UNL     1      12.578  -8.304 -10.339  0.00  0.00    +0.000 A 
ATOM     15  C   UNL     1      13.124 -10.559  -9.689  0.00  0.00    +0.000 A 
ATOM     16  C   UNL     1      12.898  -9.613 -10.685  0.00  0.00    +0.000 A 
ENDBRANCH  10  11
ENDBRANCH   1  10
TORSDOF 2
ENDMDL
MODEL 6
REMARK VINA RESULT:    -4.608     15.295     16.374
REMARK INTER + INTRA:          -5.332
REMARK INTER:                  -5.227
REMARK INTRA:                  -0.105
REMARK UNBOUND:                -0.185
REMARK  Name = 1550473
REMARK  2 active torsions:
REMARK  status: ('A' for Active; 'I' for Inactive)
REMARK    1  A    between atoms: N_1  and  C_4
REMARK    2  A    between atoms: C_4  and  C_5
REMARK                            x       y       z     vdW  Elec       q    Type
REMARK                         _______ _______ _______ _____ _____    ______ ____
ROOT
ATOM      1  N   UNL     1      12.399  -0.967  18.718  0.00  0.00    -0.354 N 
ATOM      2  N   UNL     1      12.402  -2.765  17.258  0.00  0.00    -0.372 N 
ATOM      3  N   UNL     1      11.158  -2.901  19.181  0.00  0.00    -0.372 N 
ATOM      4  C   UNL     1      11.985  -2.200  18.397  0.00  0.00    +0.166 C 
ATOM      5  H   UNL     1      13.049  -0.501  18.096  0.00  0.00    +0.163 HD
ATOM      6  H   UNL     1      12.104  -3.693  16.988  0.00  0.00    +0.159 HD
ATOM      7  H   UNL     1      13.016  -2.279  16.616  0.00  0.00    +0.159 HD
ATOM      8  H   UNL     1      10.811  -2.533  20.057  0.00  0.00    +0.159 HD
ATOM      9  H   UNL     1      10.858  -3.835  18.934  0.00  0.00    +0.159 HD
ENDROOT
BRANCH   1  10
ATOM     10  C   UNL     1      11.960  -0.241  19.909  0.00  0.00    +0.151 C 
BRANCH  10  11
ATOM     11  C   UNL     1      11.208   0.990  19.485  0.00  0.00    -0.028 A 
ATOM     12  C   UNL     1      10.610   1.058  18.218  0.00  0.00    +0.005 A 
ATOM     13  C   UNL     1      11.086   2.090  20.347  0.00  0.00    +0.005 A 
ATOM     14  C   UNL     1       9.886   2.189  17.835  0.00  0.00    +0.000 A 
ATOM     15  C   UNL     1      10.362   3.218  19.961  0.00  0.00    +0.000 A 
ATOM     16  C   UNL     1       9.761   3.266  18.706  0.00  0.00    +0.000 A 
ENDBRANCH  10  11
ENDBRANCH   1  10
TORSDOF 2
ENDMDL
MODEL 7
REMARK VINA RESULT:    -4.452      3.533      4.971
REMARK INTER + INTRA:          -5.157
REMARK INTER:                  -5.059
REMARK INTRA:                  -0.098
REMARK UNBOUND:                -0.185
REMARK  Name = 1550473
REMARK  2 active torsions:
REMARK  status: ('A' for Active; 'I' for Inactive)
REMARK    1  A    between atoms: N_1  and  C_4
REMARK    2  A    between atoms: C_4  and  C_5
REMARK                            x       y       z     vdW  Elec       q    Type
REMARK                         _______ _______ _______ _____ _____    ______ ____
ROOT
ATOM      1  N   UNL     1      12.640  18.160  14.489  0.00  0.00    -0.354 N 
ATOM      2  N   UNL     1      14.211  19.626  15.354  0.00  0.00    -0.372 N 
ATOM      3  N   UNL     1      14.564  17.368  15.567  0.00  0.00    -0.372 N 
ATOM      4  C   UNL     1      13.796  18.373  15.132  0.00  0.00    +0.166 C 
ATOM      5  H   UNL     1      12.089  18.964  14.211  0.00  0.00    +0.163 HD
ATOM      6  H   UNL     1      15.080  19.817  15.834  0.00  0.00    +0.159 HD
ATOM      7  H   UNL     1      13.681  20.427  15.035  0.00  0.00    +0.159 HD
ATOM      8  H   UNL     1      14.304  16.400  15.437  0.00  0.00    +0.159 HD
ATOM      9  H   UNL     1      15.432  17.540  16.060  0.00  0.00    +0.159 HD
ENDROOT
BRANCH   1  10
ATOM     10  C   UNL     1      12.125  16.835  14.150  0.00  0.00    +0.151 C 
BRANCH  10  11
ATOM     11  C   UNL     1      10.645  16.933  13.899  0.00  0.00    -0.028 A 
ATOM     12  C   UNL     1      10.152  17.698  12.832  0.00  0.00    +0.005 A 
ATOM     13  C   UNL     1       9.730  16.257  14.722  0.00  0.00    +0.005 A 
ATOM     14  C   UNL     1       8.780  17.765  12.581  0.00  0.00    +0.000 A 
ATOM     15  C   UNL     1       8.361  16.327  14.468  0.00  0.00    +0.000 A 
ATOM     16  C   UNL     1       7.886  17.079  13.397  0.00  0.00    +0.000 A 
ENDBRANCH  10  11
ENDBRANCH   1  10
TORSDOF 2
ENDMDL
MODEL 8
REMARK VINA RESULT:    -4.413     20.102     20.944
REMARK INTER + INTRA:          -5.114
REMARK INTER:                  -5.002
REMARK INTRA:                  -0.111
REMARK UNBOUND:                -0.185
REMARK  Name = 1550473
REMARK  2 active torsions:
REMARK  status: ('A' for Active; 'I' for Inactive)
REMARK    1  A    between atoms: N_1  and  C_4
REMARK    2  A    between atoms: C_4  and  C_5
REMARK                            x       y       z     vdW  Elec       q    Type
REMARK                         _______ _______ _______ _____ _____    ______ ____
ROOT
ATOM      1  N   UNL     1      20.679  -0.248  12.993  0.00  0.00    -0.354 N 
ATOM      2  N   UNL     1      19.166  -1.465  14.255  0.00  0.00    -0.372 N 
ATOM      3  N   UNL     1      21.100  -0.729  15.247  0.00  0.00    -0.372 N 
ATOM      4  C   UNL     1      20.327  -0.806  14.159  0.00  0.00    +0.166 C 
ATOM      5  H   UNL     1      20.063  -0.368  12.196  0.00  0.00    +0.163 HD
ATOM      6  H   UNL     1      18.872  -1.893  15.123  0.00  0.00    +0.159 HD
ATOM      7  H   UNL     1      18.531  -1.544  13.470  0.00  0.00    +0.159 HD
ATOM      8  H   UNL     1      21.991  -0.251  15.239  0.00  0.00    +0.159 HD
ATOM      9  H   UNL     1      20.828  -1.161  16.122  0.00  0.00    +0.159 HD
ENDROOT
BRANCH   1  10
ATOM     10  C   UNL     1      21.896   0.537  12.796  0.00  0.00    +0.151 C 
BRANCH  10  11
ATOM     11  C   UNL     1      22.100   0.768  11.324  0.00  0.00    -0.028 A 
ATOM     12  C   UNL     1      21.003   1.005  10.482  0.00  0.00    +0.005 A 
ATOM     13  C   UNL     1      23.387   0.756  10.766  0.00  0.00    +0.005 A 
ATOM     14  C   UNL     1      21.194   1.249   9.120  0.00  0.00    +0.000 A 
ATOM     15  C   UNL     1      23.573   1.000   9.405  0.00  0.00    +0.000 A 
ATOM     16  C   UNL     1      22.477   1.249   8.583  0.00  0.00    +0.000 A 
ENDBRANCH  10  11
ENDBRANCH   1  10
TORSDOF 2
ENDMDL
MODEL 9
REMARK VINA RESULT:    -4.323     28.865     29.329
REMARK INTER + INTRA:          -5.013
REMARK INTER:                  -4.903
REMARK INTRA:                  -0.110
REMARK UNBOUND:                -0.185
REMARK  Name = 1550473
REMARK  2 active torsions:
REMARK  status: ('A' for Active; 'I' for Inactive)
REMARK    1  A    between atoms: N_1  and  C_4
REMARK    2  A    between atoms: C_4  and  C_5
REMARK                            x       y       z     vdW  Elec       q    Type
REMARK                         _______ _______ _______ _____ _____    ______ ____
ROOT
ATOM      1  N   UNL     1      16.841  -8.910  -0.844  0.00  0.00    -0.354 N 
ATOM      2  N   UNL     1      17.971 -10.671   0.150  0.00  0.00    -0.372 N 
ATOM      3  N   UNL     1      18.856  -8.559   0.300  0.00  0.00    -0.372 N 
ATOM      4  C   UNL     1      17.884  -9.367  -0.137  0.00  0.00    +0.166 C 
ATOM      5  H   UNL     1      16.153  -9.578  -1.172  0.00  0.00    +0.163 HD
ATOM      6  H   UNL     1      18.744 -11.044   0.685  0.00  0.00    +0.159 HD
ATOM      7  H   UNL     1      17.258 -11.329  -0.139  0.00  0.00    +0.159 HD
ATOM      8  H   UNL     1      18.853  -7.566   0.111  0.00  0.00    +0.159 HD
ATOM      9  H   UNL     1      19.644  -8.916   0.826  0.00  0.00    +0.159 HD
ENDROOT
BRANCH   1  10
ATOM     10  C   UNL     1      16.624  -7.501  -1.164  0.00  0.00    +0.151 C 
BRANCH  10  11
ATOM     11  C   UNL     1      15.550  -7.394  -2.211  0.00  0.00    -0.028 A 
ATOM     12  C   UNL     1      15.668  -6.472  -3.261  0.00  0.00    +0.005 A 
ATOM     13  C   UNL     1      14.414  -8.217  -2.161  0.00  0.00    +0.005 A 
ATOM     14  C   UNL     1      14.685  -6.394  -4.250  0.00  0.00    +0.000 A 
ATOM     15  C   UNL     1      13.434  -8.135  -3.150  0.00  0.00    +0.000 A 
ATOM     16  C   UNL     1      13.571  -7.225  -4.196  0.00  0.00    +0.000 A 
ENDBRANCH  10  11
ENDBRANCH   1  10
TORSDOF 2
ENDMDL
