MODEL 1
REMARK VINA RESULT:    -6.323      0.000      0.000
REMARK INTER + INTRA:          -7.189
REMARK INTER:                  -7.062
REMARK INTRA:                  -0.127
REMARK UNBOUND:                -0.127
REMARK  Name = 1550473
REMARK  2 active torsions:
REMARK  status: ('A' for Active; 'I' for Inactive)
REMARK    1  A    between atoms: N_1  and  C_4
REMARK    2  A    between atoms: C_4  and  C_5
REMARK                            x       y       z     vdW  Elec       q    Type
REMARK                         _______ _______ _______ _____ _____    ______ ____
ROOT
ATOM      1  N   UNL     1      -3.576  -0.553  -1.721  0.00  0.00    -0.354 N 
ATOM      2  N   UNL     1      -2.877   1.244  -0.439  0.00  0.00    -0.372 N 
ATOM      3  N   UNL     1      -1.312  -0.252  -1.197  0.00  0.00    -0.372 N 
ATOM      4  C   UNL     1      -2.591   0.133  -1.128  0.00  0.00    +0.166 C 
ATOM      5  H   UNL     1      -4.529  -0.225  -1.605  0.00  0.00    +0.163 HD
ATOM      6  H   UNL     1      -2.154   1.785   0.017  0.00  0.00    +0.159 HD
ATOM      7  H   UNL     1      -3.824   1.595  -0.363  0.00  0.00    +0.159 HD
ATOM      8  H   UNL     1      -1.030  -1.085  -1.697  0.00  0.00    +0.159 HD
ATOM      9  H   UNL     1      -0.576   0.269  -0.738  0.00  0.00    +0.159 HD
ENDROOT
BRANCH   1  10
ATOM     10  C   UNL     1      -3.365  -1.746  -2.539  0.00  0.00    +0.151 C 
BRANCH  10  11
ATOM     11  C   UNL     1      -4.395  -1.780  -3.634  0.00  0.00    -0.028 A 
ATOM     12  C   UNL     1      -4.742  -0.607  -4.321  0.00  0.00    +0.005 A 
ATOM     13  C   UNL     1      -5.023  -2.982  -3.993  0.00  0.00    +0.005 A 
ATOM     14  C   UNL     1      -5.677  -0.643  -5.359  0.00  0.00    +0.000 A 
ATOM     15  C   UNL     1      -5.957  -3.014  -5.029  0.00  0.00    +0.000 A 
ATOM     16  C   UNL     1      -6.282  -1.845  -5.713  0.00  0.00    +0.000 A 
ENDBRANCH  10  11
ENDBRANCH   1  10
TORSDOF 2
ENDMDL
MODEL 2
REMARK VINA RESULT:    -6.175      4.159      7.625
REMARK INTER + INTRA:          -7.024
REMARK INTER:                  -6.911
REMARK INTRA:                  -0.113
REMARK UNBOUND:                -0.127
REMARK  Name = 1550473
REMARK  2 active torsions:
REMARK  status: ('A' for Active; 'I' for Inactive)
REMARK    1  A    between atoms: N_1  and  C_4
REMARK    2  A    between atoms: C_4  and  C_5
REMARK                            x       y       z     vdW  Elec       q    Type
REMARK                         _______ _______ _______ _____ _____    ______ ____
ROOT
ATOM      1  N   UNL     1      -2.650   0.892   0.342  0.00  0.00    -0.354 N 
ATOM      2  N   UNL     1      -2.103   0.781  -1.906  0.00  0.00    -0.372 N 
ATOM      3  N   UNL     1      -4.309   0.627  -1.292  0.00  0.00    -0.372 N 
ATOM      4  C   UNL     1      -3.027   0.767  -0.937  0.00  0.00    +0.166 C 
ATOM      5  H   UNL     1      -1.660   0.965   0.547  0.00  0.00    +0.163 HD
ATOM      6  H   UNL     1      -2.358   0.692  -2.880  0.00  0.00    +0.159 HD
ATOM      7  H   UNL     1      -1.119   0.900  -1.701  0.00  0.00    +0.159 HD
ATOM      8  H   UNL     1      -5.054   0.602  -0.608  0.00  0.00    +0.159 HD
ATOM      9  H   UNL     1      -4.583   0.524  -2.261  0.00  0.00    +0.159 HD
ENDROOT
BRANCH   1  10
ATOM     10  C   UNL     1      -3.581   0.943   1.468  0.00  0.00    +0.151 C 
BRANCH  10  11
ATOM     11  C   UNL     1      -2.805   1.164   2.737  0.00  0.00    -0.028 A 
ATOM     12  C   UNL     1      -1.700   2.028   2.755  0.00  0.00    +0.005 A 
ATOM     13  C   UNL     1      -3.174   0.517   3.927  0.00  0.00    +0.005 A 
ATOM     14  C   UNL     1      -0.998   2.257   3.941  0.00  0.00    +0.000 A 
ATOM     15  C   UNL     1      -2.469   0.747   5.108  0.00  0.00    +0.000 A 
ATOM     16  C   UNL     1      -1.383   1.619   5.115  0.00  0.00    +0.000 A 
ENDBRANCH  10  11
ENDBRANCH   1  10
TORSDOF 2
ENDMDL
MODEL 3
REMARK VINA RESULT:    -6.152      1.584      2.646
REMARK INTER + INTRA:          -6.998
REMARK INTER:                  -6.859
REMARK INTRA:                  -0.139
REMARK UNBOUND:                -0.127
REMARK  Name = 1550473
REMARK  2 active torsions:
REMARK  status: ('A' for Active; 'I' for Inactive)
REMARK    1  A    between atoms: N_1  and  C_4
REMARK    2  A    between atoms: C_4  and  C_5
REMARK                            x       y       z     vdW  Elec       q    Type
REMARK                         _______ _______ _______ _____ _____    ______ ____
ROOT
ATOM      1  N   UNL     1      -2.831   0.938  -0.397  0.00  0.00    -0.354 N 
ATOM      2  N   UNL     1      -1.700   0.585   1.593  0.00  0.00    -0.372 N 
ATOM      3  N   UNL     1      -3.860   1.354   1.667  0.00  0.00    -0.372 N 
ATOM      4  C   UNL     1      -2.807   0.963   0.942  0.00  0.00    +0.166 C 
ATOM      5  H   UNL     1      -1.989   0.660  -0.888  0.00  0.00    +0.163 HD
ATOM      6  H   UNL     1      -1.653   0.590   2.603  0.00  0.00    +0.159 HD
ATOM      7  H   UNL     1      -0.875   0.264   1.100  0.00  0.00    +0.159 HD
ATOM      8  H   UNL     1      -4.724   1.657   1.236  0.00  0.00    +0.159 HD
ATOM      9  H   UNL     1      -3.829   1.377   2.678  0.00  0.00    +0.159 HD
ENDROOT
BRANCH   1  10
ATOM     10  C   UNL     1      -4.004   1.277  -1.200  0.00  0.00    +0.151 C 
BRANCH  10  11
ATOM     11  C   UNL     1      -4.218   0.207  -2.234  0.00  0.00    -0.028 A 
ATOM     12  C   UNL     1      -4.944   0.480  -3.402  0.00  0.00    +0.005 A 
ATOM     13  C   UNL     1      -3.692  -1.082  -2.055  0.00  0.00    +0.005 A 
ATOM     14  C   UNL     1      -5.118  -0.505  -4.377  0.00  0.00    +0.000 A 
ATOM     15  C   UNL     1      -3.868  -2.063  -3.030  0.00  0.00    +0.000 A 
ATOM     16  C   UNL     1      -4.578  -1.774  -4.192  0.00  0.00    +0.000 A 
ENDBRANCH  10  11
ENDBRANCH   1  10
TORSDOF 2
ENDMDL
MODEL 4
REMARK VINA RESULT:    -5.917      1.021      2.036
REMARK INTER + INTRA:          -6.736
REMARK INTER:                  -6.641
REMARK INTRA:                  -0.094
REMARK UNBOUND:                -0.127
REMARK  Name = 1550473
REMARK  2 active torsions:
REMARK  status: ('A' for Active; 'I' for Inactive)
REMARK    1  A    between atoms: N_1  and  C_4
REMARK    2  A    between atoms: C_4  and  C_5
REMARK                            x       y       z     vdW  Elec       q    Type
REMARK                         _______ _______ _______ _____ _____    ______ ____
ROOT
ATOM      1  N   UNL     1      -3.280  -0.304  -2.890  0.00  0.00    -0.354 N 
ATOM      2  N   UNL     1      -1.292   0.134  -1.785  0.00  0.00    -0.372 N 
ATOM      3  N   UNL     1      -3.180   1.284  -1.169  0.00  0.00    -0.372 N 
ATOM      4  C   UNL     1      -2.599   0.370  -1.954  0.00  0.00    +0.166 C 
ATOM      5  H   UNL     1      -2.775  -0.961  -3.473  0.00  0.00    +0.163 HD
ATOM      6  H   UNL     1      -0.753   0.625  -1.084  0.00  0.00    +0.159 HD
ATOM      7  H   UNL     1      -0.800  -0.557  -2.338  0.00  0.00    +0.159 HD
ATOM      8  H   UNL     1      -4.162   1.513  -1.250  0.00  0.00    +0.159 HD
ATOM      9  H   UNL     1      -2.655   1.794  -0.470  0.00  0.00    +0.159 HD
ENDROOT
BRANCH   1  10
ATOM     10  C   UNL     1      -4.716  -0.160  -3.119  0.00  0.00    +0.151 C 
BRANCH  10  11
ATOM     11  C   UNL     1      -5.120  -1.032  -4.276  0.00  0.00    -0.028 A 
ATOM     12  C   UNL     1      -5.119  -2.429  -4.149  0.00  0.00    +0.005 A 
ATOM     13  C   UNL     1      -5.509  -0.467  -5.500  0.00  0.00    +0.005 A 
ATOM     14  C   UNL     1      -5.522  -3.238  -5.213  0.00  0.00    +0.000 A 
ATOM     15  C   UNL     1      -5.910  -1.279  -6.561  0.00  0.00    +0.000 A 
ATOM     16  C   UNL     1      -5.919  -2.664  -6.417  0.00  0.00    +0.000 A 
ENDBRANCH  10  11
ENDBRANCH   1  10
TORSDOF 2
ENDMDL
MODEL 5
REMARK VINA RESULT:    -5.908      3.723      5.185
REMARK INTER + INTRA:          -6.725
REMARK INTER:                  -6.557
REMARK INTRA:                  -0.168
REMARK UNBOUND:                -0.127
REMARK  Name = 1550473
REMARK  2 active torsions:
REMARK  status: ('A' for Active; 'I' for Inactive)
REMARK    1  A    between atoms: N_1  and  C_4
REMARK    2  A    between atoms: C_4  and  C_5
REMARK                            x       y       z     vdW  Elec       q    Type
REMARK                         _______ _______ _______ _____ _____    ______ ____
ROOT
ATOM      1  N   UNL     1      -5.435  -0.711  -7.172  0.00  0.00    -0.354 N 
ATOM      2  N   UNL     1      -4.249  -0.606  -9.158  0.00  0.00    -0.372 N 
ATOM      3  N   UNL     1      -4.752  -2.663  -8.275  0.00  0.00    -0.372 N 
ATOM      4  C   UNL     1      -4.820  -1.330  -8.188  0.00  0.00    +0.166 C 
ATOM      5  H   UNL     1      -5.426   0.302  -7.149  0.00  0.00    +0.163 HD
ATOM      6  H   UNL     1      -3.781  -1.045  -9.940  0.00  0.00    +0.159 HD
ATOM      7  H   UNL     1      -4.281   0.406  -9.157  0.00  0.00    +0.159 HD
ATOM      8  H   UNL     1      -5.157  -3.267  -7.572  0.00  0.00    +0.159 HD
ATOM      9  H   UNL     1      -4.277  -3.121  -9.043  0.00  0.00    +0.159 HD
ENDROOT
BRANCH   1  10
ATOM     10  C   UNL     1      -6.134  -1.408  -6.093  0.00  0.00    +0.151 C 
BRANCH  10  11
ATOM     11  C   UNL     1      -5.323  -1.299  -4.832  0.00  0.00    -0.028 A 
ATOM     12  C   UNL     1      -5.085  -0.048  -4.244  0.00  0.00    +0.005 A 
ATOM     13  C   UNL     1      -4.794  -2.444  -4.216  0.00  0.00    +0.005 A 
ATOM     14  C   UNL     1      -4.356   0.050  -3.056  0.00  0.00    +0.000 A 
ATOM     15  C   UNL     1      -4.066  -2.341  -3.031  0.00  0.00    +0.000 A 
ATOM     16  C   UNL     1      -3.850  -1.094  -2.449  0.00  0.00    +0.000 A 
ENDBRANCH  10  11
ENDBRANCH   1  10
TORSDOF 2
ENDMDL
MODEL 6
REMARK VINA RESULT:    -5.874      3.943      5.631
REMARK INTER + INTRA:          -6.687
REMARK INTER:                  -6.520
REMARK INTRA:                  -0.166
REMARK UNBOUND:                -0.127
REMARK  Name = 1550473
REMARK  2 active torsions:
REMARK  status: ('A' for Active; 'I' for Inactive)
REMARK    1  A    between atoms: N_1  and  C_4
REMARK    2  A    between atoms: C_4  and  C_5
REMARK                            x       y       z     vdW  Elec       q    Type
REMARK                         _______ _______ _______ _____ _____    ______ ____
ROOT
ATOM      1  N   UNL     1      -4.906  -3.493  -6.844  0.00  0.00    -0.354 N 
ATOM      2  N   UNL     1      -4.121  -3.334  -9.017  0.00  0.00    -0.372 N 
ATOM      3  N   UNL     1      -6.217  -2.536  -8.534  0.00  0.00    -0.372 N 
ATOM      4  C   UNL     1      -5.089  -3.121  -8.118  0.00  0.00    +0.166 C 
ATOM      5  H   UNL     1      -4.040  -3.960  -6.599  0.00  0.00    +0.163 HD
ATOM      6  H   UNL     1      -4.229  -3.060  -9.985  0.00  0.00    +0.159 HD
ATOM      7  H   UNL     1      -3.238  -3.758  -8.759  0.00  0.00    +0.159 HD
ATOM      8  H   UNL     1      -6.989  -2.352  -7.906  0.00  0.00    +0.159 HD
ATOM      9  H   UNL     1      -6.349  -2.265  -9.501  0.00  0.00    +0.159 HD
ENDROOT
BRANCH   1  10
ATOM     10  C   UNL     1      -5.876  -3.258  -5.776  0.00  0.00    +0.151 C 
BRANCH  10  11
ATOM     11  C   UNL     1      -5.309  -2.256  -4.809  0.00  0.00    -0.028 A 
ATOM     12  C   UNL     1      -4.561  -2.680  -3.701  0.00  0.00    +0.005 A 
ATOM     13  C   UNL     1      -5.511  -0.880  -4.999  0.00  0.00    +0.005 A 
ATOM     14  C   UNL     1      -4.009  -1.748  -2.819  0.00  0.00    +0.000 A 
ATOM     15  C   UNL     1      -4.959   0.047  -4.115  0.00  0.00    +0.000 A 
ATOM     16  C   UNL     1      -4.206  -0.387  -3.027  0.00  0.00    +0.000 A 
ENDBRANCH  10  11
ENDBRANCH   1  10
TORSDOF 2
ENDMDL
MODEL 7
REMARK VINA RESULT:    -5.603      5.079      6.784
REMARK INTER + INTRA:          -6.384
REMARK INTER:                  -6.256
REMARK INTRA:                  -0.128
REMARK UNBOUND:                -0.127
REMARK  Name = 1550473
REMARK  2 active torsions:
REMARK  status: ('A' for Active; 'I' for Inactive)
REMARK    1  A    between atoms: N_1  and  C_4
REMARK    2  A    between atoms: C_4  and  C_5
REMARK                            x       y       z     vdW  Elec       q    Type
REMARK                         _______ _______ _______ _____ _____    ______ ____
ROOT
ATOM      1  N   UNL     1      -6.354  -0.863  -8.964  0.00  0.00    -0.354 N 
ATOM      2  N   UNL     1      -7.341   0.593 -10.471  0.00  0.00    -0.372 N 
ATOM      3  N   UNL     1      -7.833  -1.644 -10.606  0.00  0.00    -0.372 N 
ATOM      4  C   UNL     1      -7.171  -0.650 -10.005  0.00  0.00    +0.166 C 
ATOM      5  H   UNL     1      -5.858  -0.071  -8.572  0.00  0.00    +0.163 HD
ATOM      6  H   UNL     1      -7.953   0.785 -11.253  0.00  0.00    +0.159 HD
ATOM      7  H   UNL     1      -6.879   1.389 -10.048  0.00  0.00    +0.159 HD
ATOM      8  H   UNL     1      -7.743  -2.606 -10.306  0.00  0.00    +0.159 HD
ATOM      9  H   UNL     1      -8.441  -1.474 -11.397  0.00  0.00    +0.159 HD
ENDROOT
BRANCH   1  10
ATOM     10  C   UNL     1      -6.141  -2.171  -8.346  0.00  0.00    +0.151 C 
BRANCH  10  11
ATOM     11  C   UNL     1      -5.786  -1.977  -6.897  0.00  0.00    -0.028 A 
ATOM     12  C   UNL     1      -5.680  -3.080  -6.037  0.00  0.00    +0.005 A 
ATOM     13  C   UNL     1      -5.548  -0.694  -6.381  0.00  0.00    +0.005 A 
ATOM     14  C   UNL     1      -5.320  -2.903  -4.699  0.00  0.00    +0.000 A 
ATOM     15  C   UNL     1      -5.190  -0.522  -5.044  0.00  0.00    +0.000 A 
ATOM     16  C   UNL     1      -5.074  -1.627  -4.204  0.00  0.00    +0.000 A 
ENDBRANCH  10  11
ENDBRANCH   1  10
TORSDOF 2
ENDMDL
MODEL 8
REMARK VINA RESULT:    -5.517      3.239      5.333
REMARK INTER + INTRA:          -6.289
REMARK INTER:                  -6.168
REMARK INTRA:                  -0.120
REMARK UNBOUND:                -0.127
REMARK  Name = 1550473
REMARK  2 active torsions:
REMARK  status: ('A' for Active; 'I' for Inactive)
REMARK    1  A    between atoms: N_1  and  C_4
REMARK    2  A    between atoms: C_4  and  C_5
REMARK                            x       y       z     vdW  Elec       q    Type
REMARK                         _______ _______ _______ _____ _____    ______ ____
ROOT
ATOM      1  N   UNL     1      -5.355  -1.921  -5.482  0.00  0.00    -0.354 N 
ATOM      2  N   UNL     1      -5.438  -3.538  -7.138  0.00  0.00    -0.372 N 
ATOM      3  N   UNL     1      -6.168  -1.417  -7.621  0.00  0.00    -0.372 N 
ATOM      4  C   UNL     1      -5.654  -2.279  -6.737  0.00  0.00    +0.166 C 
ATOM      5  H   UNL     1      -4.996  -2.629  -4.852  0.00  0.00    +0.163 HD
ATOM      6  H   UNL     1      -5.651  -3.837  -8.080  0.00  0.00    +0.159 HD
ATOM      7  H   UNL     1      -5.036  -4.232  -6.519  0.00  0.00    +0.159 HD
ATOM      8  H   UNL     1      -6.361  -0.454  -7.380  0.00  0.00    +0.159 HD
ATOM      9  H   UNL     1      -6.399  -1.701  -8.565  0.00  0.00    +0.159 HD
ENDROOT
BRANCH   1  10
ATOM     10  C   UNL     1      -5.502  -0.562  -4.962  0.00  0.00    +0.151 C 
BRANCH  10  11
ATOM     11  C   UNL     1      -4.686  -0.426  -3.706  0.00  0.00    -0.028 A 
ATOM     12  C   UNL     1      -3.484  -1.132  -3.558  0.00  0.00    +0.005 A 
ATOM     13  C   UNL     1      -5.108   0.413  -2.663  0.00  0.00    +0.005 A 
ATOM     14  C   UNL     1      -2.710  -0.982  -2.404  0.00  0.00    +0.000 A 
ATOM     15  C   UNL     1      -4.333   0.559  -1.512  0.00  0.00    +0.000 A 
ATOM     16  C   UNL     1      -3.133  -0.137  -1.384  0.00  0.00    +0.000 A 
ENDBRANCH  10  11
ENDBRANCH   1  10
TORSDOF 2
ENDMDL
MODEL 9
REMARK VINA RESULT:    -5.408      5.239      6.777
REMARK INTER + INTRA:          -6.167
REMARK INTER:                  -6.072
REMARK INTRA:                  -0.094
REMARK UNBOUND:                -0.127
REMARK  Name = 1550473
REMARK  2 active torsions:
REMARK  status: ('A' for Active; 'I' for Inactive)
REMARK    1  A    between atoms: N_1  and  C_4
REMARK    2  A    between atoms: C_4  and  C_5
REMARK                            x       y       z     vdW  Elec       q    Type
REMARK                         _______ _______ _______ _____ _____    ______ ____
ROOT
ATOM      1  N   UNL     1      -5.046  -3.229  -9.095  0.00  0.00    -0.354 N 
ATOM      2  N   UNL     1      -3.749  -3.793 -10.928  0.00  0.00    -0.372 N 
ATOM      3  N   UNL     1      -5.830  -2.892 -11.277  0.00  0.00    -0.372 N 
ATOM      4  C   UNL     1      -4.886  -3.300 -10.423  0.00  0.00    +0.166 C 
ATOM      5  H   UNL     1      -4.305  -3.582  -8.501  0.00  0.00    +0.163 HD
ATOM      6  H   UNL     1      -3.598  -3.856 -11.926  0.00  0.00    +0.159 HD
ATOM      7  H   UNL     1      -2.991  -4.103 -10.332  0.00  0.00    +0.159 HD
ATOM      8  H   UNL     1      -6.713  -2.516 -10.960  0.00  0.00    +0.159 HD
ATOM      9  H   UNL     1      -5.702  -2.958 -12.279  0.00  0.00    +0.159 HD
ENDROOT
BRANCH   1  10
ATOM     10  C   UNL     1      -6.224  -2.659  -8.443  0.00  0.00    +0.151 C 
BRANCH  10  11
ATOM     11  C   UNL     1      -5.855  -2.229  -7.050  0.00  0.00    -0.028 A 
ATOM     12  C   UNL     1      -5.597  -0.880  -6.766  0.00  0.00    +0.005 A 
ATOM     13  C   UNL     1      -5.767  -3.166  -6.008  0.00  0.00    +0.005 A 
ATOM     14  C   UNL     1      -5.283  -0.476  -5.466  0.00  0.00    +0.000 A 
ATOM     15  C   UNL     1      -5.453  -2.758  -4.712  0.00  0.00    +0.000 A 
ATOM     16  C   UNL     1      -5.213  -1.414  -4.440  0.00  0.00    +0.000 A 
ENDBRANCH  10  11
ENDBRANCH   1  10
TORSDOF 2
ENDMDL
