MODEL 1
REMARK VINA RESULT:    -5.899      0.000      0.000
REMARK INTER + INTRA:          -6.666
REMARK INTER:                  -6.588
REMARK INTRA:                  -0.078
REMARK UNBOUND:                -0.078
REMARK  Name = 1550473
REMARK  2 active torsions:
REMARK  status: ('A' for Active; 'I' for Inactive)
REMARK    1  A    between atoms: N_1  and  C_4
REMARK    2  A    between atoms: C_4  and  C_5
REMARK                            x       y       z     vdW  Elec       q    Type
REMARK                         _______ _______ _______ _____ _____    ______ ____
ROOT
ATOM      1  N   UNL     1       2.814  14.649  -8.330  0.00  0.00    -0.354 N 
ATOM      2  N   UNL     1       3.977  16.367  -9.360  0.00  0.00    -0.372 N 
ATOM      3  N   UNL     1       4.869  15.392  -7.485  0.00  0.00    -0.372 N 
ATOM      4  C   UNL     1       3.881  15.458  -8.383  0.00  0.00    +0.166 C 
ATOM      5  H   UNL     1       2.085  14.769  -9.023  0.00  0.00    +0.163 HD
ATOM      6  H   UNL     1       4.772  16.988  -9.428  0.00  0.00    +0.159 HD
ATOM      7  H   UNL     1       3.268  16.454 -10.079  0.00  0.00    +0.159 HD
ATOM      8  H   UNL     1       4.854  14.732  -6.719  0.00  0.00    +0.159 HD
ATOM      9  H   UNL     1       5.667  16.014  -7.528  0.00  0.00    +0.159 HD
ENDROOT
BRANCH   1  10
ATOM     10  C   UNL     1       2.639  13.590  -7.338  0.00  0.00    +0.151 C 
BRANCH  10  11
ATOM     11  C   UNL     1       2.998  12.269  -7.961  0.00  0.00    -0.028 A 
ATOM     12  C   UNL     1       3.036  11.102  -7.184  0.00  0.00    +0.005 A 
ATOM     13  C   UNL     1       3.296  12.177  -9.329  0.00  0.00    +0.005 A 
ATOM     14  C   UNL     1       3.339   9.870  -7.768  0.00  0.00    +0.000 A 
ATOM     15  C   UNL     1       3.600  10.945  -9.909  0.00  0.00    +0.000 A 
ATOM     16  C   UNL     1       3.619   9.791  -9.128  0.00  0.00    +0.000 A 
ENDBRANCH  10  11
ENDBRANCH   1  10
TORSDOF 2
ENDMDL
MODEL 2
REMARK VINA RESULT:    -5.701     22.955     24.074
REMARK INTER + INTRA:          -6.446
REMARK INTER:                  -6.294
REMARK INTRA:                  -0.151
REMARK UNBOUND:                -0.078
REMARK  Name = 1550473
REMARK  2 active torsions:
REMARK  status: ('A' for Active; 'I' for Inactive)
REMARK    1  A    between atoms: N_1  and  C_4
REMARK    2  A    between atoms: C_4  and  C_5
REMARK                            x       y       z     vdW  Elec       q    Type
REMARK                         _______ _______ _______ _____ _____    ______ ____
ROOT
ATOM      1  N   UNL     1      -7.594  -2.810   6.211  0.00  0.00    -0.354 N 
ATOM      2  N   UNL     1      -9.589  -1.719   6.650  0.00  0.00    -0.372 N 
ATOM      3  N   UNL     1      -8.286  -0.989   4.908  0.00  0.00    -0.372 N 
ATOM      4  C   UNL     1      -8.475  -1.845   5.918  0.00  0.00    +0.166 C 
ATOM      5  H   UNL     1      -7.781  -3.407   7.008  0.00  0.00    +0.163 HD
ATOM      6  H   UNL     1     -10.274  -1.002   6.451  0.00  0.00    +0.159 HD
ATOM      7  H   UNL     1      -9.796  -2.346   7.418  0.00  0.00    +0.159 HD
ATOM      8  H   UNL     1      -7.463  -1.027   4.321  0.00  0.00    +0.159 HD
ATOM      9  H   UNL     1      -8.954  -0.258   4.700  0.00  0.00    +0.159 HD
ENDROOT
BRANCH   1  10
ATOM     10  C   UNL     1      -6.377  -3.066   5.443  0.00  0.00    +0.151 C 
BRANCH  10  11
ATOM     11  C   UNL     1      -6.542  -4.347   4.673  0.00  0.00    -0.028 A 
ATOM     12  C   UNL     1      -5.766  -4.598   3.532  0.00  0.00    +0.005 A 
ATOM     13  C   UNL     1      -7.469  -5.317   5.083  0.00  0.00    +0.005 A 
ATOM     14  C   UNL     1      -5.898  -5.801   2.835  0.00  0.00    +0.000 A 
ATOM     15  C   UNL     1      -7.599  -6.517   4.384  0.00  0.00    +0.000 A 
ATOM     16  C   UNL     1      -6.811  -6.759   3.261  0.00  0.00    +0.000 A 
ENDBRANCH  10  11
ENDBRANCH   1  10
TORSDOF 2
ENDMDL
MODEL 3
REMARK VINA RESULT:    -5.551     22.088     22.795
REMARK INTER + INTRA:          -6.278
REMARK INTER:                  -6.166
REMARK INTRA:                  -0.112
REMARK UNBOUND:                -0.078
REMARK  Name = 1550473
REMARK  2 active torsions:
REMARK  status: ('A' for Active; 'I' for Inactive)
REMARK    1  A    between atoms: N_1  and  C_4
REMARK    2  A    between atoms: C_4  and  C_5
REMARK                            x       y       z     vdW  Elec       q    Type
REMARK                         _______ _______ _______ _____ _____    ______ ____
ROOT
ATOM      1  N   UNL     1      -6.406  -2.564   4.874  0.00  0.00    -0.354 N 
ATOM      2  N   UNL     1      -6.127  -0.419   5.702  0.00  0.00    -0.372 N 
ATOM      3  N   UNL     1      -8.125  -1.491   6.051  0.00  0.00    -0.372 N 
ATOM      4  C   UNL     1      -6.891  -1.506   5.538  0.00  0.00    +0.166 C 
ATOM      5  H   UNL     1      -5.473  -2.501   4.483  0.00  0.00    +0.163 HD
ATOM      6  H   UNL     1      -6.464   0.393   6.201  0.00  0.00    +0.159 HD
ATOM      7  H   UNL     1      -5.178  -0.377   5.349  0.00  0.00    +0.159 HD
ATOM      8  H   UNL     1      -8.754  -2.278   5.957  0.00  0.00    +0.159 HD
ATOM      9  H   UNL     1      -8.485  -0.683   6.544  0.00  0.00    +0.159 HD
ENDROOT
BRANCH   1  10
ATOM     10  C   UNL     1      -7.137  -3.817   4.687  0.00  0.00    +0.151 C 
BRANCH  10  11
ATOM     11  C   UNL     1      -6.958  -4.282   3.268  0.00  0.00    -0.028 A 
ATOM     12  C   UNL     1      -8.061  -4.382   2.407  0.00  0.00    +0.005 A 
ATOM     13  C   UNL     1      -5.687  -4.619   2.777  0.00  0.00    +0.005 A 
ATOM     14  C   UNL     1      -7.891  -4.786   1.081  0.00  0.00    +0.000 A 
ATOM     15  C   UNL     1      -5.522  -5.023   1.452  0.00  0.00    +0.000 A 
ATOM     16  C   UNL     1      -6.624  -5.103   0.604  0.00  0.00    +0.000 A 
ENDBRANCH  10  11
ENDBRANCH   1  10
TORSDOF 2
ENDMDL
MODEL 4
REMARK VINA RESULT:    -5.483     41.941     42.810
REMARK INTER + INTRA:          -6.201
REMARK INTER:                  -6.102
REMARK INTRA:                  -0.099
REMARK UNBOUND:                -0.078
REMARK  Name = 1550473
REMARK  2 active torsions:
REMARK  status: ('A' for Active; 'I' for Inactive)
REMARK    1  A    between atoms: N_1  and  C_4
REMARK    2  A    between atoms: C_4  and  C_5
REMARK                            x       y       z     vdW  Elec       q    Type
REMARK                         _______ _______ _______ _____ _____    ______ ____
ROOT
ATOM      1  N   UNL     1      -2.386 -16.054 -38.373  0.00  0.00    -0.354 N 
ATOM      2  N   UNL     1      -4.575 -15.297 -38.414  0.00  0.00    -0.372 N 
ATOM      3  N   UNL     1      -3.273 -15.028 -40.284  0.00  0.00    -0.372 N 
ATOM      4  C   UNL     1      -3.396 -15.463 -39.026  0.00  0.00    +0.166 C 
ATOM      5  H   UNL     1      -2.534 -16.335 -37.410  0.00  0.00    +0.163 HD
ATOM      6  H   UNL     1      -5.356 -14.858 -38.882  0.00  0.00    +0.159 HD
ATOM      7  H   UNL     1      -4.734 -15.620 -37.467  0.00  0.00    +0.159 HD
ATOM      8  H   UNL     1      -2.408 -15.118 -40.800  0.00  0.00    +0.159 HD
ATOM      9  H   UNL     1      -4.040 -14.575 -40.766  0.00  0.00    +0.159 HD
ENDROOT
BRANCH   1  10
ATOM     10  C   UNL     1      -1.080 -16.332 -38.967  0.00  0.00    +0.151 C 
BRANCH  10  11
ATOM     11  C   UNL     1      -0.471 -17.522 -38.280  0.00  0.00    -0.028 A 
ATOM     12  C   UNL     1      -0.736 -18.821 -38.737  0.00  0.00    +0.005 A 
ATOM     13  C   UNL     1       0.378 -17.358 -37.174  0.00  0.00    +0.005 A 
ATOM     14  C   UNL     1      -0.147 -19.926 -38.118  0.00  0.00    +0.000 A 
ATOM     15  C   UNL     1       0.964 -18.464 -36.558  0.00  0.00    +0.000 A 
ATOM     16  C   UNL     1       0.703 -19.747 -37.032  0.00  0.00    +0.000 A 
ENDBRANCH  10  11
ENDBRANCH   1  10
TORSDOF 2
ENDMDL
MODEL 5
REMARK VINA RESULT:    -5.280     15.301     16.546
REMARK INTER + INTRA:          -5.975
REMARK INTER:                  -5.855
REMARK INTRA:                  -0.120
REMARK UNBOUND:                -0.078
REMARK  Name = 1550473
REMARK  2 active torsions:
REMARK  status: ('A' for Active; 'I' for Inactive)
REMARK    1  A    between atoms: N_1  and  C_4
REMARK    2  A    between atoms: C_4  and  C_5
REMARK                            x       y       z     vdW  Elec       q    Type
REMARK                         _______ _______ _______ _____ _____    ______ ____
ROOT
ATOM      1  N   UNL     1       3.929  -3.604  -8.344  0.00  0.00    -0.354 N 
ATOM      2  N   UNL     1       5.967  -4.684  -8.558  0.00  0.00    -0.372 N 
ATOM      3  N   UNL     1       5.945  -2.450  -8.033  0.00  0.00    -0.372 N 
ATOM      4  C   UNL     1       5.268  -3.570  -8.310  0.00  0.00    +0.166 C 
ATOM      5  H   UNL     1       3.476  -4.477  -8.590  0.00  0.00    +0.163 HD
ATOM      6  H   UNL     1       6.978  -4.689  -8.536  0.00  0.00    +0.159 HD
ATOM      7  H   UNL     1       5.511  -5.566  -8.758  0.00  0.00    +0.159 HD
ATOM      8  H   UNL     1       5.476  -1.575  -7.842  0.00  0.00    +0.159 HD
ATOM      9  H   UNL     1       6.957  -2.433  -8.018  0.00  0.00    +0.159 HD
ENDROOT
BRANCH   1  10
ATOM     10  C   UNL     1       3.073  -2.460  -8.036  0.00  0.00    +0.151 C 
BRANCH  10  11
ATOM     11  C   UNL     1       1.645  -2.818  -8.341  0.00  0.00    -0.028 A 
ATOM     12  C   UNL     1       0.679  -1.815  -8.508  0.00  0.00    +0.005 A 
ATOM     13  C   UNL     1       1.252  -4.159  -8.470  0.00  0.00    +0.005 A 
ATOM     14  C   UNL     1      -0.641  -2.146  -8.821  0.00  0.00    +0.000 A 
ATOM     15  C   UNL     1      -0.068  -4.486  -8.781  0.00  0.00    +0.000 A 
ATOM     16  C   UNL     1      -1.013  -3.479  -8.959  0.00  0.00    +0.000 A 
ENDBRANCH  10  11
ENDBRANCH   1  10
TORSDOF 2
ENDMDL
MODEL 6
REMARK VINA RESULT:    -5.245      6.810      7.792
REMARK INTER + INTRA:          -5.936
REMARK INTER:                  -5.755
REMARK INTRA:                  -0.181
REMARK UNBOUND:                -0.078
REMARK  Name = 1550473
REMARK  2 active torsions:
REMARK  status: ('A' for Active; 'I' for Inactive)
REMARK    1  A    between atoms: N_1  and  C_4
REMARK    2  A    between atoms: C_4  and  C_5
REMARK                            x       y       z     vdW  Elec       q    Type
REMARK                         _______ _______ _______ _____ _____    ______ ____
ROOT
ATOM      1  N   UNL     1       6.425   9.824  -4.600  0.00  0.00    -0.354 N 
ATOM      2  N   UNL     1       4.946  11.319  -3.629  0.00  0.00    -0.372 N 
ATOM      3  N   UNL     1       6.884  12.122  -4.559  0.00  0.00    -0.372 N 
ATOM      4  C   UNL     1       6.097  11.081  -4.270  0.00  0.00    +0.166 C 
ATOM      5  H   UNL     1       5.800   9.075  -4.326  0.00  0.00    +0.163 HD
ATOM      6  H   UNL     1       4.670  12.256  -3.371  0.00  0.00    +0.159 HD
ATOM      7  H   UNL     1       4.301  10.573  -3.397  0.00  0.00    +0.159 HD
ATOM      8  H   UNL     1       7.768  12.009  -5.036  0.00  0.00    +0.159 HD
ATOM      9  H   UNL     1       6.630  13.067  -4.298  0.00  0.00    +0.159 HD
ENDROOT
BRANCH   1  10
ATOM     10  C   UNL     1       7.630   9.464  -5.346  0.00  0.00    +0.151 C 
BRANCH  10  11
ATOM     11  C   UNL     1       8.662   8.937  -4.387  0.00  0.00    -0.028 A 
ATOM     12  C   UNL     1       8.557   7.638  -3.870  0.00  0.00    +0.005 A 
ATOM     13  C   UNL     1       9.751   9.732  -3.996  0.00  0.00    +0.005 A 
ATOM     14  C   UNL     1       9.531   7.138  -3.003  0.00  0.00    +0.000 A 
ATOM     15  C   UNL     1      10.721   9.229  -3.129  0.00  0.00    +0.000 A 
ATOM     16  C   UNL     1      10.613   7.932  -2.635  0.00  0.00    +0.000 A 
ENDBRANCH  10  11
ENDBRANCH   1  10
TORSDOF 2
ENDMDL
MODEL 7
REMARK VINA RESULT:    -5.178     49.729     51.309
REMARK INTER + INTRA:          -5.861
REMARK INTER:                  -5.712
REMARK INTRA:                  -0.149
REMARK UNBOUND:                -0.078
REMARK  Name = 1550473
REMARK  2 active torsions:
REMARK  status: ('A' for Active; 'I' for Inactive)
REMARK    1  A    between atoms: N_1  and  C_4
REMARK    2  A    between atoms: C_4  and  C_5
REMARK                            x       y       z     vdW  Elec       q    Type
REMARK                         _______ _______ _______ _____ _____    ______ ____
ROOT
ATOM      1  N   UNL     1     -10.933 -22.660 -40.606  0.00  0.00    -0.354 N 
ATOM      2  N   UNL     1     -11.104 -23.644 -38.517  0.00  0.00    -0.372 N 
ATOM      3  N   UNL     1     -11.918 -21.520 -38.812  0.00  0.00    -0.372 N 
ATOM      4  C   UNL     1     -11.318 -22.599 -39.325  0.00  0.00    +0.166 C 
ATOM      5  H   UNL     1     -10.456 -23.495 -40.926  0.00  0.00    +0.163 HD
ATOM      6  H   UNL     1     -11.387 -23.629 -37.546  0.00  0.00    +0.159 HD
ATOM      7  H   UNL     1     -10.668 -24.495 -38.851  0.00  0.00    +0.159 HD
ATOM      8  H   UNL     1     -12.104 -20.695 -39.367  0.00  0.00    +0.159 HD
ATOM      9  H   UNL     1     -12.198 -21.480 -37.840  0.00  0.00    +0.159 HD
ENDROOT
BRANCH   1  10
ATOM     10  C   UNL     1     -11.168 -21.597 -41.582  0.00  0.00    +0.151 C 
BRANCH  10  11
ATOM     11  C   UNL     1     -12.080 -22.114 -42.661  0.00  0.00    -0.028 A 
ATOM     12  C   UNL     1     -11.599 -22.998 -43.637  0.00  0.00    +0.005 A 
ATOM     13  C   UNL     1     -13.429 -21.727 -42.708  0.00  0.00    +0.005 A 
ATOM     14  C   UNL     1     -12.453 -23.502 -44.621  0.00  0.00    +0.000 A 
ATOM     15  C   UNL     1     -14.278 -22.232 -43.692  0.00  0.00    +0.000 A 
ATOM     16  C   UNL     1     -13.791 -23.121 -44.647  0.00  0.00    +0.000 A 
ENDBRANCH  10  11
ENDBRANCH   1  10
TORSDOF 2
ENDMDL
MODEL 8
REMARK VINA RESULT:    -5.132      3.006      3.746
REMARK INTER + INTRA:          -5.809
REMARK INTER:                  -5.727
REMARK INTRA:                  -0.082
REMARK UNBOUND:                -0.078
REMARK  Name = 1550473
REMARK  2 active torsions:
REMARK  status: ('A' for Active; 'I' for Inactive)
REMARK    1  A    between atoms: N_1  and  C_4
REMARK    2  A    between atoms: C_4  and  C_5
REMARK                            x       y       z     vdW  Elec       q    Type
REMARK                         _______ _______ _______ _____ _____    ______ ____
ROOT
ATOM      1  N   UNL     1       3.556  12.574  -8.124  0.00  0.00    -0.354 N 
ATOM      2  N   UNL     1       3.232  14.283  -9.653  0.00  0.00    -0.372 N 
ATOM      3  N   UNL     1       2.163  14.391  -7.626  0.00  0.00    -0.372 N 
ATOM      4  C   UNL     1       2.984  13.739  -8.455  0.00  0.00    +0.166 C 
ATOM      5  H   UNL     1       4.145  12.115  -8.809  0.00  0.00    +0.163 HD
ATOM      6  H   UNL     1       2.817  15.163  -9.930  0.00  0.00    +0.159 HD
ATOM      7  H   UNL     1       3.857  13.845 -10.318  0.00  0.00    +0.159 HD
ATOM      8  H   UNL     1       1.930  14.031  -6.710  0.00  0.00    +0.159 HD
ATOM      9  H   UNL     1       1.729  15.267  -7.889  0.00  0.00    +0.159 HD
ENDROOT
BRANCH   1  10
ATOM     10  C   UNL     1       3.394  11.924  -6.824  0.00  0.00    +0.151 C 
BRANCH  10  11
ATOM     11  C   UNL     1       4.622  12.174  -5.993  0.00  0.00    -0.028 A 
ATOM     12  C   UNL     1       4.677  11.750  -4.658  0.00  0.00    +0.005 A 
ATOM     13  C   UNL     1       5.737  12.830  -6.538  0.00  0.00    +0.005 A 
ATOM     14  C   UNL     1       5.829  11.955  -3.894  0.00  0.00    +0.000 A 
ATOM     15  C   UNL     1       6.885  13.034  -5.772  0.00  0.00    +0.000 A 
ATOM     16  C   UNL     1       6.931  12.594  -4.451  0.00  0.00    +0.000 A 
ENDBRANCH  10  11
ENDBRANCH   1  10
TORSDOF 2
ENDMDL
MODEL 9
REMARK VINA RESULT:    -5.092     23.150     24.384
REMARK INTER + INTRA:          -5.765
REMARK INTER:                  -5.629
REMARK INTRA:                  -0.136
REMARK UNBOUND:                -0.078
REMARK  Name = 1550473
REMARK  2 active torsions:
REMARK  status: ('A' for Active; 'I' for Inactive)
REMARK    1  A    between atoms: N_1  and  C_4
REMARK    2  A    between atoms: C_4  and  C_5
REMARK                            x       y       z     vdW  Elec       q    Type
REMARK                         _______ _______ _______ _____ _____    ______ ____
ROOT
ATOM      1  N   UNL     1      17.058  19.523  10.157  0.00  0.00    -0.354 N 
ATOM      2  N   UNL     1      17.570  17.504  11.170  0.00  0.00    -0.372 N 
ATOM      3  N   UNL     1      15.565  17.718  10.075  0.00  0.00    -0.372 N 
ATOM      4  C   UNL     1      16.725  18.261  10.460  0.00  0.00    +0.166 C 
ATOM      5  H   UNL     1      17.939  19.885  10.505  0.00  0.00    +0.163 HD
ATOM      6  H   UNL     1      17.348  16.547  11.411  0.00  0.00    +0.159 HD
ATOM      7  H   UNL     1      18.470  17.853  11.476  0.00  0.00    +0.159 HD
ATOM      8  H   UNL     1      14.881  18.239   9.542  0.00  0.00    +0.159 HD
ATOM      9  H   UNL     1      15.319  16.766  10.316  0.00  0.00    +0.159 HD
ENDROOT
BRANCH   1  10
ATOM     10  C   UNL     1      16.233  20.414   9.344  0.00  0.00    +0.151 C 
BRANCH  10  11
ATOM     11  C   UNL     1      15.489  21.357  10.248  0.00  0.00    -0.028 A 
ATOM     12  C   UNL     1      14.308  21.977   9.814  0.00  0.00    +0.005 A 
ATOM     13  C   UNL     1      15.956  21.630  11.543  0.00  0.00    +0.005 A 
ATOM     14  C   UNL     1      13.601  22.830  10.665  0.00  0.00    +0.000 A 
ATOM     15  C   UNL     1      15.247  22.483  12.389  0.00  0.00    +0.000 A 
ATOM     16  C   UNL     1      14.068  23.081  11.951  0.00  0.00    +0.000 A 
ENDBRANCH  10  11
ENDBRANCH   1  10
TORSDOF 2
ENDMDL
