MODEL 1
REMARK VINA RESULT:    -5.883      0.000      0.000
REMARK INTER + INTRA:          -6.685
REMARK INTER:                  -6.571
REMARK INTRA:                  -0.114
REMARK UNBOUND:                -0.114
REMARK  Name = 1550473
REMARK  2 active torsions:
REMARK  status: ('A' for Active; 'I' for Inactive)
REMARK    1  A    between atoms: N_1  and  C_4
REMARK    2  A    between atoms: C_4  and  C_5
REMARK                            x       y       z     vdW  Elec       q    Type
REMARK                         _______ _______ _______ _____ _____    ______ ____
ROOT
ATOM      1  N   UNL     1       3.043   4.510  -4.624  0.00  0.00    -0.354 N 
ATOM      2  N   UNL     1       2.295   5.461  -2.649  0.00  0.00    -0.372 N 
ATOM      3  N   UNL     1       0.821   5.216  -4.390  0.00  0.00    -0.372 N 
ATOM      4  C   UNL     1       2.056   5.057  -3.902  0.00  0.00    +0.166 C 
ATOM      5  H   UNL     1       3.965   4.445  -4.207  0.00  0.00    +0.163 HD
ATOM      6  H   UNL     1       1.569   5.874  -2.079  0.00  0.00    +0.159 HD
ATOM      7  H   UNL     1       3.206   5.353  -2.219  0.00  0.00    +0.159 HD
ATOM      8  H   UNL     1       0.577   4.936  -5.330  0.00  0.00    +0.159 HD
ATOM      9  H   UNL     1       0.084   5.637  -3.839  0.00  0.00    +0.159 HD
ENDROOT
BRANCH   1  10
ATOM     10  C   UNL     1       2.874   3.988  -5.979  0.00  0.00    +0.151 C 
BRANCH  10  11
ATOM     11  C   UNL     1       4.120   4.268  -6.773  0.00  0.00    -0.028 A 
ATOM     12  C   UNL     1       4.034   4.797  -8.069  0.00  0.00    +0.005 A 
ATOM     13  C   UNL     1       5.389   4.013  -6.232  0.00  0.00    +0.005 A 
ATOM     14  C   UNL     1       5.192   5.086  -8.796  0.00  0.00    +0.000 A 
ATOM     15  C   UNL     1       6.543   4.302  -6.961  0.00  0.00    +0.000 A 
ATOM     16  C   UNL     1       6.444   4.840  -8.242  0.00  0.00    +0.000 A 
ENDBRANCH  10  11
ENDBRANCH   1  10
TORSDOF 2
ENDMDL
MODEL 2
REMARK VINA RESULT:    -5.753     15.131     16.314
REMARK INTER + INTRA:          -6.539
REMARK INTER:                  -6.367
REMARK INTRA:                  -0.172
REMARK UNBOUND:                -0.114
REMARK  Name = 1550473
REMARK  2 active torsions:
REMARK  status: ('A' for Active; 'I' for Inactive)
REMARK    1  A    between atoms: N_1  and  C_4
REMARK    2  A    between atoms: C_4  and  C_5
REMARK                            x       y       z     vdW  Elec       q    Type
REMARK                         _______ _______ _______ _____ _____    ______ ____
ROOT
ATOM      1  N   UNL     1      -7.848  -5.998  -3.376  0.00  0.00    -0.354 N 
ATOM      2  N   UNL     1      -9.613  -5.295  -2.052  0.00  0.00    -0.372 N 
ATOM      3  N   UNL     1      -9.664  -7.412  -2.935  0.00  0.00    -0.372 N 
ATOM      4  C   UNL     1      -9.031  -6.242  -2.797  0.00  0.00    +0.166 C 
ATOM      5  H   UNL     1      -7.435  -5.080  -3.258  0.00  0.00    +0.163 HD
ATOM      6  H   UNL     1     -10.504  -5.451  -1.600  0.00  0.00    +0.159 HD
ATOM      7  H   UNL     1      -9.176  -4.394  -1.898  0.00  0.00    +0.159 HD
ATOM      8  H   UNL     1      -9.281  -8.166  -3.489  0.00  0.00    +0.159 HD
ATOM      9  H   UNL     1     -10.562  -7.583  -2.499  0.00  0.00    +0.159 HD
ENDROOT
BRANCH   1  10
ATOM     10  C   UNL     1      -7.105  -6.980  -4.163  0.00  0.00    +0.151 C 
BRANCH  10  11
ATOM     11  C   UNL     1      -7.240  -6.644  -5.623  0.00  0.00    -0.028 A 
ATOM     12  C   UNL     1      -7.745  -7.590  -6.528  0.00  0.00    +0.005 A 
ATOM     13  C   UNL     1      -6.871  -5.380  -6.107  0.00  0.00    +0.005 A 
ATOM     14  C   UNL     1      -7.898  -7.268  -7.878  0.00  0.00    +0.000 A 
ATOM     15  C   UNL     1      -7.025  -5.062  -7.456  0.00  0.00    +0.000 A 
ATOM     16  C   UNL     1      -7.541  -6.006  -8.341  0.00  0.00    +0.000 A 
ENDBRANCH  10  11
ENDBRANCH   1  10
TORSDOF 2
ENDMDL
MODEL 3
REMARK VINA RESULT:    -5.726     17.284     18.687
REMARK INTER + INTRA:          -6.509
REMARK INTER:                  -6.398
REMARK INTRA:                  -0.111
REMARK UNBOUND:                -0.114
REMARK  Name = 1550473
REMARK  2 active torsions:
REMARK  status: ('A' for Active; 'I' for Inactive)
REMARK    1  A    between atoms: N_1  and  C_4
REMARK    2  A    between atoms: C_4  and  C_5
REMARK                            x       y       z     vdW  Elec       q    Type
REMARK                         _______ _______ _______ _____ _____    ______ ____
ROOT
ATOM      1  N   UNL     1      -7.344  -8.459  -3.659  0.00  0.00    -0.354 N 
ATOM      2  N   UNL     1      -5.848  -7.950  -1.966  0.00  0.00    -0.372 N 
ATOM      3  N   UNL     1      -6.944  -6.238  -3.029  0.00  0.00    -0.372 N 
ATOM      4  C   UNL     1      -6.723  -7.550  -2.897  0.00  0.00    +0.166 C 
ATOM      5  H   UNL     1      -7.110  -9.437  -3.529  0.00  0.00    +0.163 HD
ATOM      6  H   UNL     1      -5.367  -7.287  -1.373  0.00  0.00    +0.159 HD
ATOM      7  H   UNL     1      -5.651  -8.931  -1.807  0.00  0.00    +0.159 HD
ATOM      8  H   UNL     1      -7.588  -5.870  -3.717  0.00  0.00    +0.159 HD
ATOM      9  H   UNL     1      -6.463  -5.558  -2.454  0.00  0.00    +0.159 HD
ENDROOT
BRANCH   1  10
ATOM     10  C   UNL     1      -8.354  -8.131  -4.664  0.00  0.00    +0.151 C 
BRANCH  10  11
ATOM     11  C   UNL     1      -8.634  -9.353  -5.495  0.00  0.00    -0.028 A 
ATOM     12  C   UNL     1      -8.686 -10.622  -4.900  0.00  0.00    +0.005 A 
ATOM     13  C   UNL     1      -8.855  -9.247  -6.877  0.00  0.00    +0.005 A 
ATOM     14  C   UNL     1      -8.977 -11.753  -5.667  0.00  0.00    +0.000 A 
ATOM     15  C   UNL     1      -9.144 -10.379  -7.639  0.00  0.00    +0.000 A 
ATOM     16  C   UNL     1      -9.207 -11.632  -7.033  0.00  0.00    +0.000 A 
ENDBRANCH  10  11
ENDBRANCH   1  10
TORSDOF 2
ENDMDL
MODEL 4
REMARK VINA RESULT:    -5.681     11.564     12.614
REMARK INTER + INTRA:          -6.459
REMARK INTER:                  -6.320
REMARK INTRA:                  -0.139
REMARK UNBOUND:                -0.114
REMARK  Name = 1550473
REMARK  2 active torsions:
REMARK  status: ('A' for Active; 'I' for Inactive)
REMARK    1  A    between atoms: N_1  and  C_4
REMARK    2  A    between atoms: C_4  and  C_5
REMARK                            x       y       z     vdW  Elec       q    Type
REMARK                         _______ _______ _______ _____ _____    ______ ____
ROOT
ATOM      1  N   UNL     1      -4.448   4.629 -14.713  0.00  0.00    -0.354 N 
ATOM      2  N   UNL     1      -4.817   4.371 -12.441  0.00  0.00    -0.372 N 
ATOM      3  N   UNL     1      -6.449   3.709 -13.913  0.00  0.00    -0.372 N 
ATOM      4  C   UNL     1      -5.238   4.237 -13.705  0.00  0.00    +0.166 C 
ATOM      5  H   UNL     1      -3.554   5.049 -14.488  0.00  0.00    +0.163 HD
ATOM      6  H   UNL     1      -5.390   4.081 -11.660  0.00  0.00    +0.159 HD
ATOM      7  H   UNL     1      -3.904   4.749 -12.221  0.00  0.00    +0.159 HD
ATOM      8  H   UNL     1      -6.828   3.587 -14.842  0.00  0.00    +0.159 HD
ATOM      9  H   UNL     1      -7.042   3.424 -13.143  0.00  0.00    +0.159 HD
ENDROOT
BRANCH   1  10
ATOM     10  C   UNL     1      -4.790   4.477 -16.126  0.00  0.00    +0.151 C 
BRANCH  10  11
ATOM     11  C   UNL     1      -3.668   3.763 -16.829  0.00  0.00    -0.028 A 
ATOM     12  C   UNL     1      -3.662   3.650 -18.227  0.00  0.00    +0.005 A 
ATOM     13  C   UNL     1      -2.607   3.202 -16.103  0.00  0.00    +0.005 A 
ATOM     14  C   UNL     1      -2.605   3.013 -18.883  0.00  0.00    +0.000 A 
ATOM     15  C   UNL     1      -1.554   2.566 -16.761  0.00  0.00    +0.000 A 
ATOM     16  C   UNL     1      -1.552   2.474 -18.151  0.00  0.00    +0.000 A 
ENDBRANCH  10  11
ENDBRANCH   1  10
TORSDOF 2
ENDMDL
MODEL 5
REMARK VINA RESULT:    -5.670      4.599      7.381
REMARK INTER + INTRA:          -6.446
REMARK INTER:                  -6.333
REMARK INTRA:                  -0.113
REMARK UNBOUND:                -0.114
REMARK  Name = 1550473
REMARK  2 active torsions:
REMARK  status: ('A' for Active; 'I' for Inactive)
REMARK    1  A    between atoms: N_1  and  C_4
REMARK    2  A    between atoms: C_4  and  C_5
REMARK                            x       y       z     vdW  Elec       q    Type
REMARK                         _______ _______ _______ _____ _____    ______ ____
ROOT
ATOM      1  N   UNL     1       3.241   4.413  -1.928  0.00  0.00    -0.354 N 
ATOM      2  N   UNL     1       4.213   4.942  -3.962  0.00  0.00    -0.372 N 
ATOM      3  N   UNL     1       2.047   5.588  -3.566  0.00  0.00    -0.372 N 
ATOM      4  C   UNL     1       3.158   4.979  -3.139  0.00  0.00    +0.166 C 
ATOM      5  H   UNL     1       4.101   3.940  -1.675  0.00  0.00    +0.163 HD
ATOM      6  H   UNL     1       4.181   5.363  -4.881  0.00  0.00    +0.159 HD
ATOM      7  H   UNL     1       5.087   4.509  -3.690  0.00  0.00    +0.159 HD
ATOM      8  H   UNL     1       1.214   5.645  -2.996  0.00  0.00    +0.159 HD
ATOM      9  H   UNL     1       1.992   6.005  -4.487  0.00  0.00    +0.159 HD
ENDROOT
BRANCH   1  10
ATOM     10  C   UNL     1       2.168   4.444  -0.935  0.00  0.00    +0.151 C 
BRANCH  10  11
ATOM     11  C   UNL     1       2.666   3.835   0.346  0.00  0.00    -0.028 A 
ATOM     12  C   UNL     1       2.198   4.299   1.584  0.00  0.00    +0.005 A 
ATOM     13  C   UNL     1       3.603   2.790   0.329  0.00  0.00    +0.005 A 
ATOM     14  C   UNL     1       2.638   3.714   2.774  0.00  0.00    +0.000 A 
ATOM     15  C   UNL     1       4.040   2.209   1.519  0.00  0.00    +0.000 A 
ATOM     16  C   UNL     1       3.556   2.669   2.741  0.00  0.00    +0.000 A 
ENDBRANCH  10  11
ENDBRANCH   1  10
TORSDOF 2
ENDMDL
MODEL 6
REMARK VINA RESULT:    -5.563     14.442     16.163
REMARK INTER + INTRA:          -6.328
REMARK INTER:                  -6.158
REMARK INTRA:                  -0.170
REMARK UNBOUND:                -0.114
REMARK  Name = 1550473
REMARK  2 active torsions:
REMARK  status: ('A' for Active; 'I' for Inactive)
REMARK    1  A    between atoms: N_1  and  C_4
REMARK    2  A    between atoms: C_4  and  C_5
REMARK                            x       y       z     vdW  Elec       q    Type
REMARK                         _______ _______ _______ _____ _____    ______ ____
ROOT
ATOM      1  N   UNL     1      -5.981  -4.787  -5.407  0.00  0.00    -0.354 N 
ATOM      2  N   UNL     1      -6.412  -3.112  -6.948  0.00  0.00    -0.372 N 
ATOM      3  N   UNL     1      -5.499  -5.086  -7.681  0.00  0.00    -0.372 N 
ATOM      4  C   UNL     1      -5.960  -4.341  -6.670  0.00  0.00    +0.166 C 
ATOM      5  H   UNL     1      -6.315  -4.163  -4.682  0.00  0.00    +0.163 HD
ATOM      6  H   UNL     1      -6.412  -2.750  -7.892  0.00  0.00    +0.159 HD
ATOM      7  H   UNL     1      -6.788  -2.508  -6.228  0.00  0.00    +0.159 HD
ATOM      8  H   UNL     1      -5.138  -6.019  -7.537  0.00  0.00    +0.159 HD
ATOM      9  H   UNL     1      -5.479  -4.736  -8.631  0.00  0.00    +0.159 HD
ENDROOT
BRANCH   1  10
ATOM     10  C   UNL     1      -5.562  -6.129  -5.006  0.00  0.00    +0.151 C 
BRANCH  10  11
ATOM     11  C   UNL     1      -6.771  -6.913  -4.576  0.00  0.00    -0.028 A 
ATOM     12  C   UNL     1      -7.172  -6.923  -3.233  0.00  0.00    +0.005 A 
ATOM     13  C   UNL     1      -7.522  -7.645  -5.509  0.00  0.00    +0.005 A 
ATOM     14  C   UNL     1      -8.312  -7.627  -2.838  0.00  0.00    +0.000 A 
ATOM     15  C   UNL     1      -8.659  -8.347  -5.111  0.00  0.00    +0.000 A 
ATOM     16  C   UNL     1      -9.055  -8.336  -3.776  0.00  0.00    +0.000 A 
ENDBRANCH  10  11
ENDBRANCH   1  10
TORSDOF 2
ENDMDL
MODEL 7
REMARK VINA RESULT:    -5.541     16.807     18.189
REMARK INTER + INTRA:          -6.303
REMARK INTER:                  -6.164
REMARK INTRA:                  -0.138
REMARK UNBOUND:                -0.114
REMARK  Name = 1550473
REMARK  2 active torsions:
REMARK  status: ('A' for Active; 'I' for Inactive)
REMARK    1  A    between atoms: N_1  and  C_4
REMARK    2  A    between atoms: C_4  and  C_5
REMARK                            x       y       z     vdW  Elec       q    Type
REMARK                         _______ _______ _______ _____ _____    ______ ____
ROOT
ATOM      1  N   UNL     1      -6.516  -7.809  -4.448  0.00  0.00    -0.354 N 
ATOM      2  N   UNL     1      -5.368  -7.392  -2.480  0.00  0.00    -0.372 N 
ATOM      3  N   UNL     1      -7.223  -6.132  -2.971  0.00  0.00    -0.372 N 
ATOM      4  C   UNL     1      -6.378  -7.112  -3.313  0.00  0.00    +0.166 C 
ATOM      5  H   UNL     1      -5.825  -8.519  -4.664  0.00  0.00    +0.163 HD
ATOM      6  H   UNL     1      -5.241  -6.884  -1.615  0.00  0.00    +0.159 HD
ATOM      7  H   UNL     1      -4.706  -8.132  -2.676  0.00  0.00    +0.159 HD
ATOM      8  H   UNL     1      -8.002  -5.868  -3.559  0.00  0.00    +0.159 HD
ATOM      9  H   UNL     1      -7.105  -5.605  -2.115  0.00  0.00    +0.159 HD
ENDROOT
BRANCH   1  10
ATOM     10  C   UNL     1      -7.612  -7.619  -5.397  0.00  0.00    +0.151 C 
BRANCH  10  11
ATOM     11  C   UNL     1      -8.177  -8.962  -5.769  0.00  0.00    -0.028 A 
ATOM     12  C   UNL     1      -8.440  -9.277  -7.110  0.00  0.00    +0.005 A 
ATOM     13  C   UNL     1      -8.448  -9.926  -4.786  0.00  0.00    +0.005 A 
ATOM     14  C   UNL     1      -8.936 -10.535  -7.460  0.00  0.00    +0.000 A 
ATOM     15  C   UNL     1      -8.945 -11.181  -5.139  0.00  0.00    +0.000 A 
ATOM     16  C   UNL     1      -9.187 -11.486  -6.476  0.00  0.00    +0.000 A 
ENDBRANCH  10  11
ENDBRANCH   1  10
TORSDOF 2
ENDMDL
MODEL 8
REMARK VINA RESULT:    -5.399     17.709     19.172
REMARK INTER + INTRA:          -6.144
REMARK INTER:                  -6.008
REMARK INTRA:                  -0.137
REMARK UNBOUND:                -0.114
REMARK  Name = 1550473
REMARK  2 active torsions:
REMARK  status: ('A' for Active; 'I' for Inactive)
REMARK    1  A    between atoms: N_1  and  C_4
REMARK    2  A    between atoms: C_4  and  C_5
REMARK                            x       y       z     vdW  Elec       q    Type
REMARK                         _______ _______ _______ _____ _____    ______ ____
ROOT
ATOM      1  N   UNL     1      -7.763 -11.190  -5.021  0.00  0.00    -0.354 N 
ATOM      2  N   UNL     1      -8.830 -13.245  -4.954  0.00  0.00    -0.372 N 
ATOM      3  N   UNL     1      -9.219 -11.851  -6.735  0.00  0.00    -0.372 N 
ATOM      4  C   UNL     1      -8.598 -12.081  -5.573  0.00  0.00    +0.166 C 
ATOM      5  H   UNL     1      -7.348 -11.412  -4.124  0.00  0.00    +0.163 HD
ATOM      6  H   UNL     1      -9.453 -13.938  -5.348  0.00  0.00    +0.159 HD
ATOM      7  H   UNL     1      -8.378 -13.483  -4.080  0.00  0.00    +0.159 HD
ATOM      8  H   UNL     1      -9.091 -10.989  -7.249  0.00  0.00    +0.159 HD
ATOM      9  H   UNL     1      -9.855 -12.527  -7.139  0.00  0.00    +0.159 HD
ENDROOT
BRANCH   1  10
ATOM     10  C   UNL     1      -7.401  -9.916  -5.640  0.00  0.00    +0.151 C 
BRANCH  10  11
ATOM     11  C   UNL     1      -7.768  -8.795  -4.707  0.00  0.00    -0.028 A 
ATOM     12  C   UNL     1      -6.895  -7.714  -4.515  0.00  0.00    +0.005 A 
ATOM     13  C   UNL     1      -8.989  -8.806  -4.016  0.00  0.00    +0.005 A 
ATOM     14  C   UNL     1      -7.249  -6.658  -3.671  0.00  0.00    +0.000 A 
ATOM     15  C   UNL     1      -9.338  -7.750  -3.174  0.00  0.00    +0.000 A 
ATOM     16  C   UNL     1      -8.469  -6.675  -3.004  0.00  0.00    +0.000 A 
ENDBRANCH  10  11
ENDBRANCH   1  10
TORSDOF 2
ENDMDL
MODEL 9
REMARK VINA RESULT:    -5.256     15.754     17.207
REMARK INTER + INTRA:          -5.985
REMARK INTER:                  -5.839
REMARK INTRA:                  -0.145
REMARK UNBOUND:                -0.114
REMARK  Name = 1550473
REMARK  2 active torsions:
REMARK  status: ('A' for Active; 'I' for Inactive)
REMARK    1  A    between atoms: N_1  and  C_4
REMARK    2  A    between atoms: C_4  and  C_5
REMARK                            x       y       z     vdW  Elec       q    Type
REMARK                         _______ _______ _______ _____ _____    ______ ____
ROOT
ATOM      1  N   UNL     1      -7.014  -6.185  -3.463  0.00  0.00    -0.354 N 
ATOM      2  N   UNL     1      -4.911  -5.217  -3.500  0.00  0.00    -0.372 N 
ATOM      3  N   UNL     1      -5.182  -7.240  -2.452  0.00  0.00    -0.372 N 
ATOM      4  C   UNL     1      -5.716  -6.223  -3.136  0.00  0.00    +0.166 C 
ATOM      5  H   UNL     1      -7.363  -5.372  -3.957  0.00  0.00    +0.163 HD
ATOM      6  H   UNL     1      -3.926  -5.219  -3.271  0.00  0.00    +0.159 HD
ATOM      7  H   UNL     1      -5.253  -4.427  -4.033  0.00  0.00    +0.159 HD
ATOM      8  H   UNL     1      -5.737  -8.027  -2.143  0.00  0.00    +0.159 HD
ATOM      9  H   UNL     1      -4.201  -7.255  -2.203  0.00  0.00    +0.159 HD
ENDROOT
BRANCH   1  10
ATOM     10  C   UNL     1      -7.965  -7.255  -3.162  0.00  0.00    +0.151 C 
BRANCH  10  11
ATOM     11  C   UNL     1      -8.234  -8.040  -4.416  0.00  0.00    -0.028 A 
ATOM     12  C   UNL     1      -8.037  -7.458  -5.677  0.00  0.00    +0.005 A 
ATOM     13  C   UNL     1      -8.682  -9.368  -4.350  0.00  0.00    +0.005 A 
ATOM     14  C   UNL     1      -8.258  -8.197  -6.841  0.00  0.00    +0.000 A 
ATOM     15  C   UNL     1      -8.903 -10.102  -5.515  0.00  0.00    +0.000 A 
ATOM     16  C   UNL     1      -8.688  -9.517  -6.761  0.00  0.00    +0.000 A 
ENDBRANCH  10  11
ENDBRANCH   1  10
TORSDOF 2
ENDMDL
