MODEL 1
REMARK VINA RESULT:    -5.245      0.000      0.000
REMARK INTER + INTRA:          -5.982
REMARK INTER:                  -5.859
REMARK INTRA:                  -0.124
REMARK UNBOUND:                -0.124
REMARK  Name = 1550473
REMARK  2 active torsions:
REMARK  status: ('A' for Active; 'I' for Inactive)
REMARK    1  A    between atoms: N_1  and  C_4
REMARK    2  A    between atoms: C_4  and  C_5
REMARK                            x       y       z     vdW  Elec       q    Type
REMARK                         _______ _______ _______ _____ _____    ______ ____
ROOT
ATOM      1  N   UNL     1       1.801 -13.253  -7.776  0.00  0.00    -0.354 N 
ATOM      2  N   UNL     1       2.144 -14.119  -5.656  0.00  0.00    -0.372 N 
ATOM      3  N   UNL     1       2.126 -11.841  -5.935  0.00  0.00    -0.372 N 
ATOM      4  C   UNL     1       2.022 -13.063  -6.469  0.00  0.00    +0.166 C 
ATOM      5  H   UNL     1       1.762 -14.204  -8.124  0.00  0.00    +0.163 HD
ATOM      6  H   UNL     1       2.307 -14.006  -4.664  0.00  0.00    +0.159 HD
ATOM      7  H   UNL     1       2.059 -15.068  -5.999  0.00  0.00    +0.159 HD
ATOM      8  H   UNL     1       2.049 -11.003  -6.495  0.00  0.00    +0.159 HD
ATOM      9  H   UNL     1       2.301 -11.708  -4.947  0.00  0.00    +0.159 HD
ENDROOT
BRANCH   1  10
ATOM     10  C   UNL     1       1.600 -12.171  -8.738  0.00  0.00    +0.151 C 
BRANCH  10  11
ATOM     11  C   UNL     1       2.829 -12.038  -9.593  0.00  0.00    -0.028 A 
ATOM     12  C   UNL     1       2.992 -10.932 -10.439  0.00  0.00    +0.005 A 
ATOM     13  C   UNL     1       3.838 -13.013  -9.558  0.00  0.00    +0.005 A 
ATOM     14  C   UNL     1       4.148 -10.793 -11.211  0.00  0.00    +0.000 A 
ATOM     15  C   UNL     1       4.991 -12.871 -10.331  0.00  0.00    +0.000 A 
ATOM     16  C   UNL     1       5.146 -11.760 -11.155  0.00  0.00    +0.000 A 
ENDBRANCH  10  11
ENDBRANCH   1  10
TORSDOF 2
ENDMDL
MODEL 2
REMARK VINA RESULT:    -5.056     26.015     27.655
REMARK INTER + INTRA:          -5.771
REMARK INTER:                  -5.621
REMARK INTRA:                  -0.149
REMARK UNBOUND:                -0.124
REMARK  Name = 1550473
REMARK  2 active torsions:
REMARK  status: ('A' for Active; 'I' for Inactive)
REMARK    1  A    between atoms: N_1  and  C_4
REMARK    2  A    between atoms: C_4  and  C_5
REMARK                            x       y       z     vdW  Elec       q    Type
REMARK                         _______ _______ _______ _____ _____    ______ ____
ROOT
ATOM      1  N   UNL     1     -17.965  -1.045   8.048  0.00  0.00    -0.354 N 
ATOM      2  N   UNL     1     -18.200  -2.287   9.989  0.00  0.00    -0.372 N 
ATOM      3  N   UNL     1     -16.966  -0.353  10.052  0.00  0.00    -0.372 N 
ATOM      4  C   UNL     1     -17.707  -1.218   9.351  0.00  0.00    +0.166 C 
ATOM      5  H   UNL     1     -18.508  -1.753   7.567  0.00  0.00    +0.163 HD
ATOM      6  H   UNL     1     -18.025  -2.442  10.973  0.00  0.00    +0.159 HD
ATOM      7  H   UNL     1     -18.781  -2.968   9.517  0.00  0.00    +0.159 HD
ATOM      8  H   UNL     1     -16.559   0.470   9.628  0.00  0.00    +0.159 HD
ATOM      9  H   UNL     1     -16.770  -0.498  11.035  0.00  0.00    +0.159 HD
ENDROOT
BRANCH   1  10
ATOM     10  C   UNL     1     -17.520   0.112   7.273  0.00  0.00    +0.151 C 
BRANCH  10  11
ATOM     11  C   UNL     1     -16.349  -0.290   6.419  0.00  0.00    -0.028 A 
ATOM     12  C   UNL     1     -15.427   0.671   5.979  0.00  0.00    +0.005 A 
ATOM     13  C   UNL     1     -16.154  -1.630   6.051  0.00  0.00    +0.005 A 
ATOM     14  C   UNL     1     -14.322   0.294   5.210  0.00  0.00    +0.000 A 
ATOM     15  C   UNL     1     -15.051  -2.002   5.283  0.00  0.00    +0.000 A 
ATOM     16  C   UNL     1     -14.134  -1.040   4.865  0.00  0.00    +0.000 A 
ENDBRANCH  10  11
ENDBRANCH   1  10
TORSDOF 2
ENDMDL
MODEL 3
REMARK VINA RESULT:    -4.716     24.822     26.288
REMARK INTER + INTRA:          -5.392
REMARK INTER:                  -5.260
REMARK INTRA:                  -0.132
REMARK UNBOUND:                -0.124
REMARK  Name = 1550473
REMARK  2 active torsions:
REMARK  status: ('A' for Active; 'I' for Inactive)
REMARK    1  A    between atoms: N_1  and  C_4
REMARK    2  A    between atoms: C_4  and  C_5
REMARK                            x       y       z     vdW  Elec       q    Type
REMARK                         _______ _______ _______ _____ _____    ______ ____
ROOT
ATOM      1  N   UNL     1      14.678  -0.901  11.572  0.00  0.00    -0.354 N 
ATOM      2  N   UNL     1      15.209   0.547   9.844  0.00  0.00    -0.372 N 
ATOM      3  N   UNL     1      14.999   1.386  11.969  0.00  0.00    -0.372 N 
ATOM      4  C   UNL     1      14.958   0.337  11.142  0.00  0.00    +0.166 C 
ATOM      5  H   UNL     1      14.633  -1.649  10.889  0.00  0.00    +0.163 HD
ATOM      6  H   UNL     1      15.426   1.469   9.491  0.00  0.00    +0.159 HD
ATOM      7  H   UNL     1      15.208  -0.210   9.171  0.00  0.00    +0.159 HD
ATOM      8  H   UNL     1      14.814   1.295  12.959  0.00  0.00    +0.159 HD
ATOM      9  H   UNL     1      15.204   2.319  11.633  0.00  0.00    +0.159 HD
ENDROOT
BRANCH   1  10
ATOM     10  C   UNL     1      14.443  -1.246  12.973  0.00  0.00    +0.151 C 
BRANCH  10  11
ATOM     11  C   UNL     1      13.369  -2.296  13.047  0.00  0.00    -0.028 A 
ATOM     12  C   UNL     1      12.993  -3.012  11.901  0.00  0.00    +0.005 A 
ATOM     13  C   UNL     1      12.728  -2.584  14.261  0.00  0.00    +0.005 A 
ATOM     14  C   UNL     1      12.017  -4.008  11.975  0.00  0.00    +0.000 A 
ATOM     15  C   UNL     1      11.753  -3.579  14.331  0.00  0.00    +0.000 A 
ATOM     16  C   UNL     1      11.400  -4.293  13.188  0.00  0.00    +0.000 A 
ENDBRANCH  10  11
ENDBRANCH   1  10
TORSDOF 2
ENDMDL
MODEL 4
REMARK VINA RESULT:    -4.645     31.658     33.305
REMARK INTER + INTRA:          -5.312
REMARK INTER:                  -5.131
REMARK INTRA:                  -0.181
REMARK UNBOUND:                -0.124
REMARK  Name = 1550473
REMARK  2 active torsions:
REMARK  status: ('A' for Active; 'I' for Inactive)
REMARK    1  A    between atoms: N_1  and  C_4
REMARK    2  A    between atoms: C_4  and  C_5
REMARK                            x       y       z     vdW  Elec       q    Type
REMARK                         _______ _______ _______ _____ _____    ______ ____
ROOT
ATOM      1  N   UNL     1     -13.012   1.563  17.323  0.00  0.00    -0.354 N 
ATOM      2  N   UNL     1     -15.265   1.504  17.857  0.00  0.00    -0.372 N 
ATOM      3  N   UNL     1     -13.740   1.899  19.525  0.00  0.00    -0.372 N 
ATOM      4  C   UNL     1     -13.990   1.656  18.234  0.00  0.00    +0.166 C 
ATOM      5  H   UNL     1     -13.265   1.348  16.366  0.00  0.00    +0.163 HD
ATOM      6  H   UNL     1     -16.024   1.573  18.521  0.00  0.00    +0.159 HD
ATOM      7  H   UNL     1     -15.518   1.335  16.891  0.00  0.00    +0.159 HD
ATOM      8  H   UNL     1     -12.799   2.017  19.876  0.00  0.00    +0.159 HD
ATOM      9  H   UNL     1     -14.486   1.959  20.207  0.00  0.00    +0.159 HD
ENDROOT
BRANCH   1  10
ATOM     10  C   UNL     1     -11.595   1.765  17.621  0.00  0.00    +0.151 C 
BRANCH  10  11
ATOM     11  C   UNL     1     -10.930   0.426  17.778  0.00  0.00    -0.028 A 
ATOM     12  C   UNL     1     -10.496  -0.011  19.038  0.00  0.00    +0.005 A 
ATOM     13  C   UNL     1     -10.735  -0.414  16.670  0.00  0.00    +0.005 A 
ATOM     14  C   UNL     1      -9.905  -1.268  19.189  0.00  0.00    +0.000 A 
ATOM     15  C   UNL     1     -10.144  -1.668  16.825  0.00  0.00    +0.000 A 
ATOM     16  C   UNL     1      -9.731  -2.095  18.084  0.00  0.00    +0.000 A 
ENDBRANCH  10  11
ENDBRANCH   1  10
TORSDOF 2
ENDMDL
MODEL 5
REMARK VINA RESULT:    -4.645     18.583     19.577
REMARK INTER + INTRA:          -5.312
REMARK INTER:                  -5.204
REMARK INTRA:                  -0.108
REMARK UNBOUND:                -0.124
REMARK  Name = 1550473
REMARK  2 active torsions:
REMARK  status: ('A' for Active; 'I' for Inactive)
REMARK    1  A    between atoms: N_1  and  C_4
REMARK    2  A    between atoms: C_4  and  C_5
REMARK                            x       y       z     vdW  Elec       q    Type
REMARK                         _______ _______ _______ _____ _____    ______ ____
ROOT
ATOM      1  N   UNL     1     -15.711 -12.981 -17.133  0.00  0.00    -0.354 N 
ATOM      2  N   UNL     1     -17.671 -13.898 -16.309  0.00  0.00    -0.372 N 
ATOM      3  N   UNL     1     -17.744 -11.828 -17.295  0.00  0.00    -0.372 N 
ATOM      4  C   UNL     1     -17.030 -12.894 -16.919  0.00  0.00    +0.166 C 
ATOM      5  H   UNL     1     -15.222 -13.803 -16.797  0.00  0.00    +0.163 HD
ATOM      6  H   UNL     1     -18.667 -13.862 -16.137  0.00  0.00    +0.159 HD
ATOM      7  H   UNL     1     -17.188 -14.738 -16.015  0.00  0.00    +0.159 HD
ATOM      8  H   UNL     1     -17.319 -11.033 -17.754  0.00  0.00    +0.159 HD
ATOM      9  H   UNL     1     -18.740 -11.768 -17.121  0.00  0.00    +0.159 HD
ENDROOT
BRANCH   1  10
ATOM     10  C   UNL     1     -14.928 -11.967 -17.836  0.00  0.00    +0.151 C 
BRANCH  10  11
ATOM     11  C   UNL     1     -13.536 -12.489 -18.062  0.00  0.00    -0.028 A 
ATOM     12  C   UNL     1     -12.893 -12.296 -19.293  0.00  0.00    +0.005 A 
ATOM     13  C   UNL     1     -12.851 -13.174 -17.046  0.00  0.00    +0.005 A 
ATOM     14  C   UNL     1     -11.589 -12.755 -19.493  0.00  0.00    +0.000 A 
ATOM     15  C   UNL     1     -11.550 -13.632 -17.250  0.00  0.00    +0.000 A 
ATOM     16  C   UNL     1     -10.918 -13.420 -18.473  0.00  0.00    +0.000 A 
ENDBRANCH  10  11
ENDBRANCH   1  10
TORSDOF 2
ENDMDL
MODEL 6
REMARK VINA RESULT:    -4.561     31.959     32.572
REMARK INTER + INTRA:          -5.218
REMARK INTER:                  -5.108
REMARK INTRA:                  -0.111
REMARK UNBOUND:                -0.124
REMARK  Name = 1550473
REMARK  2 active torsions:
REMARK  status: ('A' for Active; 'I' for Inactive)
REMARK    1  A    between atoms: N_1  and  C_4
REMARK    2  A    between atoms: C_4  and  C_5
REMARK                            x       y       z     vdW  Elec       q    Type
REMARK                         _______ _______ _______ _____ _____    ______ ____
ROOT
ATOM      1  N   UNL     1     -10.823   0.621  18.102  0.00  0.00    -0.354 N 
ATOM      2  N   UNL     1     -11.577   2.559  19.121  0.00  0.00    -0.372 N 
ATOM      3  N   UNL     1     -12.411   1.994  17.060  0.00  0.00    -0.372 N 
ATOM      4  C   UNL     1     -11.600   1.712  18.085  0.00  0.00    +0.166 C 
ATOM      5  H   UNL     1     -10.208   0.480  18.895  0.00  0.00    +0.163 HD
ATOM      6  H   UNL     1     -12.154   3.389  19.138  0.00  0.00    +0.159 HD
ATOM      7  H   UNL     1     -10.995   2.392  19.933  0.00  0.00    +0.159 HD
ATOM      8  H   UNL     1     -12.471   1.398  16.245  0.00  0.00    +0.159 HD
ATOM      9  H   UNL     1     -12.988   2.825  17.053  0.00  0.00    +0.159 HD
ENDROOT
BRANCH   1  10
ATOM     10  C   UNL     1     -10.813  -0.392  17.048  0.00  0.00    +0.151 C 
BRANCH  10  11
ATOM     11  C   UNL     1     -10.657  -1.751  17.674  0.00  0.00    -0.028 A 
ATOM     12  C   UNL     1     -11.537  -2.792  17.343  0.00  0.00    +0.005 A 
ATOM     13  C   UNL     1      -9.629  -2.004  18.594  0.00  0.00    +0.005 A 
ATOM     14  C   UNL     1     -11.374  -4.062  17.902  0.00  0.00    +0.000 A 
ATOM     15  C   UNL     1      -9.470  -3.274  19.150  0.00  0.00    +0.000 A 
ATOM     16  C   UNL     1     -10.341  -4.303  18.802  0.00  0.00    +0.000 A 
ENDBRANCH  10  11
ENDBRANCH   1  10
TORSDOF 2
ENDMDL
MODEL 7
REMARK VINA RESULT:    -4.544      4.320      5.796
REMARK INTER + INTRA:          -5.199
REMARK INTER:                  -5.071
REMARK INTRA:                  -0.128
REMARK UNBOUND:                -0.124
REMARK  Name = 1550473
REMARK  2 active torsions:
REMARK  status: ('A' for Active; 'I' for Inactive)
REMARK    1  A    between atoms: N_1  and  C_4
REMARK    2  A    between atoms: C_4  and  C_5
REMARK                            x       y       z     vdW  Elec       q    Type
REMARK                         _______ _______ _______ _____ _____    ______ ____
ROOT
ATOM      1  N   UNL     1       6.848 -12.273 -11.919  0.00  0.00    -0.354 N 
ATOM      2  N   UNL     1       8.359 -11.371 -13.425  0.00  0.00    -0.372 N 
ATOM      3  N   UNL     1       7.430 -13.419 -13.878  0.00  0.00    -0.372 N 
ATOM      4  C   UNL     1       7.536 -12.363 -13.065  0.00  0.00    +0.166 C 
ATOM      5  H   UNL     1       6.995 -11.459 -11.332  0.00  0.00    +0.163 HD
ATOM      6  H   UNL     1       8.888 -11.409 -14.285  0.00  0.00    +0.159 HD
ATOM      7  H   UNL     1       8.470 -10.538 -12.858  0.00  0.00    +0.159 HD
ATOM      8  H   UNL     1       6.830 -14.204 -13.662  0.00  0.00    +0.159 HD
ATOM      9  H   UNL     1       7.960 -13.481 -14.738  0.00  0.00    +0.159 HD
ENDROOT
BRANCH   1  10
ATOM     10  C   UNL     1       5.885 -13.273 -11.463  0.00  0.00    +0.151 C 
BRANCH  10  11
ATOM     11  C   UNL     1       4.737 -12.576 -10.784  0.00  0.00    -0.028 A 
ATOM     12  C   UNL     1       4.159 -11.434 -11.357  0.00  0.00    +0.005 A 
ATOM     13  C   UNL     1       4.220 -13.057  -9.572  0.00  0.00    +0.005 A 
ATOM     14  C   UNL     1       3.074 -10.804 -10.742  0.00  0.00    +0.000 A 
ATOM     15  C   UNL     1       3.137 -12.425  -8.961  0.00  0.00    +0.000 A 
ATOM     16  C   UNL     1       2.563 -11.300  -9.548  0.00  0.00    +0.000 A 
ENDBRANCH  10  11
ENDBRANCH   1  10
TORSDOF 2
ENDMDL
MODEL 8
REMARK VINA RESULT:    -4.500     26.199     27.931
REMARK INTER + INTRA:          -5.150
REMARK INTER:                  -5.025
REMARK INTRA:                  -0.125
REMARK UNBOUND:                -0.124
REMARK  Name = 1550473
REMARK  2 active torsions:
REMARK  status: ('A' for Active; 'I' for Inactive)
REMARK    1  A    between atoms: N_1  and  C_4
REMARK    2  A    between atoms: C_4  and  C_5
REMARK                            x       y       z     vdW  Elec       q    Type
REMARK                         _______ _______ _______ _____ _____    ______ ____
ROOT
ATOM      1  N   UNL     1     -17.372   2.049   6.804  0.00  0.00    -0.354 N 
ATOM      2  N   UNL     1     -17.999   3.161   8.736  0.00  0.00    -0.372 N 
ATOM      3  N   UNL     1     -16.616   4.223   7.245  0.00  0.00    -0.372 N 
ATOM      4  C   UNL     1     -17.323   3.139   7.581  0.00  0.00    +0.166 C 
ATOM      5  H   UNL     1     -17.902   1.249   7.129  0.00  0.00    +0.163 HD
ATOM      6  H   UNL     1     -17.984   3.970   9.342  0.00  0.00    +0.159 HD
ATOM      7  H   UNL     1     -18.565   2.377   9.038  0.00  0.00    +0.159 HD
ATOM      8  H   UNL     1     -16.079   4.268   6.389  0.00  0.00    +0.159 HD
ATOM      9  H   UNL     1     -16.578   5.038   7.844  0.00  0.00    +0.159 HD
ENDROOT
BRANCH   1  10
ATOM     10  C   UNL     1     -16.716   1.944   5.502  0.00  0.00    +0.151 C 
BRANCH  10  11
ATOM     11  C   UNL     1     -15.953   0.649   5.440  0.00  0.00    -0.028 A 
ATOM     12  C   UNL     1     -16.543  -0.547   5.873  0.00  0.00    +0.005 A 
ATOM     13  C   UNL     1     -14.641   0.612   4.944  0.00  0.00    +0.005 A 
ATOM     14  C   UNL     1     -15.845  -1.754   5.788  0.00  0.00    +0.000 A 
ATOM     15  C   UNL     1     -13.947  -0.595   4.861  0.00  0.00    +0.000 A 
ATOM     16  C   UNL     1     -14.550  -1.778   5.281  0.00  0.00    +0.000 A 
ENDBRANCH  10  11
ENDBRANCH   1  10
TORSDOF 2
ENDMDL
MODEL 9
REMARK VINA RESULT:    -4.483      1.806      2.444
REMARK INTER + INTRA:          -5.130
REMARK INTER:                  -4.992
REMARK INTRA:                  -0.139
REMARK UNBOUND:                -0.124
REMARK  Name = 1550473
REMARK  2 active torsions:
REMARK  status: ('A' for Active; 'I' for Inactive)
REMARK    1  A    between atoms: N_1  and  C_4
REMARK    2  A    between atoms: C_4  and  C_5
REMARK                            x       y       z     vdW  Elec       q    Type
REMARK                         _______ _______ _______ _____ _____    ______ ____
ROOT
ATOM      1  N   UNL     1       3.138 -13.061  -8.919  0.00  0.00    -0.354 N 
ATOM      2  N   UNL     1       1.804 -14.816  -8.208  0.00  0.00    -0.372 N 
ATOM      3  N   UNL     1       0.802 -12.871  -8.900  0.00  0.00    -0.372 N 
ATOM      4  C   UNL     1       1.921 -13.569  -8.681  0.00  0.00    +0.166 C 
ATOM      5  H   UNL     1       3.948 -13.631  -8.704  0.00  0.00    +0.163 HD
ATOM      6  H   UNL     1       0.899 -15.227  -8.022  0.00  0.00    +0.159 HD
ATOM      7  H   UNL     1       2.614 -15.400  -8.037  0.00  0.00    +0.159 HD
ATOM      8  H   UNL     1       0.823 -11.923  -9.251  0.00  0.00    +0.159 HD
ATOM      9  H   UNL     1      -0.112 -13.261  -8.709  0.00  0.00    +0.159 HD
ENDROOT
BRANCH   1  10
ATOM     10  C   UNL     1       3.373 -11.734  -9.485  0.00  0.00    +0.151 C 
BRANCH  10  11
ATOM     11  C   UNL     1       4.035 -11.882 -10.827  0.00  0.00    -0.028 A 
ATOM     12  C   UNL     1       3.419 -12.623 -11.846  0.00  0.00    +0.005 A 
ATOM     13  C   UNL     1       5.275 -11.279 -11.088  0.00  0.00    +0.005 A 
ATOM     14  C   UNL     1       4.019 -12.736 -13.103  0.00  0.00    +0.000 A 
ATOM     15  C   UNL     1       5.871 -11.395 -12.343  0.00  0.00    +0.000 A 
ATOM     16  C   UNL     1       5.242 -12.122 -13.351  0.00  0.00    +0.000 A 
ENDBRANCH  10  11
ENDBRANCH   1  10
TORSDOF 2
ENDMDL
