MODEL 1
REMARK VINA RESULT:    -5.868      0.000      0.000
REMARK INTER + INTRA:          -6.678
REMARK INTER:                  -6.554
REMARK INTRA:                  -0.124
REMARK UNBOUND:                -0.124
REMARK  Name = 1550473
REMARK  2 active torsions:
REMARK  status: ('A' for Active; 'I' for Inactive)
REMARK    1  A    between atoms: N_1  and  C_4
REMARK    2  A    between atoms: C_4  and  C_5
REMARK                            x       y       z     vdW  Elec       q    Type
REMARK                         _______ _______ _______ _____ _____    ______ ____
ROOT
ATOM      1  N   UNL     1       0.777  15.670   4.971  0.00  0.00    -0.354 N 
ATOM      2  N   UNL     1       1.974  16.358   3.112  0.00  0.00    -0.372 N 
ATOM      3  N   UNL     1       2.710  14.532   4.291  0.00  0.00    -0.372 N 
ATOM      4  C   UNL     1       1.814  15.513   4.138  0.00  0.00    +0.166 C 
ATOM      5  H   UNL     1       0.150  16.451   4.819  0.00  0.00    +0.163 HD
ATOM      6  H   UNL     1       2.744  16.263   2.464  0.00  0.00    +0.159 HD
ATOM      7  H   UNL     1       1.320  17.111   2.934  0.00  0.00    +0.159 HD
ATOM      8  H   UNL     1       2.649  13.865   5.049  0.00  0.00    +0.159 HD
ATOM      9  H   UNL     1       3.495  14.428   3.660  0.00  0.00    +0.159 HD
ENDROOT
BRANCH   1  10
ATOM     10  C   UNL     1       0.482  14.773   6.088  0.00  0.00    +0.151 C 
BRANCH  10  11
ATOM     11  C   UNL     1      -0.654  15.344   6.890  0.00  0.00    -0.028 A 
ATOM     12  C   UNL     1      -1.127  16.639   6.632  0.00  0.00    +0.005 A 
ATOM     13  C   UNL     1      -1.265  14.593   7.906  0.00  0.00    +0.005 A 
ATOM     14  C   UNL     1      -2.203  17.158   7.357  0.00  0.00    +0.000 A 
ATOM     15  C   UNL     1      -2.338  15.116   8.628  0.00  0.00    +0.000 A 
ATOM     16  C   UNL     1      -2.808  16.397   8.352  0.00  0.00    +0.000 A 
ENDBRANCH  10  11
ENDBRANCH   1  10
TORSDOF 2
ENDMDL
MODEL 2
REMARK VINA RESULT:    -5.427     30.128     31.390
REMARK INTER + INTRA:          -6.186
REMARK INTER:                  -6.057
REMARK INTRA:                  -0.128
REMARK UNBOUND:                -0.124
REMARK  Name = 1550473
REMARK  2 active torsions:
REMARK  status: ('A' for Active; 'I' for Inactive)
REMARK    1  A    between atoms: N_1  and  C_4
REMARK    2  A    between atoms: C_4  and  C_5
REMARK                            x       y       z     vdW  Elec       q    Type
REMARK                         _______ _______ _______ _____ _____    ______ ____
ROOT
ATOM      1  N   UNL     1       2.398 -15.253  -4.676  0.00  0.00    -0.354 N 
ATOM      2  N   UNL     1       4.062 -16.859  -4.792  0.00  0.00    -0.372 N 
ATOM      3  N   UNL     1       3.520 -15.969  -2.748  0.00  0.00    -0.372 N 
ATOM      4  C   UNL     1       3.316 -16.016  -4.069  0.00  0.00    +0.166 C 
ATOM      5  H   UNL     1       2.313 -15.313  -5.685  0.00  0.00    +0.163 HD
ATOM      6  H   UNL     1       4.760 -17.450  -4.361  0.00  0.00    +0.159 HD
ATOM      7  H   UNL     1       3.943 -16.951  -5.794  0.00  0.00    +0.159 HD
ATOM      8  H   UNL     1       2.994 -15.349  -2.146  0.00  0.00    +0.159 HD
ATOM      9  H   UNL     1       4.222 -16.544  -2.299  0.00  0.00    +0.159 HD
ENDROOT
BRANCH   1  10
ATOM     10  C   UNL     1       1.497 -14.341  -3.973  0.00  0.00    +0.151 C 
BRANCH  10  11
ATOM     11  C   UNL     1       1.623 -12.967  -4.572  0.00  0.00    -0.028 A 
ATOM     12  C   UNL     1       1.050 -12.680  -5.820  0.00  0.00    +0.005 A 
ATOM     13  C   UNL     1       2.308 -11.947  -3.895  0.00  0.00    +0.005 A 
ATOM     14  C   UNL     1       1.140 -11.396  -6.363  0.00  0.00    +0.000 A 
ATOM     15  C   UNL     1       2.397 -10.667  -4.441  0.00  0.00    +0.000 A 
ATOM     16  C   UNL     1       1.811 -10.391  -5.674  0.00  0.00    +0.000 A 
ENDBRANCH  10  11
ENDBRANCH   1  10
TORSDOF 2
ENDMDL
MODEL 3
REMARK VINA RESULT:    -5.162     15.301     16.283
REMARK INTER + INTRA:          -5.889
REMARK INTER:                  -5.774
REMARK INTRA:                  -0.115
REMARK UNBOUND:                -0.124
REMARK  Name = 1550473
REMARK  2 active torsions:
REMARK  status: ('A' for Active; 'I' for Inactive)
REMARK    1  A    between atoms: N_1  and  C_4
REMARK    2  A    between atoms: C_4  and  C_5
REMARK                            x       y       z     vdW  Elec       q    Type
REMARK                         _______ _______ _______ _____ _____    ______ ____
ROOT
ATOM      1  N   UNL     1       6.794   8.841  18.632  0.00  0.00    -0.354 N 
ATOM      2  N   UNL     1       4.483   8.809  18.783  0.00  0.00    -0.372 N 
ATOM      3  N   UNL     1       5.541   7.134  17.626  0.00  0.00    -0.372 N 
ATOM      4  C   UNL     1       5.622   8.260  18.344  0.00  0.00    +0.166 C 
ATOM      5  H   UNL     1       6.785   9.709  19.155  0.00  0.00    +0.163 HD
ATOM      6  H   UNL     1       3.584   8.392  18.585  0.00  0.00    +0.159 HD
ATOM      7  H   UNL     1       4.480   9.652  19.345  0.00  0.00    +0.159 HD
ATOM      8  H   UNL     1       6.364   6.673  17.260  0.00  0.00    +0.159 HD
ATOM      9  H   UNL     1       4.650   6.708  17.407  0.00  0.00    +0.159 HD
ENDROOT
BRANCH   1  10
ATOM     10  C   UNL     1       8.094   8.294  18.247  0.00  0.00    +0.151 C 
BRANCH  10  11
ATOM     11  C   UNL     1       8.985   9.418  17.796  0.00  0.00    -0.028 A 
ATOM     12  C   UNL     1       9.912   9.990  18.680  0.00  0.00    +0.005 A 
ATOM     13  C   UNL     1       8.912   9.911  16.484  0.00  0.00    +0.005 A 
ATOM     14  C   UNL     1      10.762  11.013  18.252  0.00  0.00    +0.000 A 
ATOM     15  C   UNL     1       9.761  10.934  16.062  0.00  0.00    +0.000 A 
ATOM     16  C   UNL     1      10.687  11.483  16.945  0.00  0.00    +0.000 A 
ENDBRANCH  10  11
ENDBRANCH   1  10
TORSDOF 2
ENDMDL
MODEL 4
REMARK VINA RESULT:    -5.151      1.221      2.125
REMARK INTER + INTRA:          -5.877
REMARK INTER:                  -5.746
REMARK INTRA:                  -0.131
REMARK UNBOUND:                -0.124
REMARK  Name = 1550473
REMARK  2 active torsions:
REMARK  status: ('A' for Active; 'I' for Inactive)
REMARK    1  A    between atoms: N_1  and  C_4
REMARK    2  A    between atoms: C_4  and  C_5
REMARK                            x       y       z     vdW  Elec       q    Type
REMARK                         _______ _______ _______ _____ _____    ______ ____
ROOT
ATOM      1  N   UNL     1      -0.469  16.306   5.397  0.00  0.00    -0.354 N 
ATOM      2  N   UNL     1       1.239  16.845   3.928  0.00  0.00    -0.372 N 
ATOM      3  N   UNL     1       1.263  14.792   4.951  0.00  0.00    -0.372 N 
ATOM      4  C   UNL     1       0.668  15.975   4.769  0.00  0.00    +0.166 C 
ATOM      5  H   UNL     1      -0.854  17.230   5.239  0.00  0.00    +0.163 HD
ATOM      6  H   UNL     1       2.094  16.622   3.437  0.00  0.00    +0.159 HD
ATOM      7  H   UNL     1       0.827  17.750   3.737  0.00  0.00    +0.159 HD
ATOM      8  H   UNL     1       0.886  14.093   5.577  0.00  0.00    +0.159 HD
ATOM      9  H   UNL     1       2.126  14.554   4.478  0.00  0.00    +0.159 HD
ENDROOT
BRANCH   1  10
ATOM     10  C   UNL     1      -1.200  15.410   6.291  0.00  0.00    +0.151 C 
BRANCH  10  11
ATOM     11  C   UNL     1      -1.885  16.227   7.352  0.00  0.00    -0.028 A 
ATOM     12  C   UNL     1      -2.548  15.599   8.416  0.00  0.00    +0.005 A 
ATOM     13  C   UNL     1      -1.868  17.629   7.302  0.00  0.00    +0.005 A 
ATOM     14  C   UNL     1      -3.159  16.357   9.418  0.00  0.00    +0.000 A 
ATOM     15  C   UNL     1      -2.480  18.383   8.304  0.00  0.00    +0.000 A 
ATOM     16  C   UNL     1      -3.123  17.746   9.363  0.00  0.00    +0.000 A 
ENDBRANCH  10  11
ENDBRANCH   1  10
TORSDOF 2
ENDMDL
MODEL 5
REMARK VINA RESULT:    -5.145      2.918      5.102
REMARK INTER + INTRA:          -5.870
REMARK INTER:                  -5.774
REMARK INTRA:                  -0.096
REMARK UNBOUND:                -0.124
REMARK  Name = 1550473
REMARK  2 active torsions:
REMARK  status: ('A' for Active; 'I' for Inactive)
REMARK    1  A    between atoms: N_1  and  C_4
REMARK    2  A    between atoms: C_4  and  C_5
REMARK                            x       y       z     vdW  Elec       q    Type
REMARK                         _______ _______ _______ _____ _____    ______ ____
ROOT
ATOM      1  N   UNL     1      -2.254  14.250   6.010  0.00  0.00    -0.354 N 
ATOM      2  N   UNL     1      -3.914  12.635   6.056  0.00  0.00    -0.372 N 
ATOM      3  N   UNL     1      -2.906  13.247   8.025  0.00  0.00    -0.372 N 
ATOM      4  C   UNL     1      -3.013  13.388   6.699  0.00  0.00    +0.166 C 
ATOM      5  H   UNL     1      -2.363  14.288   5.003  0.00  0.00    +0.163 HD
ATOM      6  H   UNL     1      -4.503  11.979   6.550  0.00  0.00    +0.159 HD
ATOM      7  H   UNL     1      -4.052  12.708   5.056  0.00  0.00    +0.159 HD
ATOM      8  H   UNL     1      -2.241  13.781   8.568  0.00  0.00    +0.159 HD
ATOM      9  H   UNL     1      -3.478  12.587   8.536  0.00  0.00    +0.159 HD
ENDROOT
BRANCH   1  10
ATOM     10  C   UNL     1      -1.282  15.154   6.621  0.00  0.00    +0.151 C 
BRANCH  10  11
ATOM     11  C   UNL     1      -0.244  15.525   5.598  0.00  0.00    -0.028 A 
ATOM     12  C   UNL     1       0.991  14.861   5.563  0.00  0.00    +0.005 A 
ATOM     13  C   UNL     1      -0.492  16.535   4.656  0.00  0.00    +0.005 A 
ATOM     14  C   UNL     1       1.944  15.184   4.594  0.00  0.00    +0.000 A 
ATOM     15  C   UNL     1       0.462  16.855   3.690  0.00  0.00    +0.000 A 
ATOM     16  C   UNL     1       1.678  16.178   3.658  0.00  0.00    +0.000 A 
ENDBRANCH  10  11
ENDBRANCH   1  10
TORSDOF 2
ENDMDL
MODEL 6
REMARK VINA RESULT:    -5.060     23.909     24.737
REMARK INTER + INTRA:          -5.775
REMARK INTER:                  -5.641
REMARK INTRA:                  -0.134
REMARK UNBOUND:                -0.124
REMARK  Name = 1550473
REMARK  2 active torsions:
REMARK  status: ('A' for Active; 'I' for Inactive)
REMARK    1  A    between atoms: N_1  and  C_4
REMARK    2  A    between atoms: C_4  and  C_5
REMARK                            x       y       z     vdW  Elec       q    Type
REMARK                         _______ _______ _______ _____ _____    ______ ____
ROOT
ATOM      1  N   UNL     1      -4.769  -8.336  -3.176  0.00  0.00    -0.354 N 
ATOM      2  N   UNL     1      -3.963 -10.362  -2.393  0.00  0.00    -0.372 N 
ATOM      3  N   UNL     1      -2.792  -9.261  -4.031  0.00  0.00    -0.372 N 
ATOM      4  C   UNL     1      -3.845  -9.306  -3.207  0.00  0.00    +0.166 C 
ATOM      5  H   UNL     1      -5.559  -8.445  -2.550  0.00  0.00    +0.163 HD
ATOM      6  H   UNL     1      -3.279 -11.107  -2.392  0.00  0.00    +0.159 HD
ATOM      7  H   UNL     1      -4.729 -10.445  -1.736  0.00  0.00    +0.159 HD
ATOM      8  H   UNL     1      -2.648  -8.494  -4.674  0.00  0.00    +0.159 HD
ATOM      9  H   UNL     1      -2.104 -10.003  -4.052  0.00  0.00    +0.159 HD
ENDROOT
BRANCH   1  10
ATOM     10  C   UNL     1      -4.704  -7.119  -3.983  0.00  0.00    +0.151 C 
BRANCH  10  11
ATOM     11  C   UNL     1      -5.209  -5.962  -3.166  0.00  0.00    -0.028 A 
ATOM     12  C   UNL     1      -5.803  -6.179  -1.914  0.00  0.00    +0.005 A 
ATOM     13  C   UNL     1      -5.092  -4.645  -3.637  0.00  0.00    +0.005 A 
ATOM     14  C   UNL     1      -6.245  -5.101  -1.143  0.00  0.00    +0.000 A 
ATOM     15  C   UNL     1      -5.535  -3.572  -2.864  0.00  0.00    +0.000 A 
ATOM     16  C   UNL     1      -6.110  -3.800  -1.616  0.00  0.00    +0.000 A 
ENDBRANCH  10  11
ENDBRANCH   1  10
TORSDOF 2
ENDMDL
MODEL 7
REMARK VINA RESULT:    -5.055     21.962     22.721
REMARK INTER + INTRA:          -5.770
REMARK INTER:                  -5.636
REMARK INTRA:                  -0.134
REMARK UNBOUND:                -0.124
REMARK  Name = 1550473
REMARK  2 active torsions:
REMARK  status: ('A' for Active; 'I' for Inactive)
REMARK    1  A    between atoms: N_1  and  C_4
REMARK    2  A    between atoms: C_4  and  C_5
REMARK                            x       y       z     vdW  Elec       q    Type
REMARK                         _______ _______ _______ _____ _____    ______ ____
ROOT
ATOM      1  N   UNL     1      -5.461  -2.878  -4.702  0.00  0.00    -0.354 N 
ATOM      2  N   UNL     1      -5.809  -2.540  -6.967  0.00  0.00    -0.372 N 
ATOM      3  N   UNL     1      -3.720  -2.159  -6.097  0.00  0.00    -0.372 N 
ATOM      4  C   UNL     1      -4.992  -2.527  -5.907  0.00  0.00    +0.166 C 
ATOM      5  H   UNL     1      -6.442  -3.118  -4.619  0.00  0.00    +0.163 HD
ATOM      6  H   UNL     1      -5.483  -2.284  -7.889  0.00  0.00    +0.159 HD
ATOM      7  H   UNL     1      -6.778  -2.825  -6.889  0.00  0.00    +0.159 HD
ATOM      8  H   UNL     1      -3.054  -2.122  -5.337  0.00  0.00    +0.159 HD
ATOM      9  H   UNL     1      -3.378  -1.887  -7.010  0.00  0.00    +0.159 HD
ENDROOT
BRANCH   1  10
ATOM     10  C   UNL     1      -4.641  -2.949  -3.494  0.00  0.00    +0.151 C 
BRANCH  10  11
ATOM     11  C   UNL     1      -5.023  -4.175  -2.712  0.00  0.00    -0.028 A 
ATOM     12  C   UNL     1      -5.078  -4.138  -1.311  0.00  0.00    +0.005 A 
ATOM     13  C   UNL     1      -5.338  -5.376  -3.366  0.00  0.00    +0.005 A 
ATOM     14  C   UNL     1      -5.463  -5.268  -0.585  0.00  0.00    +0.000 A 
ATOM     15  C   UNL     1      -5.721  -6.503  -2.638  0.00  0.00    +0.000 A 
ATOM     16  C   UNL     1      -5.786  -6.447  -1.248  0.00  0.00    +0.000 A 
ENDBRANCH  10  11
ENDBRANCH   1  10
TORSDOF 2
ENDMDL
MODEL 8
REMARK VINA RESULT:    -5.033      2.081      3.191
REMARK INTER + INTRA:          -5.745
REMARK INTER:                  -5.608
REMARK INTRA:                  -0.137
REMARK UNBOUND:                -0.124
REMARK  Name = 1550473
REMARK  2 active torsions:
REMARK  status: ('A' for Active; 'I' for Inactive)
REMARK    1  A    between atoms: N_1  and  C_4
REMARK    2  A    between atoms: C_4  and  C_5
REMARK                            x       y       z     vdW  Elec       q    Type
REMARK                         _______ _______ _______ _____ _____    ______ ____
ROOT
ATOM      1  N   UNL     1      -1.306  15.654   5.543  0.00  0.00    -0.354 N 
ATOM      2  N   UNL     1      -0.803  16.166   3.341  0.00  0.00    -0.372 N 
ATOM      3  N   UNL     1       0.788  16.526   4.955  0.00  0.00    -0.372 N 
ATOM      4  C   UNL     1      -0.441  16.113   4.629  0.00  0.00    +0.166 C 
ATOM      5  H   UNL     1      -2.234  15.384   5.236  0.00  0.00    +0.163 HD
ATOM      6  H   UNL     1      -0.170  16.504   2.628  0.00  0.00    +0.159 HD
ATOM      7  H   UNL     1      -1.714  15.852   3.030  0.00  0.00    +0.159 HD
ATOM      8  H   UNL     1       1.120  16.517   5.910  0.00  0.00    +0.159 HD
ATOM      9  H   UNL     1       1.431  16.878   4.257  0.00  0.00    +0.159 HD
ENDROOT
BRANCH   1  10
ATOM     10  C   UNL     1      -0.993  15.505   6.963  0.00  0.00    +0.151 C 
BRANCH  10  11
ATOM     11  C   UNL     1      -1.359  14.115   7.404  0.00  0.00    -0.028 A 
ATOM     12  C   UNL     1      -1.636  13.845   8.752  0.00  0.00    +0.005 A 
ATOM     13  C   UNL     1      -1.436  13.064   6.477  0.00  0.00    +0.005 A 
ATOM     14  C   UNL     1      -2.006  12.560   9.157  0.00  0.00    +0.000 A 
ATOM     15  C   UNL     1      -1.805  11.782   6.886  0.00  0.00    +0.000 A 
ATOM     16  C   UNL     1      -2.092  11.531   8.226  0.00  0.00    +0.000 A 
ENDBRANCH  10  11
ENDBRANCH   1  10
TORSDOF 2
ENDMDL
MODEL 9
REMARK VINA RESULT:    -4.966     21.297     22.183
REMARK INTER + INTRA:          -5.670
REMARK INTER:                  -5.550
REMARK INTRA:                  -0.120
REMARK UNBOUND:                -0.124
REMARK  Name = 1550473
REMARK  2 active torsions:
REMARK  status: ('A' for Active; 'I' for Inactive)
REMARK    1  A    between atoms: N_1  and  C_4
REMARK    2  A    between atoms: C_4  and  C_5
REMARK                            x       y       z     vdW  Elec       q    Type
REMARK                         _______ _______ _______ _____ _____    ______ ____
ROOT
ATOM      1  N   UNL     1      -5.611  -5.192  -2.945  0.00  0.00    -0.354 N 
ATOM      2  N   UNL     1      -5.383  -7.441  -3.449  0.00  0.00    -0.372 N 
ATOM      3  N   UNL     1      -6.102  -6.841  -1.355  0.00  0.00    -0.372 N 
ATOM      4  C   UNL     1      -5.701  -6.477  -2.577  0.00  0.00    +0.166 C 
ATOM      5  H   UNL     1      -5.271  -4.981  -3.876  0.00  0.00    +0.163 HD
ATOM      6  H   UNL     1      -5.445  -8.419  -3.201  0.00  0.00    +0.159 HD
ATOM      7  H   UNL     1      -5.088  -7.228  -4.394  0.00  0.00    +0.159 HD
ATOM      8  H   UNL     1      -6.351  -6.162  -0.648  0.00  0.00    +0.159 HD
ATOM      9  H   UNL     1      -6.159  -7.815  -1.084  0.00  0.00    +0.159 HD
ENDROOT
BRANCH   1  10
ATOM     10  C   UNL     1      -5.984  -4.068  -2.088  0.00  0.00    +0.151 C 
BRANCH  10  11
ATOM     11  C   UNL     1      -5.217  -2.848  -2.517  0.00  0.00    -0.028 A 
ATOM     12  C   UNL     1      -4.933  -1.826  -1.598  0.00  0.00    +0.005 A 
ATOM     13  C   UNL     1      -4.766  -2.709  -3.838  0.00  0.00    +0.005 A 
ATOM     14  C   UNL     1      -4.194  -0.707  -1.988  0.00  0.00    +0.000 A 
ATOM     15  C   UNL     1      -4.029  -1.589  -4.224  0.00  0.00    +0.000 A 
ATOM     16  C   UNL     1      -3.742  -0.590  -3.298  0.00  0.00    +0.000 A 
ENDBRANCH  10  11
ENDBRANCH   1  10
TORSDOF 2
ENDMDL
