MODEL 1
REMARK VINA RESULT:    -5.223      0.000      0.000
REMARK INTER + INTRA:          -6.008
REMARK INTER:                  -5.833
REMARK INTRA:                  -0.175
REMARK UNBOUND:                -0.175
REMARK  Name = 1550473
REMARK  2 active torsions:
REMARK  status: ('A' for Active; 'I' for Inactive)
REMARK    1  A    between atoms: N_1  and  C_4
REMARK    2  A    between atoms: C_4  and  C_5
REMARK                            x       y       z     vdW  Elec       q    Type
REMARK                         _______ _______ _______ _____ _____    ______ ____
ROOT
ATOM      1  N   UNL     1       1.699   3.656 -19.977  0.00  0.00    -0.354 N 
ATOM      2  N   UNL     1       2.889   3.674 -21.964  0.00  0.00    -0.372 N 
ATOM      3  N   UNL     1       3.660   2.396 -20.221  0.00  0.00    -0.372 N 
ATOM      4  C   UNL     1       2.743   3.240 -20.706  0.00  0.00    +0.166 C 
ATOM      5  H   UNL     1       1.056   4.320 -20.392  0.00  0.00    +0.163 HD
ATOM      6  H   UNL     1       3.665   3.375 -22.539  0.00  0.00    +0.159 HD
ATOM      7  H   UNL     1       2.220   4.302 -22.392  0.00  0.00    +0.159 HD
ATOM      8  H   UNL     1       3.611   2.037 -19.277  0.00  0.00    +0.159 HD
ATOM      9  H   UNL     1       4.450   2.095 -20.777  0.00  0.00    +0.159 HD
ENDROOT
BRANCH   1  10
ATOM     10  C   UNL     1       1.419   3.202 -18.616  0.00  0.00    +0.151 C 
BRANCH  10  11
ATOM     11  C   UNL     1       1.712   4.320 -17.655  0.00  0.00    -0.028 A 
ATOM     12  C   UNL     1       0.693   5.195 -17.248  0.00  0.00    +0.005 A 
ATOM     13  C   UNL     1       3.005   4.508 -17.142  0.00  0.00    +0.005 A 
ATOM     14  C   UNL     1       0.958   6.216 -16.332  0.00  0.00    +0.000 A 
ATOM     15  C   UNL     1       3.265   5.530 -16.228  0.00  0.00    +0.000 A 
ATOM     16  C   UNL     1       2.241   6.381 -15.822  0.00  0.00    +0.000 A 
ENDBRANCH  10  11
ENDBRANCH   1  10
TORSDOF 2
ENDMDL
MODEL 2
REMARK VINA RESULT:    -5.192      3.254      4.383
REMARK INTER + INTRA:          -5.974
REMARK INTER:                  -5.833
REMARK INTRA:                  -0.141
REMARK UNBOUND:                -0.175
REMARK  Name = 1550473
REMARK  2 active torsions:
REMARK  status: ('A' for Active; 'I' for Inactive)
REMARK    1  A    between atoms: N_1  and  C_4
REMARK    2  A    between atoms: C_4  and  C_5
REMARK                            x       y       z     vdW  Elec       q    Type
REMARK                         _______ _______ _______ _____ _____    ______ ____
ROOT
ATOM      1  N   UNL     1       5.144   4.142 -15.823  0.00  0.00    -0.354 N 
ATOM      2  N   UNL     1       7.361   3.600 -16.218  0.00  0.00    -0.372 N 
ATOM      3  N   UNL     1       6.850   5.711 -15.475  0.00  0.00    -0.372 N 
ATOM      4  C   UNL     1       6.437   4.491 -15.836  0.00  0.00    +0.166 C 
ATOM      5  H   UNL     1       4.893   3.211 -16.136  0.00  0.00    +0.163 HD
ATOM      6  H   UNL     1       8.345   3.834 -16.234  0.00  0.00    +0.159 HD
ATOM      7  H   UNL     1       7.112   2.656 -16.487  0.00  0.00    +0.159 HD
ATOM      8  H   UNL     1       6.202   6.430 -15.182  0.00  0.00    +0.159 HD
ATOM      9  H   UNL     1       7.829   5.967 -15.497  0.00  0.00    +0.159 HD
ENDROOT
BRANCH   1  10
ATOM     10  C   UNL     1       4.065   5.019 -15.372  0.00  0.00    +0.151 C 
BRANCH  10  11
ATOM     11  C   UNL     1       2.946   4.977 -16.376  0.00  0.00    -0.028 A 
ATOM     12  C   UNL     1       1.683   5.498 -16.058  0.00  0.00    +0.005 A 
ATOM     13  C   UNL     1       3.144   4.423 -17.650  0.00  0.00    +0.005 A 
ATOM     14  C   UNL     1       0.653   5.486 -17.000  0.00  0.00    +0.000 A 
ATOM     15  C   UNL     1       2.112   4.413 -18.589  0.00  0.00    +0.000 A 
ATOM     16  C   UNL     1       0.867   4.947 -18.264  0.00  0.00    +0.000 A 
ENDBRANCH  10  11
ENDBRANCH   1  10
TORSDOF 2
ENDMDL
MODEL 3
REMARK VINA RESULT:    -5.073     10.462     11.685
REMARK INTER + INTRA:          -5.841
REMARK INTER:                  -5.693
REMARK INTRA:                  -0.149
REMARK UNBOUND:                -0.175
REMARK  Name = 1550473
REMARK  2 active torsions:
REMARK  status: ('A' for Active; 'I' for Inactive)
REMARK    1  A    between atoms: N_1  and  C_4
REMARK    2  A    between atoms: C_4  and  C_5
REMARK                            x       y       z     vdW  Elec       q    Type
REMARK                         _______ _______ _______ _____ _____    ______ ____
ROOT
ATOM      1  N   UNL     1      -8.411   4.977 -19.668  0.00  0.00    -0.354 N 
ATOM      2  N   UNL     1     -10.272   3.870 -18.847  0.00  0.00    -0.372 N 
ATOM      3  N   UNL     1     -10.458   6.087 -19.407  0.00  0.00    -0.372 N 
ATOM      4  C   UNL     1      -9.702   4.988 -19.313  0.00  0.00    +0.166 C 
ATOM      5  H   UNL     1      -7.885   4.119 -19.545  0.00  0.00    +0.163 HD
ATOM      6  H   UNL     1     -11.245   3.847 -18.575  0.00  0.00    +0.159 HD
ATOM      7  H   UNL     1      -9.756   3.002 -18.768  0.00  0.00    +0.159 HD
ATOM      8  H   UNL     1     -10.086   6.965 -19.746  0.00  0.00    +0.159 HD
ATOM      9  H   UNL     1     -11.431   6.087 -19.128  0.00  0.00    +0.159 HD
ENDROOT
BRANCH   1  10
ATOM     10  C   UNL     1      -7.709   6.126 -20.238  0.00  0.00    +0.151 C 
BRANCH  10  11
ATOM     11  C   UNL     1      -7.297   5.801 -21.647  0.00  0.00    -0.028 A 
ATOM     12  C   UNL     1      -6.855   4.513 -21.981  0.00  0.00    +0.005 A 
ATOM     13  C   UNL     1      -7.352   6.776 -22.655  0.00  0.00    +0.005 A 
ATOM     14  C   UNL     1      -6.501   4.202 -23.296  0.00  0.00    +0.000 A 
ATOM     15  C   UNL     1      -6.997   6.463 -23.967  0.00  0.00    +0.000 A 
ATOM     16  C   UNL     1      -6.574   5.175 -24.287  0.00  0.00    +0.000 A 
ENDBRANCH  10  11
ENDBRANCH   1  10
TORSDOF 2
ENDMDL
MODEL 4
REMARK VINA RESULT:    -4.978      3.654      4.577
REMARK INTER + INTRA:          -5.735
REMARK INTER:                  -5.585
REMARK INTRA:                  -0.150
REMARK UNBOUND:                -0.175
REMARK  Name = 1550473
REMARK  2 active torsions:
REMARK  status: ('A' for Active; 'I' for Inactive)
REMARK    1  A    between atoms: N_1  and  C_4
REMARK    2  A    between atoms: C_4  and  C_5
REMARK                            x       y       z     vdW  Elec       q    Type
REMARK                         _______ _______ _______ _____ _____    ______ ____
ROOT
ATOM      1  N   UNL     1       4.572   7.583 -16.505  0.00  0.00    -0.354 N 
ATOM      2  N   UNL     1       5.936   9.022 -17.702  0.00  0.00    -0.372 N 
ATOM      3  N   UNL     1       6.811   7.044 -16.937  0.00  0.00    -0.372 N 
ATOM      4  C   UNL     1       5.766   7.872 -17.039  0.00  0.00    +0.166 C 
ATOM      5  H   UNL     1       3.828   8.266 -16.591  0.00  0.00    +0.163 HD
ATOM      6  H   UNL     1       6.824   9.265 -18.119  0.00  0.00    +0.159 HD
ATOM      7  H   UNL     1       5.178   9.682 -17.827  0.00  0.00    +0.159 HD
ATOM      8  H   UNL     1       6.751   6.163 -16.444  0.00  0.00    +0.159 HD
ATOM      9  H   UNL     1       7.712   7.275 -17.337  0.00  0.00    +0.159 HD
ENDROOT
BRANCH   1  10
ATOM     10  C   UNL     1       4.268   6.333 -15.810  0.00  0.00    +0.151 C 
BRANCH  10  11
ATOM     11  C   UNL     1       3.161   5.623 -16.539  0.00  0.00    -0.028 A 
ATOM     12  C   UNL     1       1.821   5.847 -16.190  0.00  0.00    +0.005 A 
ATOM     13  C   UNL     1       3.445   4.729 -17.583  0.00  0.00    +0.005 A 
ATOM     14  C   UNL     1       0.791   5.210 -16.887  0.00  0.00    +0.000 A 
ATOM     15  C   UNL     1       2.414   4.095 -18.275  0.00  0.00    +0.000 A 
ATOM     16  C   UNL     1       1.087   4.337 -17.929  0.00  0.00    +0.000 A 
ENDBRANCH  10  11
ENDBRANCH   1  10
TORSDOF 2
ENDMDL
MODEL 5
REMARK VINA RESULT:    -4.946     21.862     23.230
REMARK INTER + INTRA:          -5.699
REMARK INTER:                  -5.569
REMARK INTRA:                  -0.130
REMARK UNBOUND:                -0.175
REMARK  Name = 1550473
REMARK  2 active torsions:
REMARK  status: ('A' for Active; 'I' for Inactive)
REMARK    1  A    between atoms: N_1  and  C_4
REMARK    2  A    between atoms: C_4  and  C_5
REMARK                            x       y       z     vdW  Elec       q    Type
REMARK                         _______ _______ _______ _____ _____    ______ ____
ROOT
ATOM      1  N   UNL     1       4.888  19.535   0.226  0.00  0.00    -0.354 N 
ATOM      2  N   UNL     1       4.107  19.920   2.372  0.00  0.00    -0.372 N 
ATOM      3  N   UNL     1       3.855  17.831   1.458  0.00  0.00    -0.372 N 
ATOM      4  C   UNL     1       4.288  19.090   1.338  0.00  0.00    +0.166 C 
ATOM      5  H   UNL     1       5.165  20.509   0.186  0.00  0.00    +0.163 HD
ATOM      6  H   UNL     1       3.660  19.612   3.225  0.00  0.00    +0.159 HD
ATOM      7  H   UNL     1       4.427  20.881   2.346  0.00  0.00    +0.159 HD
ATOM      8  H   UNL     1       3.956  17.156   0.712  0.00  0.00    +0.159 HD
ATOM      9  H   UNL     1       3.395  17.506   2.300  0.00  0.00    +0.159 HD
ENDROOT
BRANCH   1  10
ATOM     10  C   UNL     1       5.181  18.698  -0.937  0.00  0.00    +0.151 C 
BRANCH  10  11
ATOM     11  C   UNL     1       4.534  19.303  -2.152  0.00  0.00    -0.028 A 
ATOM     12  C   UNL     1       3.515  20.257  -2.017  0.00  0.00    +0.005 A 
ATOM     13  C   UNL     1       4.939  18.929  -3.443  0.00  0.00    +0.005 A 
ATOM     14  C   UNL     1       2.934  20.840  -3.145  0.00  0.00    +0.000 A 
ATOM     15  C   UNL     1       4.356  19.513  -4.567  0.00  0.00    +0.000 A 
ATOM     16  C   UNL     1       3.356  20.471  -4.418  0.00  0.00    +0.000 A 
ENDBRANCH  10  11
ENDBRANCH   1  10
TORSDOF 2
ENDMDL
MODEL 6
REMARK VINA RESULT:    -4.944      2.228      5.225
REMARK INTER + INTRA:          -5.698
REMARK INTER:                  -5.594
REMARK INTRA:                  -0.104
REMARK UNBOUND:                -0.175
REMARK  Name = 1550473
REMARK  2 active torsions:
REMARK  status: ('A' for Active; 'I' for Inactive)
REMARK    1  A    between atoms: N_1  and  C_4
REMARK    2  A    between atoms: C_4  and  C_5
REMARK                            x       y       z     vdW  Elec       q    Type
REMARK                         _______ _______ _______ _____ _____    ______ ____
ROOT
ATOM      1  N   UNL     1       2.491   4.880 -18.762  0.00  0.00    -0.354 N 
ATOM      2  N   UNL     1       2.242   7.022 -17.916  0.00  0.00    -0.372 N 
ATOM      3  N   UNL     1       0.424   5.622 -17.944  0.00  0.00    -0.372 N 
ATOM      4  C   UNL     1       1.718   5.827 -18.212  0.00  0.00    +0.166 C 
ATOM      5  H   UNL     1       3.457   5.108 -18.969  0.00  0.00    +0.163 HD
ATOM      6  H   UNL     1       1.684   7.754 -17.497  0.00  0.00    +0.159 HD
ATOM      7  H   UNL     1       3.219   7.232 -18.081  0.00  0.00    +0.159 HD
ATOM      8  H   UNL     1      -0.033   4.744 -18.149  0.00  0.00    +0.159 HD
ATOM      9  H   UNL     1      -0.153   6.347 -17.536  0.00  0.00    +0.159 HD
ENDROOT
BRANCH   1  10
ATOM     10  C   UNL     1       2.032   3.528 -19.073  0.00  0.00    +0.151 C 
BRANCH  10  11
ATOM     11  C   UNL     1       2.881   2.963 -20.178  0.00  0.00    -0.028 A 
ATOM     12  C   UNL     1       3.840   1.977 -19.906  0.00  0.00    +0.005 A 
ATOM     13  C   UNL     1       2.727   3.406 -21.501  0.00  0.00    +0.005 A 
ATOM     14  C   UNL     1       4.608   1.430 -20.937  0.00  0.00    +0.000 A 
ATOM     15  C   UNL     1       3.497   2.859 -22.527  0.00  0.00    +0.000 A 
ATOM     16  C   UNL     1       4.435   1.869 -22.245  0.00  0.00    +0.000 A 
ENDBRANCH  10  11
ENDBRANCH   1  10
TORSDOF 2
ENDMDL
MODEL 7
REMARK VINA RESULT:    -4.900      1.957      3.317
REMARK INTER + INTRA:          -5.648
REMARK INTER:                  -5.538
REMARK INTRA:                  -0.110
REMARK UNBOUND:                -0.175
REMARK  Name = 1550473
REMARK  2 active torsions:
REMARK  status: ('A' for Active; 'I' for Inactive)
REMARK    1  A    between atoms: N_1  and  C_4
REMARK    2  A    between atoms: C_4  and  C_5
REMARK                            x       y       z     vdW  Elec       q    Type
REMARK                         _______ _______ _______ _____ _____    ______ ____
ROOT
ATOM      1  N   UNL     1       2.516   5.420 -18.706  0.00  0.00    -0.354 N 
ATOM      2  N   UNL     1       1.722   3.581 -19.869  0.00  0.00    -0.372 N 
ATOM      3  N   UNL     1       0.893   4.011 -17.773  0.00  0.00    -0.372 N 
ATOM      4  C   UNL     1       1.714   4.349 -18.773  0.00  0.00    +0.166 C 
ATOM      5  H   UNL     1       3.137   5.605 -19.485  0.00  0.00    +0.163 HD
ATOM      6  H   UNL     1       1.126   2.768 -19.949  0.00  0.00    +0.159 HD
ATOM      7  H   UNL     1       2.311   3.795 -20.665  0.00  0.00    +0.159 HD
ATOM      8  H   UNL     1       0.844   4.546 -16.916  0.00  0.00    +0.159 HD
ATOM      9  H   UNL     1       0.297   3.194 -17.830  0.00  0.00    +0.159 HD
ENDROOT
BRANCH   1  10
ATOM     10  C   UNL     1       2.544   6.352 -17.580  0.00  0.00    +0.151 C 
BRANCH  10  11
ATOM     11  C   UNL     1       3.708   6.012 -16.691  0.00  0.00    -0.028 A 
ATOM     12  C   UNL     1       4.909   6.731 -16.783  0.00  0.00    +0.005 A 
ATOM     13  C   UNL     1       3.615   4.975 -15.750  0.00  0.00    +0.005 A 
ATOM     14  C   UNL     1       5.980   6.435 -15.936  0.00  0.00    +0.000 A 
ATOM     15  C   UNL     1       4.687   4.682 -14.907  0.00  0.00    +0.000 A 
ATOM     16  C   UNL     1       5.869   5.414 -14.999  0.00  0.00    +0.000 A 
ENDBRANCH  10  11
ENDBRANCH   1  10
TORSDOF 2
ENDMDL
MODEL 8
REMARK VINA RESULT:    -4.715     24.282     24.913
REMARK INTER + INTRA:          -5.441
REMARK INTER:                  -5.289
REMARK INTRA:                  -0.152
REMARK UNBOUND:                -0.175
REMARK  Name = 1550473
REMARK  2 active torsions:
REMARK  status: ('A' for Active; 'I' for Inactive)
REMARK    1  A    between atoms: N_1  and  C_4
REMARK    2  A    between atoms: C_4  and  C_5
REMARK                            x       y       z     vdW  Elec       q    Type
REMARK                         _______ _______ _______ _____ _____    ______ ____
ROOT
ATOM      1  N   UNL     1       5.734  19.254   1.679  0.00  0.00    -0.354 N 
ATOM      2  N   UNL     1       3.881  19.608   0.335  0.00  0.00    -0.372 N 
ATOM      3  N   UNL     1       4.030  17.653   1.527  0.00  0.00    -0.372 N 
ATOM      4  C   UNL     1       4.560  18.834   1.190  0.00  0.00    +0.166 C 
ATOM      5  H   UNL     1       6.097  20.146   1.360  0.00  0.00    +0.163 HD
ATOM      6  H   UNL     1       2.991  19.319  -0.047  0.00  0.00    +0.159 HD
ATOM      7  H   UNL     1       4.224  20.519   0.054  0.00  0.00    +0.159 HD
ATOM      8  H   UNL     1       4.495  17.019   2.163  0.00  0.00    +0.159 HD
ATOM      9  H   UNL     1       3.146  17.341   1.145  0.00  0.00    +0.159 HD
ENDROOT
BRANCH   1  10
ATOM     10  C   UNL     1       6.527  18.511   2.656  0.00  0.00    +0.151 C 
BRANCH  10  11
ATOM     11  C   UNL     1       7.802  18.049   2.007  0.00  0.00    -0.028 A 
ATOM     12  C   UNL     1       8.645  18.966   1.363  0.00  0.00    +0.005 A 
ATOM     13  C   UNL     1       8.176  16.697   2.036  0.00  0.00    +0.005 A 
ATOM     14  C   UNL     1       9.845  18.543   0.785  0.00  0.00    +0.000 A 
ATOM     15  C   UNL     1       9.374  16.278   1.458  0.00  0.00    +0.000 A 
ATOM     16  C   UNL     1      10.209  17.202   0.834  0.00  0.00    +0.000 A 
ENDBRANCH  10  11
ENDBRANCH   1  10
TORSDOF 2
ENDMDL
MODEL 9
REMARK VINA RESULT:    -4.703     13.578     14.460
REMARK INTER + INTRA:          -5.428
REMARK INTER:                  -5.319
REMARK INTRA:                  -0.109
REMARK UNBOUND:                -0.175
REMARK  Name = 1550473
REMARK  2 active torsions:
REMARK  status: ('A' for Active; 'I' for Inactive)
REMARK    1  A    between atoms: N_1  and  C_4
REMARK    2  A    between atoms: C_4  and  C_5
REMARK                            x       y       z     vdW  Elec       q    Type
REMARK                         _______ _______ _______ _____ _____    ______ ____
ROOT
ATOM      1  N   UNL     1     -10.721   1.019 -13.173  0.00  0.00    -0.354 N 
ATOM      2  N   UNL     1     -10.980   0.608 -15.437  0.00  0.00    -0.372 N 
ATOM      3  N   UNL     1     -11.638   2.639 -14.597  0.00  0.00    -0.372 N 
ATOM      4  C   UNL     1     -11.113   1.427 -14.387  0.00  0.00    +0.166 C 
ATOM      5  H   UNL     1     -10.358   0.078 -13.075  0.00  0.00    +0.163 HD
ATOM      6  H   UNL     1     -11.263   0.889 -16.366  0.00  0.00    +0.159 HD
ATOM      7  H   UNL     1     -10.574  -0.315 -15.345  0.00  0.00    +0.159 HD
ATOM      8  H   UNL     1     -11.771   3.302 -13.845  0.00  0.00    +0.159 HD
ATOM      9  H   UNL     1     -11.939   2.934 -15.517  0.00  0.00    +0.159 HD
ENDROOT
BRANCH   1  10
ATOM     10  C   UNL     1     -10.773   1.854 -11.974  0.00  0.00    +0.151 C 
BRANCH  10  11
ATOM     11  C   UNL     1      -9.885   1.253 -10.919  0.00  0.00    -0.028 A 
ATOM     12  C   UNL     1     -10.398   0.936  -9.653  0.00  0.00    +0.005 A 
ATOM     13  C   UNL     1      -8.531   0.994 -11.181  0.00  0.00    +0.005 A 
ATOM     14  C   UNL     1      -9.582   0.351  -8.682  0.00  0.00    +0.000 A 
ATOM     15  C   UNL     1      -7.719   0.410 -10.209  0.00  0.00    +0.000 A 
ATOM     16  C   UNL     1      -8.245   0.087  -8.961  0.00  0.00    +0.000 A 
ENDBRANCH  10  11
ENDBRANCH   1  10
TORSDOF 2
ENDMDL
