MODEL 1
REMARK VINA RESULT:    -4.862      0.000      0.000
REMARK INTER + INTRA:          -5.566
REMARK INTER:                  -5.430
REMARK INTRA:                  -0.136
REMARK UNBOUND:                -0.136
REMARK  Name = 1550473
REMARK  2 active torsions:
REMARK  status: ('A' for Active; 'I' for Inactive)
REMARK    1  A    between atoms: N_1  and  C_4
REMARK    2  A    between atoms: C_4  and  C_5
REMARK                            x       y       z     vdW  Elec       q    Type
REMARK                         _______ _______ _______ _____ _____    ______ ____
ROOT
ATOM      1  N   UNL     1      14.738  12.459  16.020  0.00  0.00    -0.354 N 
ATOM      2  N   UNL     1      13.485  14.404  16.102  0.00  0.00    -0.372 N 
ATOM      3  N   UNL     1      12.397  12.384  16.097  0.00  0.00    -0.372 N 
ATOM      4  C   UNL     1      13.546  13.068  16.072  0.00  0.00    +0.166 C 
ATOM      5  H   UNL     1      15.571  13.034  15.973  0.00  0.00    +0.163 HD
ATOM      6  H   UNL     1      12.600  14.892  16.146  0.00  0.00    +0.159 HD
ATOM      7  H   UNL     1      14.320  14.976  16.102  0.00  0.00    +0.159 HD
ATOM      8  H   UNL     1      12.375  11.373  16.071  0.00  0.00    +0.159 HD
ATOM      9  H   UNL     1      11.501  12.854  16.129  0.00  0.00    +0.159 HD
ENDROOT
BRANCH   1  10
ATOM     10  C   UNL     1      14.917  11.008  16.038  0.00  0.00    +0.151 C 
BRANCH  10  11
ATOM     11  C   UNL     1      15.973  10.631  15.037  0.00  0.00    -0.028 A 
ATOM     12  C   UNL     1      16.887   9.604  15.318  0.00  0.00    +0.005 A 
ATOM     13  C   UNL     1      16.063  11.292  13.802  0.00  0.00    +0.005 A 
ATOM     14  C   UNL     1      17.850   9.233  14.377  0.00  0.00    +0.000 A 
ATOM     15  C   UNL     1      17.026  10.919  12.865  0.00  0.00    +0.000 A 
ATOM     16  C   UNL     1      17.918   9.888  13.151  0.00  0.00    +0.000 A 
ENDBRANCH  10  11
ENDBRANCH   1  10
TORSDOF 2
ENDMDL
MODEL 2
REMARK VINA RESULT:    -4.731     15.955     16.893
REMARK INTER + INTRA:          -5.420
REMARK INTER:                  -5.391
REMARK INTRA:                  -0.029
REMARK UNBOUND:                -0.136
REMARK  Name = 1550473
REMARK  2 active torsions:
REMARK  status: ('A' for Active; 'I' for Inactive)
REMARK    1  A    between atoms: N_1  and  C_4
REMARK    2  A    between atoms: C_4  and  C_5
REMARK                            x       y       z     vdW  Elec       q    Type
REMARK                         _______ _______ _______ _____ _____    ______ ____
ROOT
ATOM      1  N   UNL     1      -0.534  11.248   9.943  0.00  0.00    -0.354 N 
ATOM      2  N   UNL     1      -2.656  12.031  10.443  0.00  0.00    -0.372 N 
ATOM      3  N   UNL     1      -2.439  10.255   9.006  0.00  0.00    -0.372 N 
ATOM      4  C   UNL     1      -1.863  11.171   9.792  0.00  0.00    +0.166 C 
ATOM      5  H   UNL     1      -0.158  11.985  10.529  0.00  0.00    +0.163 HD
ATOM      6  H   UNL     1      -3.662  11.995  10.351  0.00  0.00    +0.159 HD
ATOM      7  H   UNL     1      -2.280  12.737  11.064  0.00  0.00    +0.159 HD
ATOM      8  H   UNL     1      -1.896   9.581   8.483  0.00  0.00    +0.159 HD
ATOM      9  H   UNL     1      -3.444  10.210   8.893  0.00  0.00    +0.159 HD
ENDROOT
BRANCH   1  10
ATOM     10  C   UNL     1       0.414  10.326   9.321  0.00  0.00    +0.151 C 
BRANCH  10  11
ATOM     11  C   UNL     1       1.005  10.977   8.101  0.00  0.00    -0.028 A 
ATOM     12  C   UNL     1       0.570  12.246   7.690  0.00  0.00    +0.005 A 
ATOM     13  C   UNL     1       2.003  10.332   7.354  0.00  0.00    +0.005 A 
ATOM     14  C   UNL     1       1.140  12.863   6.574  0.00  0.00    +0.000 A 
ATOM     15  C   UNL     1       2.568  10.952   6.240  0.00  0.00    +0.000 A 
ATOM     16  C   UNL     1       2.138  12.219   5.852  0.00  0.00    +0.000 A 
ENDBRANCH  10  11
ENDBRANCH   1  10
TORSDOF 2
ENDMDL
MODEL 3
REMARK VINA RESULT:    -4.585     40.145     41.015
REMARK INTER + INTRA:          -5.257
REMARK INTER:                  -5.115
REMARK INTRA:                  -0.142
REMARK UNBOUND:                -0.136
REMARK  Name = 1550473
REMARK  2 active torsions:
REMARK  status: ('A' for Active; 'I' for Inactive)
REMARK    1  A    between atoms: N_1  and  C_4
REMARK    2  A    between atoms: C_4  and  C_5
REMARK                            x       y       z     vdW  Elec       q    Type
REMARK                         _______ _______ _______ _____ _____    ______ ____
ROOT
ATOM      1  N   UNL     1      -5.678   0.338 -18.959  0.00  0.00    -0.354 N 
ATOM      2  N   UNL     1      -6.853   2.060 -17.949  0.00  0.00    -0.372 N 
ATOM      3  N   UNL     1      -5.163   2.579 -19.411  0.00  0.00    -0.372 N 
ATOM      4  C   UNL     1      -5.888   1.649 -18.781  0.00  0.00    +0.166 C 
ATOM      5  H   UNL     1      -6.242  -0.316 -18.429  0.00  0.00    +0.163 HD
ATOM      6  H   UNL     1      -7.037   3.042 -17.797  0.00  0.00    +0.159 HD
ATOM      7  H   UNL     1      -7.446   1.403 -17.455  0.00  0.00    +0.159 HD
ATOM      8  H   UNL     1      -4.416   2.335 -20.047  0.00  0.00    +0.159 HD
ATOM      9  H   UNL     1      -5.324   3.567 -19.263  0.00  0.00    +0.159 HD
ENDROOT
BRANCH   1  10
ATOM     10  C   UNL     1      -4.689  -0.214 -19.883  0.00  0.00    +0.151 C 
BRANCH  10  11
ATOM     11  C   UNL     1      -3.924  -1.307 -19.189  0.00  0.00    -0.028 A 
ATOM     12  C   UNL     1      -4.093  -1.532 -17.815  0.00  0.00    +0.005 A 
ATOM     13  C   UNL     1      -3.035  -2.126 -19.901  0.00  0.00    +0.005 A 
ATOM     14  C   UNL     1      -3.405  -2.566 -17.176  0.00  0.00    +0.000 A 
ATOM     15  C   UNL     1      -2.350  -3.157 -19.259  0.00  0.00    +0.000 A 
ATOM     16  C   UNL     1      -2.537  -3.379 -17.897  0.00  0.00    +0.000 A 
ENDBRANCH  10  11
ENDBRANCH   1  10
TORSDOF 2
ENDMDL
MODEL 4
REMARK VINA RESULT:    -4.578     17.389     18.493
REMARK INTER + INTRA:          -5.249
REMARK INTER:                  -5.128
REMARK INTRA:                  -0.122
REMARK UNBOUND:                -0.136
REMARK  Name = 1550473
REMARK  2 active torsions:
REMARK  status: ('A' for Active; 'I' for Inactive)
REMARK    1  A    between atoms: N_1  and  C_4
REMARK    2  A    between atoms: C_4  and  C_5
REMARK                            x       y       z     vdW  Elec       q    Type
REMARK                         _______ _______ _______ _____ _____    ______ ____
ROOT
ATOM      1  N   UNL     1      12.784   7.180  -1.050  0.00  0.00    -0.354 N 
ATOM      2  N   UNL     1      14.912   7.018  -0.150  0.00  0.00    -0.372 N 
ATOM      3  N   UNL     1      13.100   6.735   1.229  0.00  0.00    -0.372 N 
ATOM      4  C   UNL     1      13.583   6.978   0.006  0.00  0.00    +0.166 C 
ATOM      5  H   UNL     1      13.213   7.390  -1.945  0.00  0.00    +0.163 HD
ATOM      6  H   UNL     1      15.540   6.866   0.628  0.00  0.00    +0.159 HD
ATOM      7  H   UNL     1      15.338   7.182  -1.054  0.00  0.00    +0.159 HD
ATOM      8  H   UNL     1      12.106   6.698   1.414  0.00  0.00    +0.159 HD
ATOM      9  H   UNL     1      13.712   6.592   2.022  0.00  0.00    +0.159 HD
ENDROOT
BRANCH   1  10
ATOM     10  C   UNL     1      11.325   7.105  -0.998  0.00  0.00    +0.151 C 
BRANCH  10  11
ATOM     11  C   UNL     1      10.822   6.450  -2.255  0.00  0.00    -0.028 A 
ATOM     12  C   UNL     1      10.044   7.172  -3.172  0.00  0.00    +0.005 A 
ATOM     13  C   UNL     1      11.124   5.109  -2.537  0.00  0.00    +0.005 A 
ATOM     14  C   UNL     1       9.601   6.572  -4.353  0.00  0.00    +0.000 A 
ATOM     15  C   UNL     1      10.680   4.514  -3.717  0.00  0.00    +0.000 A 
ATOM     16  C   UNL     1       9.920   5.246  -4.626  0.00  0.00    +0.000 A 
ENDBRANCH  10  11
ENDBRANCH   1  10
TORSDOF 2
ENDMDL
MODEL 5
REMARK VINA RESULT:    -4.571     32.520     33.395
REMARK INTER + INTRA:          -5.242
REMARK INTER:                  -5.071
REMARK INTRA:                  -0.171
REMARK UNBOUND:                -0.136
REMARK  Name = 1550473
REMARK  2 active torsions:
REMARK  status: ('A' for Active; 'I' for Inactive)
REMARK    1  A    between atoms: N_1  and  C_4
REMARK    2  A    between atoms: C_4  and  C_5
REMARK                            x       y       z     vdW  Elec       q    Type
REMARK                         _______ _______ _______ _____ _____    ______ ____
ROOT
ATOM      1  N   UNL     1     -10.170  -5.903   9.626  0.00  0.00    -0.354 N 
ATOM      2  N   UNL     1      -8.436  -4.794   8.562  0.00  0.00    -0.372 N 
ATOM      3  N   UNL     1     -10.558  -3.935   8.415  0.00  0.00    -0.372 N 
ATOM      4  C   UNL     1      -9.735  -4.883   8.874  0.00  0.00    +0.166 C 
ATOM      5  H   UNL     1      -9.500  -6.606   9.917  0.00  0.00    +0.163 HD
ATOM      6  H   UNL     1      -8.078  -4.034   8.000  0.00  0.00    +0.159 HD
ATOM      7  H   UNL     1      -7.761  -5.473   8.894  0.00  0.00    +0.159 HD
ATOM      8  H   UNL     1     -11.550  -3.947   8.609  0.00  0.00    +0.159 HD
ATOM      9  H   UNL     1     -10.221  -3.172   7.840  0.00  0.00    +0.159 HD
ENDROOT
BRANCH   1  10
ATOM     10  C   UNL     1     -11.554  -6.062  10.066  0.00  0.00    +0.151 C 
BRANCH  10  11
ATOM     11  C   UNL     1     -12.229  -7.091   9.201  0.00  0.00    -0.028 A 
ATOM     12  C   UNL     1     -13.503  -6.847   8.666  0.00  0.00    +0.005 A 
ATOM     13  C   UNL     1     -11.598  -8.310   8.908  0.00  0.00    +0.005 A 
ATOM     14  C   UNL     1     -14.117  -7.789   7.838  0.00  0.00    +0.000 A 
ATOM     15  C   UNL     1     -12.215  -9.249   8.082  0.00  0.00    +0.000 A 
ATOM     16  C   UNL     1     -13.473  -8.987   7.545  0.00  0.00    +0.000 A 
ENDBRANCH  10  11
ENDBRANCH   1  10
TORSDOF 2
ENDMDL
MODEL 6
REMARK VINA RESULT:    -4.531     18.015     19.022
REMARK INTER + INTRA:          -5.196
REMARK INTER:                  -5.059
REMARK INTRA:                  -0.137
REMARK UNBOUND:                -0.136
REMARK  Name = 1550473
REMARK  2 active torsions:
REMARK  status: ('A' for Active; 'I' for Inactive)
REMARK    1  A    between atoms: N_1  and  C_4
REMARK    2  A    between atoms: C_4  and  C_5
REMARK                            x       y       z     vdW  Elec       q    Type
REMARK                         _______ _______ _______ _____ _____    ______ ____
ROOT
ATOM      1  N   UNL     1      10.232   6.257  -4.261  0.00  0.00    -0.354 N 
ATOM      2  N   UNL     1      10.006   8.056  -5.702  0.00  0.00    -0.372 N 
ATOM      3  N   UNL     1       8.821   8.053  -3.737  0.00  0.00    -0.372 N 
ATOM      4  C   UNL     1       9.686   7.444  -4.555  0.00  0.00    +0.166 C 
ATOM      5  H   UNL     1      10.858   5.834  -4.937  0.00  0.00    +0.163 HD
ATOM      6  H   UNL     1       9.612   8.953  -5.950  0.00  0.00    +0.159 HD
ATOM      7  H   UNL     1      10.666   7.652  -6.355  0.00  0.00    +0.159 HD
ATOM      8  H   UNL     1       8.534   7.641  -2.859  0.00  0.00    +0.159 HD
ATOM      9  H   UNL     1       8.407   8.946  -3.973  0.00  0.00    +0.159 HD
ENDROOT
BRANCH   1  10
ATOM     10  C   UNL     1       9.992   5.533  -3.014  0.00  0.00    +0.151 C 
BRANCH  10  11
ATOM     11  C   UNL     1      11.157   5.749  -2.088  0.00  0.00    -0.028 A 
ATOM     12  C   UNL     1      12.154   4.771  -1.958  0.00  0.00    +0.005 A 
ATOM     13  C   UNL     1      11.273   6.932  -1.342  0.00  0.00    +0.005 A 
ATOM     14  C   UNL     1      13.252   4.984  -1.121  0.00  0.00    +0.000 A 
ATOM     15  C   UNL     1      12.370   7.140  -0.507  0.00  0.00    +0.000 A 
ATOM     16  C   UNL     1      13.361   6.167  -0.398  0.00  0.00    +0.000 A 
ENDBRANCH  10  11
ENDBRANCH   1  10
TORSDOF 2
ENDMDL
MODEL 7
REMARK VINA RESULT:    -4.462     15.934     16.836
REMARK INTER + INTRA:          -5.120
REMARK INTER:                  -4.996
REMARK INTRA:                  -0.124
REMARK UNBOUND:                -0.136
REMARK  Name = 1550473
REMARK  2 active torsions:
REMARK  status: ('A' for Active; 'I' for Inactive)
REMARK    1  A    between atoms: N_1  and  C_4
REMARK    2  A    between atoms: C_4  and  C_5
REMARK                            x       y       z     vdW  Elec       q    Type
REMARK                         _______ _______ _______ _____ _____    ______ ____
ROOT
ATOM      1  N   UNL     1       1.259  10.978   7.918  0.00  0.00    -0.354 N 
ATOM      2  N   UNL     1       0.369   9.745   9.665  0.00  0.00    -0.372 N 
ATOM      3  N   UNL     1       1.751   8.699   8.161  0.00  0.00    -0.372 N 
ATOM      4  C   UNL     1       1.133   9.813   8.569  0.00  0.00    +0.166 C 
ATOM      5  H   UNL     1       0.741  11.779   8.260  0.00  0.00    +0.163 HD
ATOM      6  H   UNL     1       0.258   8.881  10.179  0.00  0.00    +0.159 HD
ATOM      7  H   UNL     1      -0.111  10.558  10.032  0.00  0.00    +0.159 HD
ATOM      8  H   UNL     1       2.337   8.683   7.337  0.00  0.00    +0.159 HD
ATOM      9  H   UNL     1       1.643   7.822   8.655  0.00  0.00    +0.159 HD
ENDROOT
BRANCH   1  10
ATOM     10  C   UNL     1       2.109  11.171   6.745  0.00  0.00    +0.151 C 
BRANCH  10  11
ATOM     11  C   UNL     1       1.798  12.507   6.128  0.00  0.00    -0.028 A 
ATOM     12  C   UNL     1       2.424  12.904   4.937  0.00  0.00    +0.005 A 
ATOM     13  C   UNL     1       0.874  13.378   6.726  0.00  0.00    +0.005 A 
ATOM     14  C   UNL     1       2.114  14.132   4.348  0.00  0.00    +0.000 A 
ATOM     15  C   UNL     1       0.568  14.603   6.135  0.00  0.00    +0.000 A 
ATOM     16  C   UNL     1       1.185  14.979   4.944  0.00  0.00    +0.000 A 
ENDBRANCH  10  11
ENDBRANCH   1  10
TORSDOF 2
ENDMDL
MODEL 8
REMARK VINA RESULT:    -4.325     18.329     19.278
REMARK INTER + INTRA:          -4.967
REMARK INTER:                  -4.821
REMARK INTRA:                  -0.146
REMARK UNBOUND:                -0.136
REMARK  Name = 1550473
REMARK  2 active torsions:
REMARK  status: ('A' for Active; 'I' for Inactive)
REMARK    1  A    between atoms: N_1  and  C_4
REMARK    2  A    between atoms: C_4  and  C_5
REMARK                            x       y       z     vdW  Elec       q    Type
REMARK                         _______ _______ _______ _____ _____    ______ ____
ROOT
ATOM      1  N   UNL     1      12.434  -1.782   3.001  0.00  0.00    -0.354 N 
ATOM      2  N   UNL     1      11.262  -0.164   4.172  0.00  0.00    -0.372 N 
ATOM      3  N   UNL     1      10.096  -1.670   2.891  0.00  0.00    -0.372 N 
ATOM      4  C   UNL     1      11.270  -1.217   3.346  0.00  0.00    +0.166 C 
ATOM      5  H   UNL     1      13.291  -1.373   3.356  0.00  0.00    +0.163 HD
ATOM      6  H   UNL     1      10.398   0.281   4.452  0.00  0.00    +0.159 HD
ATOM      7  H   UNL     1      12.116   0.214   4.561  0.00  0.00    +0.159 HD
ATOM      8  H   UNL     1      10.034  -2.457   2.260  0.00  0.00    +0.159 HD
ATOM      9  H   UNL     1       9.222  -1.230   3.151  0.00  0.00    +0.159 HD
ENDROOT
BRANCH   1  10
ATOM     10  C   UNL     1      12.549  -2.966   2.151  0.00  0.00    +0.151 C 
BRANCH  10  11
ATOM     11  C   UNL     1      12.765  -4.175   3.019  0.00  0.00    -0.028 A 
ATOM     12  C   UNL     1      12.373  -5.447   2.577  0.00  0.00    +0.005 A 
ATOM     13  C   UNL     1      13.365  -4.056   4.281  0.00  0.00    +0.005 A 
ATOM     14  C   UNL     1      12.600  -6.575   3.370  0.00  0.00    +0.000 A 
ATOM     15  C   UNL     1      13.589  -5.184   5.070  0.00  0.00    +0.000 A 
ATOM     16  C   UNL     1      13.209  -6.444   4.613  0.00  0.00    +0.000 A 
ENDBRANCH  10  11
ENDBRANCH   1  10
TORSDOF 2
ENDMDL
MODEL 9
REMARK VINA RESULT:    -4.318     18.703     19.683
REMARK INTER + INTRA:          -4.958
REMARK INTER:                  -4.816
REMARK INTRA:                  -0.142
REMARK UNBOUND:                -0.136
REMARK  Name = 1550473
REMARK  2 active torsions:
REMARK  status: ('A' for Active; 'I' for Inactive)
REMARK    1  A    between atoms: N_1  and  C_4
REMARK    2  A    between atoms: C_4  and  C_5
REMARK                            x       y       z     vdW  Elec       q    Type
REMARK                         _______ _______ _______ _____ _____    ______ ____
ROOT
ATOM      1  N   UNL     1      10.750   6.851  -4.269  0.00  0.00    -0.354 N 
ATOM      2  N   UNL     1      10.715   9.166  -4.209  0.00  0.00    -0.372 N 
ATOM      3  N   UNL     1       8.877   8.009  -3.470  0.00  0.00    -0.372 N 
ATOM      4  C   UNL     1      10.112   7.993  -3.982  0.00  0.00    +0.166 C 
ATOM      5  H   UNL     1      11.673   6.907  -4.684  0.00  0.00    +0.163 HD
ATOM      6  H   UNL     1      10.260  10.044  -3.999  0.00  0.00    +0.159 HD
ATOM      7  H   UNL     1      11.656   9.218  -4.581  0.00  0.00    +0.159 HD
ATOM      8  H   UNL     1       8.364   7.158  -3.281  0.00  0.00    +0.159 HD
ATOM      9  H   UNL     1       8.399   8.878  -3.264  0.00  0.00    +0.159 HD
ENDROOT
BRANCH   1  10
ATOM     10  C   UNL     1      10.203   5.521  -4.010  0.00  0.00    +0.151 C 
BRANCH  10  11
ATOM     11  C   UNL     1      11.206   4.721  -3.226  0.00  0.00    -0.028 A 
ATOM     12  C   UNL     1      11.765   3.554  -3.766  0.00  0.00    +0.005 A 
ATOM     13  C   UNL     1      11.606   5.128  -1.944  0.00  0.00    +0.005 A 
ATOM     14  C   UNL     1      12.719   2.827  -3.051  0.00  0.00    +0.000 A 
ATOM     15  C   UNL     1      12.558   4.399  -1.232  0.00  0.00    +0.000 A 
ATOM     16  C   UNL     1      13.116   3.250  -1.787  0.00  0.00    +0.000 A 
ENDBRANCH  10  11
ENDBRANCH   1  10
TORSDOF 2
ENDMDL
