MODEL 1
REMARK VINA RESULT:    -5.559      0.000      0.000
REMARK INTER + INTRA:          -6.324
REMARK INTER:                  -6.209
REMARK INTRA:                  -0.115
REMARK UNBOUND:                -0.115
REMARK  Name = 1550473
REMARK  2 active torsions:
REMARK  status: ('A' for Active; 'I' for Inactive)
REMARK    1  A    between atoms: N_1  and  C_4
REMARK    2  A    between atoms: C_4  and  C_5
REMARK                            x       y       z     vdW  Elec       q    Type
REMARK                         _______ _______ _______ _____ _____    ______ ____
ROOT
ATOM      1  N   UNL     1      -5.443  -2.167  -7.636  0.00  0.00    -0.354 N 
ATOM      2  N   UNL     1      -7.451  -1.853  -6.524  0.00  0.00    -0.372 N 
ATOM      3  N   UNL     1      -7.220  -1.026  -8.652  0.00  0.00    -0.372 N 
ATOM      4  C   UNL     1      -6.692  -1.682  -7.614  0.00  0.00    +0.166 C 
ATOM      5  H   UNL     1      -5.091  -2.628  -6.805  0.00  0.00    +0.163 HD
ATOM      6  H   UNL     1      -8.398  -1.501  -6.480  0.00  0.00    +0.159 HD
ATOM      7  H   UNL     1      -7.112  -2.354  -5.712  0.00  0.00    +0.159 HD
ATOM      8  H   UNL     1      -6.698  -0.859  -9.502  0.00  0.00    +0.159 HD
ATOM      9  H   UNL     1      -8.163  -0.657  -8.622  0.00  0.00    +0.159 HD
ENDROOT
BRANCH   1  10
ATOM     10  C   UNL     1      -4.554  -2.082  -8.793  0.00  0.00    +0.151 C 
BRANCH  10  11
ATOM     11  C   UNL     1      -3.553  -3.202  -8.726  0.00  0.00    -0.028 A 
ATOM     12  C   UNL     1      -2.178  -2.932  -8.780  0.00  0.00    +0.005 A 
ATOM     13  C   UNL     1      -3.973  -4.536  -8.603  0.00  0.00    +0.005 A 
ATOM     14  C   UNL     1      -1.247  -3.970  -8.688  0.00  0.00    +0.000 A 
ATOM     15  C   UNL     1      -3.041  -5.569  -8.512  0.00  0.00    +0.000 A 
ATOM     16  C   UNL     1      -1.678  -5.285  -8.552  0.00  0.00    +0.000 A 
ENDBRANCH  10  11
ENDBRANCH   1  10
TORSDOF 2
ENDMDL
MODEL 2
REMARK VINA RESULT:    -5.555      3.570      5.177
REMARK INTER + INTRA:          -6.320
REMARK INTER:                  -6.221
REMARK INTRA:                  -0.098
REMARK UNBOUND:                -0.115
REMARK  Name = 1550473
REMARK  2 active torsions:
REMARK  status: ('A' for Active; 'I' for Inactive)
REMARK    1  A    between atoms: N_1  and  C_4
REMARK    2  A    between atoms: C_4  and  C_5
REMARK                            x       y       z     vdW  Elec       q    Type
REMARK                         _______ _______ _______ _____ _____    ______ ____
ROOT
ATOM      1  N   UNL     1      -1.297  -4.934  -8.727  0.00  0.00    -0.354 N 
ATOM      2  N   UNL     1      -2.874  -6.569  -8.275  0.00  0.00    -0.372 N 
ATOM      3  N   UNL     1      -3.554  -4.382  -8.424  0.00  0.00    -0.372 N 
ATOM      4  C   UNL     1      -2.566  -5.282  -8.478  0.00  0.00    +0.166 C 
ATOM      5  H   UNL     1      -0.589  -5.660  -8.725  0.00  0.00    +0.163 HD
ATOM      6  H   UNL     1      -3.824  -6.862  -8.088  0.00  0.00    +0.159 HD
ATOM      7  H   UNL     1      -2.172  -7.298  -8.319  0.00  0.00    +0.159 HD
ATOM      8  H   UNL     1      -3.387  -3.395  -8.562  0.00  0.00    +0.159 HD
ATOM      9  H   UNL     1      -4.509  -4.655  -8.226  0.00  0.00    +0.159 HD
ENDROOT
BRANCH   1  10
ATOM     10  C   UNL     1      -0.865  -3.568  -9.015  0.00  0.00    +0.151 C 
BRANCH  10  11
ATOM     11  C   UNL     1       0.628  -3.481  -8.860  0.00  0.00    -0.028 A 
ATOM     12  C   UNL     1       1.212  -3.461  -7.585  0.00  0.00    +0.005 A 
ATOM     13  C   UNL     1       1.466  -3.425  -9.985  0.00  0.00    +0.005 A 
ATOM     14  C   UNL     1       2.600  -3.412  -7.440  0.00  0.00    +0.000 A 
ATOM     15  C   UNL     1       2.852  -3.375  -9.836  0.00  0.00    +0.000 A 
ATOM     16  C   UNL     1       3.419  -3.370  -8.564  0.00  0.00    +0.000 A 
ENDBRANCH  10  11
ENDBRANCH   1  10
TORSDOF 2
ENDMDL
MODEL 3
REMARK VINA RESULT:    -5.425      3.715      5.128
REMARK INTER + INTRA:          -6.175
REMARK INTER:                  -6.049
REMARK INTRA:                  -0.126
REMARK UNBOUND:                -0.115
REMARK  Name = 1550473
REMARK  2 active torsions:
REMARK  status: ('A' for Active; 'I' for Inactive)
REMARK    1  A    between atoms: N_1  and  C_4
REMARK    2  A    between atoms: C_4  and  C_5
REMARK                            x       y       z     vdW  Elec       q    Type
REMARK                         _______ _______ _______ _____ _____    ______ ____
ROOT
ATOM      1  N   UNL     1      -0.159  -1.845  -8.272  0.00  0.00    -0.354 N 
ATOM      2  N   UNL     1       0.675   0.176  -7.508  0.00  0.00    -0.372 N 
ATOM      3  N   UNL     1       2.016  -1.684  -7.416  0.00  0.00    -0.372 N 
ATOM      4  C   UNL     1       0.841  -1.133  -7.737  0.00  0.00    +0.166 C 
ATOM      5  H   UNL     1      -1.036  -1.375  -8.465  0.00  0.00    +0.163 HD
ATOM      6  H   UNL     1       1.413   0.740  -7.108  0.00  0.00    +0.159 HD
ATOM      7  H   UNL     1      -0.186   0.653  -7.744  0.00  0.00    +0.159 HD
ATOM      8  H   UNL     1       2.203  -2.668  -7.558  0.00  0.00    +0.159 HD
ATOM      9  H   UNL     1       2.763  -1.138  -7.004  0.00  0.00    +0.159 HD
ENDROOT
BRANCH   1  10
ATOM     10  C   UNL     1      -0.063  -3.264  -8.610  0.00  0.00    +0.151 C 
BRANCH  10  11
ATOM     11  C   UNL     1      -1.439  -3.869  -8.589  0.00  0.00    -0.028 A 
ATOM     12  C   UNL     1      -2.577  -3.049  -8.596  0.00  0.00    +0.005 A 
ATOM     13  C   UNL     1      -1.613  -5.261  -8.568  0.00  0.00    +0.005 A 
ATOM     14  C   UNL     1      -3.856  -3.611  -8.607  0.00  0.00    +0.000 A 
ATOM     15  C   UNL     1      -2.891  -5.818  -8.578  0.00  0.00    +0.000 A 
ATOM     16  C   UNL     1      -4.013  -4.993  -8.600  0.00  0.00    +0.000 A 
ENDBRANCH  10  11
ENDBRANCH   1  10
TORSDOF 2
ENDMDL
MODEL 4
REMARK VINA RESULT:    -5.419      4.207      5.990
REMARK INTER + INTRA:          -6.167
REMARK INTER:                  -6.073
REMARK INTRA:                  -0.094
REMARK UNBOUND:                -0.115
REMARK  Name = 1550473
REMARK  2 active torsions:
REMARK  status: ('A' for Active; 'I' for Inactive)
REMARK    1  A    between atoms: N_1  and  C_4
REMARK    2  A    between atoms: C_4  and  C_5
REMARK                            x       y       z     vdW  Elec       q    Type
REMARK                         _______ _______ _______ _____ _____    ______ ____
ROOT
ATOM      1  N   UNL     1       0.607  -3.025  -9.154  0.00  0.00    -0.354 N 
ATOM      2  N   UNL     1       2.349  -2.322 -10.508  0.00  0.00    -0.372 N 
ATOM      3  N   UNL     1       2.834  -3.209  -8.448  0.00  0.00    -0.372 N 
ATOM      4  C   UNL     1       1.920  -2.857  -9.359  0.00  0.00    +0.166 C 
ATOM      5  H   UNL     1      -0.036  -2.709  -9.871  0.00  0.00    +0.163 HD
ATOM      6  H   UNL     1       3.334  -2.187 -10.693  0.00  0.00    +0.159 HD
ATOM      7  H   UNL     1       1.707  -2.050 -11.242  0.00  0.00    +0.159 HD
ATOM      8  H   UNL     1       2.575  -3.613  -7.558  0.00  0.00    +0.159 HD
ATOM      9  H   UNL     1       3.824  -3.071  -8.610  0.00  0.00    +0.159 HD
ENDROOT
BRANCH   1  10
ATOM     10  C   UNL     1       0.039  -3.647  -7.960  0.00  0.00    +0.151 C 
BRANCH  10  11
ATOM     11  C   UNL     1      -1.385  -4.041  -8.241  0.00  0.00    -0.028 A 
ATOM     12  C   UNL     1      -1.739  -5.393  -8.364  0.00  0.00    +0.005 A 
ATOM     13  C   UNL     1      -2.386  -3.068  -8.381  0.00  0.00    +0.005 A 
ATOM     14  C   UNL     1      -3.066  -5.761  -8.595  0.00  0.00    +0.000 A 
ATOM     15  C   UNL     1      -3.711  -3.440  -8.614  0.00  0.00    +0.000 A 
ATOM     16  C   UNL     1      -4.050  -4.786  -8.718  0.00  0.00    +0.000 A 
ENDBRANCH  10  11
ENDBRANCH   1  10
TORSDOF 2
ENDMDL
MODEL 5
REMARK VINA RESULT:    -5.342      4.037      5.624
REMARK INTER + INTRA:          -6.081
REMARK INTER:                  -5.946
REMARK INTRA:                  -0.136
REMARK UNBOUND:                -0.115
REMARK  Name = 1550473
REMARK  2 active torsions:
REMARK  status: ('A' for Active; 'I' for Inactive)
REMARK    1  A    between atoms: N_1  and  C_4
REMARK    2  A    between atoms: C_4  and  C_5
REMARK                            x       y       z     vdW  Elec       q    Type
REMARK                         _______ _______ _______ _____ _____    ______ ____
ROOT
ATOM      1  N   UNL     1       0.233  -3.275  -6.676  0.00  0.00    -0.354 N 
ATOM      2  N   UNL     1       1.973  -3.838  -5.256  0.00  0.00    -0.372 N 
ATOM      3  N   UNL     1       2.433  -3.431  -7.467  0.00  0.00    -0.372 N 
ATOM      4  C   UNL     1       1.537  -3.511  -6.478  0.00  0.00    +0.166 C 
ATOM      5  H   UNL     1      -0.400  -3.381  -5.892  0.00  0.00    +0.163 HD
ATOM      6  H   UNL     1       2.952  -4.018  -5.076  0.00  0.00    +0.159 HD
ATOM      7  H   UNL     1       1.345  -3.899  -4.464  0.00  0.00    +0.159 HD
ATOM      8  H   UNL     1       2.167  -3.194  -8.413  0.00  0.00    +0.159 HD
ATOM      9  H   UNL     1       3.415  -3.619  -7.309  0.00  0.00    +0.159 HD
ENDROOT
BRANCH   1  10
ATOM     10  C   UNL     1      -0.338  -2.859  -7.956  0.00  0.00    +0.151 C 
BRANCH  10  11
ATOM     11  C   UNL     1      -1.572  -3.673  -8.232  0.00  0.00    -0.028 A 
ATOM     12  C   UNL     1      -1.495  -5.070  -8.335  0.00  0.00    +0.005 A 
ATOM     13  C   UNL     1      -2.822  -3.054  -8.384  0.00  0.00    +0.005 A 
ATOM     14  C   UNL     1      -2.646  -5.829  -8.560  0.00  0.00    +0.000 A 
ATOM     15  C   UNL     1      -3.969  -3.816  -8.611  0.00  0.00    +0.000 A 
ATOM     16  C   UNL     1      -3.881  -5.203  -8.696  0.00  0.00    +0.000 A 
ENDBRANCH  10  11
ENDBRANCH   1  10
TORSDOF 2
ENDMDL
MODEL 6
REMARK VINA RESULT:    -5.173      2.418      3.053
REMARK INTER + INTRA:          -5.893
REMARK INTER:                  -5.780
REMARK INTRA:                  -0.114
REMARK UNBOUND:                -0.115
REMARK  Name = 1550473
REMARK  2 active torsions:
REMARK  status: ('A' for Active; 'I' for Inactive)
REMARK    1  A    between atoms: N_1  and  C_4
REMARK    2  A    between atoms: C_4  and  C_5
REMARK                            x       y       z     vdW  Elec       q    Type
REMARK                         _______ _______ _______ _____ _____    ______ ____
ROOT
ATOM      1  N   UNL     1      -5.073  -4.667  -6.193  0.00  0.00    -0.354 N 
ATOM      2  N   UNL     1      -6.208  -6.485  -5.312  0.00  0.00    -0.372 N 
ATOM      3  N   UNL     1      -7.006  -5.499  -7.224  0.00  0.00    -0.372 N 
ATOM      4  C   UNL     1      -6.090  -5.538  -6.251  0.00  0.00    +0.166 C 
ATOM      5  H   UNL     1      -4.429  -4.731  -5.413  0.00  0.00    +0.163 HD
ATOM      6  H   UNL     1      -6.962  -7.157  -5.332  0.00  0.00    +0.159 HD
ATOM      7  H   UNL     1      -5.536  -6.574  -4.559  0.00  0.00    +0.159 HD
ATOM      8  H   UNL     1      -6.977  -4.806  -7.960  0.00  0.00    +0.159 HD
ATOM      9  H   UNL     1      -7.775  -6.157  -7.255  0.00  0.00    +0.159 HD
ENDROOT
BRANCH   1  10
ATOM     10  C   UNL     1      -4.824  -3.633  -7.195  0.00  0.00    +0.151 C 
BRANCH  10  11
ATOM     11  C   UNL     1      -3.482  -3.875  -7.829  0.00  0.00    -0.028 A 
ATOM     12  C   UNL     1      -2.999  -5.181  -7.994  0.00  0.00    +0.005 A 
ATOM     13  C   UNL     1      -2.692  -2.803  -8.271  0.00  0.00    +0.005 A 
ATOM     14  C   UNL     1      -1.766  -5.408  -8.610  0.00  0.00    +0.000 A 
ATOM     15  C   UNL     1      -1.461  -3.034  -8.885  0.00  0.00    +0.000 A 
ATOM     16  C   UNL     1      -0.999  -4.337  -9.056  0.00  0.00    +0.000 A 
ENDBRANCH  10  11
ENDBRANCH   1  10
TORSDOF 2
ENDMDL
MODEL 7
REMARK VINA RESULT:    -5.171      7.599      8.152
REMARK INTER + INTRA:          -5.891
REMARK INTER:                  -5.790
REMARK INTRA:                  -0.101
REMARK UNBOUND:                -0.115
REMARK  Name = 1550473
REMARK  2 active torsions:
REMARK  status: ('A' for Active; 'I' for Inactive)
REMARK    1  A    between atoms: N_1  and  C_4
REMARK    2  A    between atoms: C_4  and  C_5
REMARK                            x       y       z     vdW  Elec       q    Type
REMARK                         _______ _______ _______ _____ _____    ______ ____
ROOT
ATOM      1  N   UNL     1       2.385   1.154  -8.226  0.00  0.00    -0.354 N 
ATOM      2  N   UNL     1       1.262   2.885  -7.174  0.00  0.00    -0.372 N 
ATOM      3  N   UNL     1       3.363   3.273  -8.010  0.00  0.00    -0.372 N 
ATOM      4  C   UNL     1       2.347   2.427  -7.811  0.00  0.00    +0.166 C 
ATOM      5  H   UNL     1       1.594   0.556  -8.017  0.00  0.00    +0.163 HD
ATOM      6  H   UNL     1       1.203   3.842  -6.852  0.00  0.00    +0.159 HD
ATOM      7  H   UNL     1       0.454   2.297  -7.007  0.00  0.00    +0.159 HD
ATOM      8  H   UNL     1       4.213   2.988  -8.479  0.00  0.00    +0.159 HD
ATOM      9  H   UNL     1       3.328   4.231  -7.685  0.00  0.00    +0.159 HD
ENDROOT
BRANCH   1  10
ATOM     10  C   UNL     1       3.497   0.572  -8.976  0.00  0.00    +0.151 C 
BRANCH  10  11
ATOM     11  C   UNL     1       3.451  -0.925  -8.839  0.00  0.00    -0.028 A 
ATOM     12  C   UNL     1       3.046  -1.727  -9.916  0.00  0.00    +0.005 A 
ATOM     13  C   UNL     1       3.818  -1.548  -7.636  0.00  0.00    +0.005 A 
ATOM     14  C   UNL     1       3.033  -3.119  -9.798  0.00  0.00    +0.000 A 
ATOM     15  C   UNL     1       3.802  -2.938  -7.522  0.00  0.00    +0.000 A 
ATOM     16  C   UNL     1       3.412  -3.723  -8.604  0.00  0.00    +0.000 A 
ENDBRANCH  10  11
ENDBRANCH   1  10
TORSDOF 2
ENDMDL
MODEL 8
REMARK VINA RESULT:    -5.062      4.589      5.819
REMARK INTER + INTRA:          -5.769
REMARK INTER:                  -5.649
REMARK INTRA:                  -0.120
REMARK UNBOUND:                -0.115
REMARK  Name = 1550473
REMARK  2 active torsions:
REMARK  status: ('A' for Active; 'I' for Inactive)
REMARK    1  A    between atoms: N_1  and  C_4
REMARK    2  A    between atoms: C_4  and  C_5
REMARK                            x       y       z     vdW  Elec       q    Type
REMARK                         _______ _______ _______ _____ _____    ______ ____
ROOT
ATOM      1  N   UNL     1      -3.996  -7.917  -5.258  0.00  0.00    -0.354 N 
ATOM      2  N   UNL     1      -5.335  -9.652  -4.509  0.00  0.00    -0.372 N 
ATOM      3  N   UNL     1      -3.348 -10.151  -5.542  0.00  0.00    -0.372 N 
ATOM      4  C   UNL     1      -4.216  -9.230  -5.109  0.00  0.00    +0.166 C 
ATOM      5  H   UNL     1      -4.707  -7.271  -4.935  0.00  0.00    +0.163 HD
ATOM      6  H   UNL     1      -5.527 -10.637  -4.379  0.00  0.00    +0.159 HD
ATOM      7  H   UNL     1      -6.023  -9.003  -4.146  0.00  0.00    +0.159 HD
ATOM      8  H   UNL     1      -2.488  -9.899  -6.009  0.00  0.00    +0.159 HD
ATOM      9  H   UNL     1      -3.528 -11.142  -5.432  0.00  0.00    +0.159 HD
ENDROOT
BRANCH   1  10
ATOM     10  C   UNL     1      -2.785  -7.353  -5.849  0.00  0.00    +0.151 C 
BRANCH  10  11
ATOM     11  C   UNL     1      -3.149  -6.124  -6.637  0.00  0.00    -0.028 A 
ATOM     12  C   UNL     1      -2.477  -5.819  -7.830  0.00  0.00    +0.005 A 
ATOM     13  C   UNL     1      -4.168  -5.265  -6.199  0.00  0.00    +0.005 A 
ATOM     14  C   UNL     1      -2.836  -4.694  -8.577  0.00  0.00    +0.000 A 
ATOM     15  C   UNL     1      -4.522  -4.143  -6.947  0.00  0.00    +0.000 A 
ATOM     16  C   UNL     1      -3.858  -3.859  -8.138  0.00  0.00    +0.000 A 
ENDBRANCH  10  11
ENDBRANCH   1  10
TORSDOF 2
ENDMDL
MODEL 9
REMARK VINA RESULT:    -4.911      5.335      6.845
REMARK INTER + INTRA:          -5.601
REMARK INTER:                  -5.443
REMARK INTRA:                  -0.157
REMARK UNBOUND:                -0.115
REMARK  Name = 1550473
REMARK  2 active torsions:
REMARK  status: ('A' for Active; 'I' for Inactive)
REMARK    1  A    between atoms: N_1  and  C_4
REMARK    2  A    between atoms: C_4  and  C_5
REMARK                            x       y       z     vdW  Elec       q    Type
REMARK                         _______ _______ _______ _____ _____    ______ ____
ROOT
ATOM      1  N   UNL     1       1.512  -1.156  -6.247  0.00  0.00    -0.354 N 
ATOM      2  N   UNL     1       2.333   1.007  -6.352  0.00  0.00    -0.372 N 
ATOM      3  N   UNL     1       3.803  -0.746  -6.526  0.00  0.00    -0.372 N 
ATOM      4  C   UNL     1       2.546  -0.314  -6.374  0.00  0.00    +0.166 C 
ATOM      5  H   UNL     1       0.588  -0.765  -6.104  0.00  0.00    +0.163 HD
ATOM      6  H   UNL     1       3.093   1.667  -6.450  0.00  0.00    +0.159 HD
ATOM      7  H   UNL     1       1.403   1.395  -6.256  0.00  0.00    +0.159 HD
ATOM      8  H   UNL     1       4.031  -1.731  -6.545  0.00  0.00    +0.159 HD
ATOM      9  H   UNL     1       4.578  -0.102  -6.614  0.00  0.00    +0.159 HD
ENDROOT
BRANCH   1  10
ATOM     10  C   UNL     1       1.630  -2.611  -6.311  0.00  0.00    +0.151 C 
BRANCH  10  11
ATOM     11  C   UNL     1       1.117  -3.087  -7.642  0.00  0.00    -0.028 A 
ATOM     12  C   UNL     1      -0.165  -3.645  -7.753  0.00  0.00    +0.005 A 
ATOM     13  C   UNL     1       1.906  -2.978  -8.798  0.00  0.00    +0.005 A 
ATOM     14  C   UNL     1      -0.654  -4.060  -8.994  0.00  0.00    +0.000 A 
ATOM     15  C   UNL     1       1.415  -3.394 -10.035  0.00  0.00    +0.000 A 
ATOM     16  C   UNL     1       0.134  -3.932 -10.133  0.00  0.00    +0.000 A 
ENDBRANCH  10  11
ENDBRANCH   1  10
TORSDOF 2
ENDMDL
