MODEL 1
REMARK VINA RESULT:    -5.411      0.000      0.000
REMARK INTER + INTRA:          -6.181
REMARK INTER:                  -6.044
REMARK INTRA:                  -0.137
REMARK UNBOUND:                -0.137
REMARK  Name = 1550473
REMARK  2 active torsions:
REMARK  status: ('A' for Active; 'I' for Inactive)
REMARK    1  A    between atoms: N_1  and  C_4
REMARK    2  A    between atoms: C_4  and  C_5
REMARK                            x       y       z     vdW  Elec       q    Type
REMARK                         _______ _______ _______ _____ _____    ______ ____
ROOT
ATOM      1  N   UNL     1      11.755   6.876  17.429  0.00  0.00    -0.354 N 
ATOM      2  N   UNL     1      10.482   7.501  19.260  0.00  0.00    -0.372 N 
ATOM      3  N   UNL     1      10.774   9.001  17.549  0.00  0.00    -0.372 N 
ATOM      4  C   UNL     1      11.012   7.791  18.066  0.00  0.00    +0.166 C 
ATOM      5  H   UNL     1      11.923   5.988  17.888  0.00  0.00    +0.163 HD
ATOM      6  H   UNL     1       9.914   8.170  19.763  0.00  0.00    +0.159 HD
ATOM      7  H   UNL     1      10.613   6.596  19.696  0.00  0.00    +0.159 HD
ATOM      8  H   UNL     1      11.150   9.284  16.654  0.00  0.00    +0.159 HD
ATOM      9  H   UNL     1      10.218   9.688  18.042  0.00  0.00    +0.159 HD
ENDROOT
BRANCH   1  10
ATOM     10  C   UNL     1      12.332   7.072  16.101  0.00  0.00    +0.151 C 
BRANCH  10  11
ATOM     11  C   UNL     1      13.808   6.788  16.160  0.00  0.00    -0.028 A 
ATOM     12  C   UNL     1      14.529   6.521  14.987  0.00  0.00    +0.005 A 
ATOM     13  C   UNL     1      14.492   6.791  17.385  0.00  0.00    +0.005 A 
ATOM     14  C   UNL     1      15.906   6.287  15.039  0.00  0.00    +0.000 A 
ATOM     15  C   UNL     1      15.866   6.556  17.433  0.00  0.00    +0.000 A 
ATOM     16  C   UNL     1      16.573   6.307  16.259  0.00  0.00    +0.000 A 
ENDBRANCH  10  11
ENDBRANCH   1  10
TORSDOF 2
ENDMDL
MODEL 2
REMARK VINA RESULT:    -5.400     11.604     12.852
REMARK INTER + INTRA:          -6.168
REMARK INTER:                  -6.034
REMARK INTRA:                  -0.135
REMARK UNBOUND:                -0.137
REMARK  Name = 1550473
REMARK  2 active torsions:
REMARK  status: ('A' for Active; 'I' for Inactive)
REMARK    1  A    between atoms: N_1  and  C_4
REMARK    2  A    between atoms: C_4  and  C_5
REMARK                            x       y       z     vdW  Elec       q    Type
REMARK                         _______ _______ _______ _____ _____    ______ ____
ROOT
ATOM      1  N   UNL     1       1.368  10.132  16.408  0.00  0.00    -0.354 N 
ATOM      2  N   UNL     1       0.171   9.011  18.043  0.00  0.00    -0.372 N 
ATOM      3  N   UNL     1       2.447   8.735  17.950  0.00  0.00    -0.372 N 
ATOM      4  C   UNL     1       1.339   9.299  17.457  0.00  0.00    +0.166 C 
ATOM      5  H   UNL     1       0.490  10.503  16.064  0.00  0.00    +0.163 HD
ATOM      6  H   UNL     1       0.118   8.388  18.838  0.00  0.00    +0.159 HD
ATOM      7  H   UNL     1      -0.700   9.419  17.725  0.00  0.00    +0.159 HD
ATOM      8  H   UNL     1       3.359   8.907  17.549  0.00  0.00    +0.159 HD
ATOM      9  H   UNL     1       2.413   8.100  18.738  0.00  0.00    +0.159 HD
ENDROOT
BRANCH   1  10
ATOM     10  C   UNL     1       2.594  10.553  15.732  0.00  0.00    +0.151 C 
BRANCH  10  11
ATOM     11  C   UNL     1       2.448  11.985  15.297  0.00  0.00    -0.028 A 
ATOM     12  C   UNL     1       1.335  12.740  15.694  0.00  0.00    +0.005 A 
ATOM     13  C   UNL     1       3.422  12.594  14.491  0.00  0.00    +0.005 A 
ATOM     14  C   UNL     1       1.213  14.079  15.315  0.00  0.00    +0.000 A 
ATOM     15  C   UNL     1       3.297  13.931  14.114  0.00  0.00    +0.000 A 
ATOM     16  C   UNL     1       2.194  14.674  14.528  0.00  0.00    +0.000 A 
ENDBRANCH  10  11
ENDBRANCH   1  10
TORSDOF 2
ENDMDL
MODEL 3
REMARK VINA RESULT:    -5.354     11.017     13.935
REMARK INTER + INTRA:          -6.117
REMARK INTER:                  -6.003
REMARK INTRA:                  -0.114
REMARK UNBOUND:                -0.137
REMARK  Name = 1550473
REMARK  2 active torsions:
REMARK  status: ('A' for Active; 'I' for Inactive)
REMARK    1  A    between atoms: N_1  and  C_4
REMARK    2  A    between atoms: C_4  and  C_5
REMARK                            x       y       z     vdW  Elec       q    Type
REMARK                         _______ _______ _______ _____ _____    ______ ____
ROOT
ATOM      1  N   UNL     1       2.423  10.756  15.648  0.00  0.00    -0.354 N 
ATOM      2  N   UNL     1       4.429   9.649  15.307  0.00  0.00    -0.372 N 
ATOM      3  N   UNL     1       3.155   9.099  17.135  0.00  0.00    -0.372 N 
ATOM      4  C   UNL     1       3.322   9.841  16.035  0.00  0.00    +0.166 C 
ATOM      5  H   UNL     1       2.622  11.307  14.821  0.00  0.00    +0.163 HD
ATOM      6  H   UNL     1       5.123   8.964  15.572  0.00  0.00    +0.159 HD
ATOM      7  H   UNL     1       4.603  10.169  14.456  0.00  0.00    +0.159 HD
ATOM      8  H   UNL     1       2.344   9.200  17.731  0.00  0.00    +0.159 HD
ATOM      9  H   UNL     1       3.844   8.416  17.423  0.00  0.00    +0.159 HD
ENDROOT
BRANCH   1  10
ATOM     10  C   UNL     1       1.159  11.004  16.340  0.00  0.00    +0.151 C 
BRANCH  10  11
ATOM     11  C   UNL     1       0.570  12.294  15.838  0.00  0.00    -0.028 A 
ATOM     12  C   UNL     1      -0.805  12.396  15.581  0.00  0.00    +0.005 A 
ATOM     13  C   UNL     1       1.380  13.419  15.622  0.00  0.00    +0.005 A 
ATOM     14  C   UNL     1      -1.358  13.602  15.144  0.00  0.00    +0.000 A 
ATOM     15  C   UNL     1       0.825  14.621  15.185  0.00  0.00    +0.000 A 
ATOM     16  C   UNL     1      -0.544  14.713  14.948  0.00  0.00    +0.000 A 
ENDBRANCH  10  11
ENDBRANCH   1  10
TORSDOF 2
ENDMDL
MODEL 4
REMARK VINA RESULT:    -5.077     11.666     12.827
REMARK INTER + INTRA:          -5.808
REMARK INTER:                  -5.687
REMARK INTRA:                  -0.121
REMARK UNBOUND:                -0.137
REMARK  Name = 1550473
REMARK  2 active torsions:
REMARK  status: ('A' for Active; 'I' for Inactive)
REMARK    1  A    between atoms: N_1  and  C_4
REMARK    2  A    between atoms: C_4  and  C_5
REMARK                            x       y       z     vdW  Elec       q    Type
REMARK                         _______ _______ _______ _____ _____    ______ ____
ROOT
ATOM      1  N   UNL     1       0.925   9.388  18.260  0.00  0.00    -0.354 N 
ATOM      2  N   UNL     1      -0.218   8.526  20.080  0.00  0.00    -0.372 N 
ATOM      3  N   UNL     1       1.436   7.265  19.111  0.00  0.00    -0.372 N 
ATOM      4  C   UNL     1       0.724   8.396  19.138  0.00  0.00    +0.166 C 
ATOM      5  H   UNL     1       0.331  10.207  18.314  0.00  0.00    +0.163 HD
ATOM      6  H   UNL     1      -0.391   7.796  20.758  0.00  0.00    +0.159 HD
ATOM      7  H   UNL     1      -0.779   9.365  20.161  0.00  0.00    +0.159 HD
ATOM      8  H   UNL     1       2.158   7.103  18.422  0.00  0.00    +0.159 HD
ATOM      9  H   UNL     1       1.271   6.519  19.774  0.00  0.00    +0.159 HD
ENDROOT
BRANCH   1  10
ATOM     10  C   UNL     1       1.961   9.369  17.229  0.00  0.00    +0.151 C 
BRANCH  10  11
ATOM     11  C   UNL     1       1.927  10.669  16.474  0.00  0.00    -0.028 A 
ATOM     12  C   UNL     1       2.985  11.029  15.626  0.00  0.00    +0.005 A 
ATOM     13  C   UNL     1       0.837  11.544  16.598  0.00  0.00    +0.005 A 
ATOM     14  C   UNL     1       2.940  12.222  14.902  0.00  0.00    +0.000 A 
ATOM     15  C   UNL     1       0.797  12.736  15.874  0.00  0.00    +0.000 A 
ATOM     16  C   UNL     1       1.847  13.073  15.025  0.00  0.00    +0.000 A 
ENDBRANCH  10  11
ENDBRANCH   1  10
TORSDOF 2
ENDMDL
MODEL 5
REMARK VINA RESULT:    -5.036     13.680     14.916
REMARK INTER + INTRA:          -5.762
REMARK INTER:                  -5.633
REMARK INTRA:                  -0.130
REMARK UNBOUND:                -0.137
REMARK  Name = 1550473
REMARK  2 active torsions:
REMARK  status: ('A' for Active; 'I' for Inactive)
REMARK    1  A    between atoms: N_1  and  C_4
REMARK    2  A    between atoms: C_4  and  C_5
REMARK                            x       y       z     vdW  Elec       q    Type
REMARK                         _______ _______ _______ _____ _____    ______ ____
ROOT
ATOM      1  N   UNL     1      -1.020   9.782  16.507  0.00  0.00    -0.354 N 
ATOM      2  N   UNL     1      -2.389   8.502  17.867  0.00  0.00    -0.372 N 
ATOM      3  N   UNL     1      -0.115   8.373  18.147  0.00  0.00    -0.372 N 
ATOM      4  C   UNL     1      -1.163   8.893  17.499  0.00  0.00    +0.166 C 
ATOM      5  H   UNL     1      -1.853  10.116  16.036  0.00  0.00    +0.163 HD
ATOM      6  H   UNL     1      -2.529   7.835  18.614  0.00  0.00    +0.159 HD
ATOM      7  H   UNL     1      -3.222   8.871  17.425  0.00  0.00    +0.159 HD
ATOM      8  H   UNL     1       0.836   8.623  17.913  0.00  0.00    +0.159 HD
ATOM      9  H   UNL     1      -0.234   7.695  18.889  0.00  0.00    +0.159 HD
ENDROOT
BRANCH   1  10
ATOM     10  C   UNL     1       0.268  10.314  16.066  0.00  0.00    +0.151 C 
BRANCH  10  11
ATOM     11  C   UNL     1       0.121  11.783  15.779  0.00  0.00    -0.028 A 
ATOM     12  C   UNL     1       1.241  12.626  15.788  0.00  0.00    +0.005 A 
ATOM     13  C   UNL     1      -1.137  12.337  15.493  0.00  0.00    +0.005 A 
ATOM     14  C   UNL     1       1.109  13.985  15.492  0.00  0.00    +0.000 A 
ATOM     15  C   UNL     1      -1.264  13.694  15.199  0.00  0.00    +0.000 A 
ATOM     16  C   UNL     1      -0.141  14.518  15.196  0.00  0.00    +0.000 A 
ENDBRANCH  10  11
ENDBRANCH   1  10
TORSDOF 2
ENDMDL
MODEL 6
REMARK VINA RESULT:    -5.034     22.449     23.695
REMARK INTER + INTRA:          -5.760
REMARK INTER:                  -5.637
REMARK INTRA:                  -0.122
REMARK UNBOUND:                -0.137
REMARK  Name = 1550473
REMARK  2 active torsions:
REMARK  status: ('A' for Active; 'I' for Inactive)
REMARK    1  A    between atoms: N_1  and  C_4
REMARK    2  A    between atoms: C_4  and  C_5
REMARK                            x       y       z     vdW  Elec       q    Type
REMARK                         _______ _______ _______ _____ _____    ______ ____
ROOT
ATOM      1  N   UNL     1      10.834  11.643  -4.298  0.00  0.00    -0.354 N 
ATOM      2  N   UNL     1      12.742  12.043  -3.048  0.00  0.00    -0.372 N 
ATOM      3  N   UNL     1      11.927   9.902  -3.173  0.00  0.00    -0.372 N 
ATOM      4  C   UNL     1      11.821  11.190  -3.514  0.00  0.00    +0.166 C 
ATOM      5  H   UNL     1      10.792  12.636  -4.495  0.00  0.00    +0.163 HD
ATOM      6  H   UNL     1      13.501  11.730  -2.457  0.00  0.00    +0.159 HD
ATOM      7  H   UNL     1      12.725  13.027  -3.284  0.00  0.00    +0.159 HD
ATOM      8  H   UNL     1      11.260   9.209  -3.487  0.00  0.00    +0.159 HD
ATOM      9  H   UNL     1      12.672   9.571  -2.573  0.00  0.00    +0.159 HD
ENDROOT
BRANCH   1  10
ATOM     10  C   UNL     1       9.812  10.789  -4.901  0.00  0.00    +0.151 C 
BRANCH  10  11
ATOM     11  C   UNL     1       9.332  11.423  -6.177  0.00  0.00    -0.028 A 
ATOM     12  C   UNL     1       7.964  11.463  -6.482  0.00  0.00    +0.005 A 
ATOM     13  C   UNL     1      10.241  11.991  -7.083  0.00  0.00    +0.005 A 
ATOM     14  C   UNL     1       7.516  12.079  -7.653  0.00  0.00    +0.000 A 
ATOM     15  C   UNL     1       9.789  12.605  -8.252  0.00  0.00    +0.000 A 
ATOM     16  C   UNL     1       8.427  12.650  -8.535  0.00  0.00    +0.000 A 
ENDBRANCH  10  11
ENDBRANCH   1  10
TORSDOF 2
ENDMDL
MODEL 7
REMARK VINA RESULT:    -4.939      2.432      3.193
REMARK INTER + INTRA:          -5.653
REMARK INTER:                  -5.472
REMARK INTRA:                  -0.181
REMARK UNBOUND:                -0.137
REMARK  Name = 1550473
REMARK  2 active torsions:
REMARK  status: ('A' for Active; 'I' for Inactive)
REMARK    1  A    between atoms: N_1  and  C_4
REMARK    2  A    between atoms: C_4  and  C_5
REMARK                            x       y       z     vdW  Elec       q    Type
REMARK                         _______ _______ _______ _____ _____    ______ ____
ROOT
ATOM      1  N   UNL     1      12.459   5.202  15.864  0.00  0.00    -0.354 N 
ATOM      2  N   UNL     1      11.664   3.033  15.697  0.00  0.00    -0.372 N 
ATOM      3  N   UNL     1      12.665   3.991  13.868  0.00  0.00    -0.372 N 
ATOM      4  C   UNL     1      12.269   4.090  15.142  0.00  0.00    +0.166 C 
ATOM      5  H   UNL     1      12.108   5.224  16.815  0.00  0.00    +0.163 HD
ATOM      6  H   UNL     1      11.510   2.179  15.178  0.00  0.00    +0.159 HD
ATOM      7  H   UNL     1      11.356   3.042  16.662  0.00  0.00    +0.159 HD
ATOM      8  H   UNL     1      13.122   4.755  13.389  0.00  0.00    +0.159 HD
ATOM      9  H   UNL     1      12.509   3.149  13.328  0.00  0.00    +0.159 HD
ENDROOT
BRANCH   1  10
ATOM     10  C   UNL     1      13.155   6.389  15.370  0.00  0.00    +0.151 C 
BRANCH  10  11
ATOM     11  C   UNL     1      14.592   6.334  15.809  0.00  0.00    -0.028 A 
ATOM     12  C   UNL     1      15.619   6.180  14.866  0.00  0.00    +0.005 A 
ATOM     13  C   UNL     1      14.934   6.441  17.165  0.00  0.00    +0.005 A 
ATOM     14  C   UNL     1      16.956   6.159  15.270  0.00  0.00    +0.000 A 
ATOM     15  C   UNL     1      16.271   6.419  17.565  0.00  0.00    +0.000 A 
ATOM     16  C   UNL     1      17.281   6.280  16.617  0.00  0.00    +0.000 A 
ENDBRANCH  10  11
ENDBRANCH   1  10
TORSDOF 2
ENDMDL
MODEL 8
REMARK VINA RESULT:    -4.863     15.274     16.247
REMARK INTER + INTRA:          -5.569
REMARK INTER:                  -5.470
REMARK INTRA:                  -0.099
REMARK UNBOUND:                -0.137
REMARK  Name = 1550473
REMARK  2 active torsions:
REMARK  status: ('A' for Active; 'I' for Inactive)
REMARK    1  A    between atoms: N_1  and  C_4
REMARK    2  A    between atoms: C_4  and  C_5
REMARK                            x       y       z     vdW  Elec       q    Type
REMARK                         _______ _______ _______ _____ _____    ______ ____
ROOT
ATOM      1  N   UNL     1       6.256  -5.912   7.988  0.00  0.00    -0.354 N 
ATOM      2  N   UNL     1       6.572  -8.205   7.908  0.00  0.00    -0.372 N 
ATOM      3  N   UNL     1       5.989  -7.098   5.985  0.00  0.00    -0.372 N 
ATOM      4  C   UNL     1       6.270  -7.056   7.292  0.00  0.00    +0.166 C 
ATOM      5  H   UNL     1       6.448  -5.952   8.983  0.00  0.00    +0.163 HD
ATOM      6  H   UNL     1       6.593  -9.084   7.408  0.00  0.00    +0.159 HD
ATOM      7  H   UNL     1       6.808  -8.236   8.892  0.00  0.00    +0.159 HD
ATOM      8  H   UNL     1       5.748  -6.267   5.462  0.00  0.00    +0.159 HD
ATOM      9  H   UNL     1       5.994  -7.969   5.469  0.00  0.00    +0.159 HD
ENDROOT
BRANCH   1  10
ATOM     10  C   UNL     1       5.993  -4.600   7.401  0.00  0.00    +0.151 C 
BRANCH  10  11
ATOM     11  C   UNL     1       6.570  -3.537   8.294  0.00  0.00    -0.028 A 
ATOM     12  C   UNL     1       7.940  -3.242   8.256  0.00  0.00    +0.005 A 
ATOM     13  C   UNL     1       5.750  -2.816   9.176  0.00  0.00    +0.005 A 
ATOM     14  C   UNL     1       8.472  -2.234   9.064  0.00  0.00    +0.000 A 
ATOM     15  C   UNL     1       6.285  -1.811   9.982  0.00  0.00    +0.000 A 
ATOM     16  C   UNL     1       7.645  -1.518   9.923  0.00  0.00    +0.000 A 
ENDBRANCH  10  11
ENDBRANCH   1  10
TORSDOF 2
ENDMDL
MODEL 9
REMARK VINA RESULT:    -4.837      3.516      4.437
REMARK INTER + INTRA:          -5.540
REMARK INTER:                  -5.413
REMARK INTRA:                  -0.127
REMARK UNBOUND:                -0.137
REMARK  Name = 1550473
REMARK  2 active torsions:
REMARK  status: ('A' for Active; 'I' for Inactive)
REMARK    1  A    between atoms: N_1  and  C_4
REMARK    2  A    between atoms: C_4  and  C_5
REMARK                            x       y       z     vdW  Elec       q    Type
REMARK                         _______ _______ _______ _____ _____    ______ ____
ROOT
ATOM      1  N   UNL     1      14.775   6.205  13.458  0.00  0.00    -0.354 N 
ATOM      2  N   UNL     1      13.670   5.377  11.599  0.00  0.00    -0.372 N 
ATOM      3  N   UNL     1      12.621   5.299  13.638  0.00  0.00    -0.372 N 
ATOM      4  C   UNL     1      13.694   5.632  12.912  0.00  0.00    +0.166 C 
ATOM      5  H   UNL     1      15.567   6.406  12.859  0.00  0.00    +0.163 HD
ATOM      6  H   UNL     1      12.867   4.948  11.158  0.00  0.00    +0.159 HD
ATOM      7  H   UNL     1      14.445   5.620  10.994  0.00  0.00    +0.159 HD
ATOM      8  H   UNL     1      12.579   5.459  14.635  0.00  0.00    +0.159 HD
ATOM      9  H   UNL     1      11.812   4.858  13.217  0.00  0.00    +0.159 HD
ENDROOT
BRANCH   1  10
ATOM     10  C   UNL     1      14.881   6.574  14.869  0.00  0.00    +0.151 C 
BRANCH  10  11
ATOM     11  C   UNL     1      16.301   6.376  15.323  0.00  0.00    -0.028 A 
ATOM     12  C   UNL     1      17.350   6.367  14.393  0.00  0.00    +0.005 A 
ATOM     13  C   UNL     1      16.603   6.205  16.682  0.00  0.00    +0.005 A 
ATOM     14  C   UNL     1      18.673   6.213  14.817  0.00  0.00    +0.000 A 
ATOM     15  C   UNL     1      17.925   6.051  17.102  0.00  0.00    +0.000 A 
ATOM     16  C   UNL     1      18.959   6.058  16.169  0.00  0.00    +0.000 A 
ENDBRANCH  10  11
ENDBRANCH   1  10
TORSDOF 2
ENDMDL
