MODEL 1
REMARK VINA RESULT:    -4.880      0.000      0.000
REMARK INTER + INTRA:          -5.610
REMARK INTER:                  -5.450
REMARK INTRA:                  -0.160
REMARK UNBOUND:                -0.160
REMARK  Name = 1550473
REMARK  2 active torsions:
REMARK  status: ('A' for Active; 'I' for Inactive)
REMARK    1  A    between atoms: N_1  and  C_4
REMARK    2  A    between atoms: C_4  and  C_5
REMARK                            x       y       z     vdW  Elec       q    Type
REMARK                         _______ _______ _______ _____ _____    ______ ____
ROOT
ATOM      1  N   UNL     1       1.582  -4.032   8.539  0.00  0.00    -0.354 N 
ATOM      2  N   UNL     1       2.564  -4.300  10.620  0.00  0.00    -0.372 N 
ATOM      3  N   UNL     1       2.835  -5.947   9.045  0.00  0.00    -0.372 N 
ATOM      4  C   UNL     1       2.321  -4.760   9.387  0.00  0.00    +0.166 C 
ATOM      5  H   UNL     1       1.197  -3.154   8.869  0.00  0.00    +0.163 HD
ATOM      6  H   UNL     1       3.121  -4.827  11.280  0.00  0.00    +0.159 HD
ATOM      7  H   UNL     1       2.216  -3.402  10.932  0.00  0.00    +0.159 HD
ATOM      8  H   UNL     1       2.683  -6.353   8.131  0.00  0.00    +0.159 HD
ATOM      9  H   UNL     1       3.385  -6.494   9.696  0.00  0.00    +0.159 HD
ENDROOT
BRANCH   1  10
ATOM     10  C   UNL     1       1.305  -4.417   7.157  0.00  0.00    +0.151 C 
BRANCH  10  11
ATOM     11  C   UNL     1      -0.174  -4.638   6.997  0.00  0.00    -0.028 A 
ATOM     12  C   UNL     1      -1.019  -3.576   6.643  0.00  0.00    +0.005 A 
ATOM     13  C   UNL     1      -0.736  -5.909   7.191  0.00  0.00    +0.005 A 
ATOM     14  C   UNL     1      -2.388  -3.787   6.464  0.00  0.00    +0.000 A 
ATOM     15  C   UNL     1      -2.104  -6.116   7.013  0.00  0.00    +0.000 A 
ATOM     16  C   UNL     1      -2.929  -5.055   6.647  0.00  0.00    +0.000 A 
ENDBRANCH  10  11
ENDBRANCH   1  10
TORSDOF 2
ENDMDL
MODEL 2
REMARK VINA RESULT:    -4.861      3.469      4.407
REMARK INTER + INTRA:          -5.589
REMARK INTER:                  -5.440
REMARK INTRA:                  -0.149
REMARK UNBOUND:                -0.160
REMARK  Name = 1550473
REMARK  2 active torsions:
REMARK  status: ('A' for Active; 'I' for Inactive)
REMARK    1  A    between atoms: N_1  and  C_4
REMARK    2  A    between atoms: C_4  and  C_5
REMARK                            x       y       z     vdW  Elec       q    Type
REMARK                         _______ _______ _______ _____ _____    ______ ____
ROOT
ATOM      1  N   UNL     1      -2.166  -8.167   7.125  0.00  0.00    -0.354 N 
ATOM      2  N   UNL     1      -3.683  -9.446   8.318  0.00  0.00    -0.372 N 
ATOM      3  N   UNL     1      -1.569  -9.160   9.161  0.00  0.00    -0.372 N 
ATOM      4  C   UNL     1      -2.460  -8.916   8.195  0.00  0.00    +0.166 C 
ATOM      5  H   UNL     1      -2.877  -8.044   6.413  0.00  0.00    +0.163 HD
ATOM      6  H   UNL     1      -3.936 -10.014   9.116  0.00  0.00    +0.159 HD
ATOM      7  H   UNL     1      -4.406  -9.284   7.627  0.00  0.00    +0.159 HD
ATOM      8  H   UNL     1      -0.627  -8.794   9.125  0.00  0.00    +0.159 HD
ATOM      9  H   UNL     1      -1.799  -9.735   9.962  0.00  0.00    +0.159 HD
ENDROOT
BRANCH   1  10
ATOM     10  C   UNL     1      -0.881  -7.500   6.922  0.00  0.00    +0.151 C 
BRANCH  10  11
ATOM     11  C   UNL     1      -1.106  -6.015   6.841  0.00  0.00    -0.028 A 
ATOM     12  C   UNL     1      -0.027  -5.125   6.948  0.00  0.00    +0.005 A 
ATOM     13  C   UNL     1      -2.394  -5.492   6.652  0.00  0.00    +0.005 A 
ATOM     14  C   UNL     1      -0.231  -3.747   6.843  0.00  0.00    +0.000 A 
ATOM     15  C   UNL     1      -2.594  -4.115   6.549  0.00  0.00    +0.000 A 
ATOM     16  C   UNL     1      -1.512  -3.243   6.641  0.00  0.00    +0.000 A 
ENDBRANCH  10  11
ENDBRANCH   1  10
TORSDOF 2
ENDMDL
MODEL 3
REMARK VINA RESULT:    -4.660      3.279      4.195
REMARK INTER + INTRA:          -5.365
REMARK INTER:                  -5.203
REMARK INTRA:                  -0.162
REMARK UNBOUND:                -0.160
REMARK  Name = 1550473
REMARK  2 active torsions:
REMARK  status: ('A' for Active; 'I' for Inactive)
REMARK    1  A    between atoms: N_1  and  C_4
REMARK    2  A    between atoms: C_4  and  C_5
REMARK                            x       y       z     vdW  Elec       q    Type
REMARK                         _______ _______ _______ _____ _____    ______ ____
ROOT
ATOM      1  N   UNL     1      -1.060  -7.969   8.080  0.00  0.00    -0.354 N 
ATOM      2  N   UNL     1      -2.362  -9.242   9.512  0.00  0.00    -0.372 N 
ATOM      3  N   UNL     1      -2.965  -9.092   7.303  0.00  0.00    -0.372 N 
ATOM      4  C   UNL     1      -2.122  -8.759   8.287  0.00  0.00    +0.166 C 
ATOM      5  H   UNL     1      -0.476  -7.730   8.874  0.00  0.00    +0.163 HD
ATOM      6  H   UNL     1      -3.153  -9.843   9.698  0.00  0.00    +0.159 HD
ATOM      7  H   UNL     1      -1.751  -9.039  10.294  0.00  0.00    +0.159 HD
ATOM      8  H   UNL     1      -2.843  -8.756   6.357  0.00  0.00    +0.159 HD
ATOM      9  H   UNL     1      -3.769  -9.683   7.472  0.00  0.00    +0.159 HD
ENDROOT
BRANCH   1  10
ATOM     10  C   UNL     1      -0.680  -7.436   6.773  0.00  0.00    +0.151 C 
BRANCH  10  11
ATOM     11  C   UNL     1      -0.993  -5.966   6.733  0.00  0.00    -0.028 A 
ATOM     12  C   UNL     1      -2.310  -5.523   6.543  0.00  0.00    +0.005 A 
ATOM     13  C   UNL     1       0.022  -5.010   6.890  0.00  0.00    +0.005 A 
ATOM     14  C   UNL     1      -2.607  -4.158   6.536  0.00  0.00    +0.000 A 
ATOM     15  C   UNL     1      -0.277  -3.647   6.881  0.00  0.00    +0.000 A 
ATOM     16  C   UNL     1      -1.592  -3.222   6.706  0.00  0.00    +0.000 A 
ENDBRANCH  10  11
ENDBRANCH   1  10
TORSDOF 2
ENDMDL
MODEL 4
REMARK VINA RESULT:    -4.485     16.720     17.572
REMARK INTER + INTRA:          -5.169
REMARK INTER:                  -5.008
REMARK INTRA:                  -0.162
REMARK UNBOUND:                -0.160
REMARK  Name = 1550473
REMARK  2 active torsions:
REMARK  status: ('A' for Active; 'I' for Inactive)
REMARK    1  A    between atoms: N_1  and  C_4
REMARK    2  A    between atoms: C_4  and  C_5
REMARK                            x       y       z     vdW  Elec       q    Type
REMARK                         _______ _______ _______ _____ _____    ______ ____
ROOT
ATOM      1  N   UNL     1       7.171  -3.029  -9.088  0.00  0.00    -0.354 N 
ATOM      2  N   UNL     1       7.044  -2.312 -11.286  0.00  0.00    -0.372 N 
ATOM      3  N   UNL     1       5.383  -1.706  -9.825  0.00  0.00    -0.372 N 
ATOM      4  C   UNL     1       6.531  -2.353 -10.051  0.00  0.00    +0.166 C 
ATOM      5  H   UNL     1       8.022  -3.523  -9.331  0.00  0.00    +0.163 HD
ATOM      6  H   UNL     1       6.586  -1.807 -12.033  0.00  0.00    +0.159 HD
ATOM      7  H   UNL     1       7.919  -2.769 -11.515  0.00  0.00    +0.159 HD
ATOM      8  H   UNL     1       4.940  -1.703  -8.916  0.00  0.00    +0.159 HD
ATOM      9  H   UNL     1       4.902  -1.205 -10.562  0.00  0.00    +0.159 HD
ENDROOT
BRANCH   1  10
ATOM     10  C   UNL     1       6.725  -3.090  -7.697  0.00  0.00    +0.151 C 
BRANCH  10  11
ATOM     11  C   UNL     1       6.271  -4.490  -7.388  0.00  0.00    -0.028 A 
ATOM     12  C   UNL     1       5.060  -4.976  -7.904  0.00  0.00    +0.005 A 
ATOM     13  C   UNL     1       7.049  -5.338  -6.586  0.00  0.00    +0.005 A 
ATOM     14  C   UNL     1       4.652  -6.286  -7.643  0.00  0.00    +0.000 A 
ATOM     15  C   UNL     1       6.638  -6.646  -6.326  0.00  0.00    +0.000 A 
ATOM     16  C   UNL     1       5.441  -7.120  -6.857  0.00  0.00    +0.000 A 
ENDBRANCH  10  11
ENDBRANCH   1  10
TORSDOF 2
ENDMDL
MODEL 5
REMARK VINA RESULT:    -4.267      8.838     10.048
REMARK INTER + INTRA:          -4.926
REMARK INTER:                  -4.840
REMARK INTRA:                  -0.086
REMARK UNBOUND:                -0.160
REMARK  Name = 1550473
REMARK  2 active torsions:
REMARK  status: ('A' for Active; 'I' for Inactive)
REMARK    1  A    between atoms: N_1  and  C_4
REMARK    2  A    between atoms: C_4  and  C_5
REMARK                            x       y       z     vdW  Elec       q    Type
REMARK                         _______ _______ _______ _____ _____    ______ ____
ROOT
ATOM      1  N   UNL     1       6.877   0.987  11.823  0.00  0.00    -0.354 N 
ATOM      2  N   UNL     1       7.537  -0.849  10.574  0.00  0.00    -0.372 N 
ATOM      3  N   UNL     1       5.419  -0.811  11.457  0.00  0.00    -0.372 N 
ATOM      4  C   UNL     1       6.604  -0.213  11.294  0.00  0.00    +0.166 C 
ATOM      5  H   UNL     1       7.805   1.373  11.688  0.00  0.00    +0.163 HD
ATOM      6  H   UNL     1       7.359  -1.754  10.160  0.00  0.00    +0.159 HD
ATOM      7  H   UNL     1       8.448  -0.440  10.403  0.00  0.00    +0.159 HD
ATOM      8  H   UNL     1       4.675  -0.386  11.994  0.00  0.00    +0.159 HD
ATOM      9  H   UNL     1       5.226  -1.721  11.060  0.00  0.00    +0.159 HD
ENDROOT
BRANCH   1  10
ATOM     10  C   UNL     1       5.914   1.787  12.577  0.00  0.00    +0.151 C 
BRANCH  10  11
ATOM     11  C   UNL     1       5.416   2.907  11.706  0.00  0.00    -0.028 A 
ATOM     12  C   UNL     1       4.438   3.794  12.177  0.00  0.00    +0.005 A 
ATOM     13  C   UNL     1       5.924   3.090  10.411  0.00  0.00    +0.005 A 
ATOM     14  C   UNL     1       3.997   4.853  11.379  0.00  0.00    +0.000 A 
ATOM     15  C   UNL     1       5.481   4.148   9.617  0.00  0.00    +0.000 A 
ATOM     16  C   UNL     1       4.520   5.031  10.103  0.00  0.00    +0.000 A 
ENDBRANCH  10  11
ENDBRANCH   1  10
TORSDOF 2
ENDMDL
MODEL 6
REMARK VINA RESULT:    -4.249      1.585      2.122
REMARK INTER + INTRA:          -4.906
REMARK INTER:                  -4.725
REMARK INTRA:                  -0.181
REMARK UNBOUND:                -0.160
REMARK  Name = 1550473
REMARK  2 active torsions:
REMARK  status: ('A' for Active; 'I' for Inactive)
REMARK    1  A    between atoms: N_1  and  C_4
REMARK    2  A    between atoms: C_4  and  C_5
REMARK                            x       y       z     vdW  Elec       q    Type
REMARK                         _______ _______ _______ _____ _____    ______ ____
ROOT
ATOM      1  N   UNL     1       0.266  -3.645   9.265  0.00  0.00    -0.354 N 
ATOM      2  N   UNL     1       1.747  -5.330   9.842  0.00  0.00    -0.372 N 
ATOM      3  N   UNL     1       1.775  -4.515   7.697  0.00  0.00    -0.372 N 
ATOM      4  C   UNL     1       1.254  -4.485   8.928  0.00  0.00    +0.166 C 
ATOM      5  H   UNL     1      -0.106  -3.693  10.207  0.00  0.00    +0.163 HD
ATOM      6  H   UNL     1       2.494  -5.973   9.617  0.00  0.00    +0.159 HD
ATOM      7  H   UNL     1       1.405  -5.344  10.794  0.00  0.00    +0.159 HD
ATOM      8  H   UNL     1       1.443  -3.907   6.960  0.00  0.00    +0.159 HD
ATOM      9  H   UNL     1       2.515  -5.160   7.450  0.00  0.00    +0.159 HD
ENDROOT
BRANCH   1  10
ATOM     10  C   UNL     1      -0.304  -2.649   8.360  0.00  0.00    +0.151 C 
BRANCH  10  11
ATOM     11  C   UNL     1      -1.596  -3.178   7.799  0.00  0.00    -0.028 A 
ATOM     12  C   UNL     1      -1.657  -3.653   6.481  0.00  0.00    +0.005 A 
ATOM     13  C   UNL     1      -2.759  -3.211   8.582  0.00  0.00    +0.005 A 
ATOM     14  C   UNL     1      -2.849  -4.172   5.969  0.00  0.00    +0.000 A 
ATOM     15  C   UNL     1      -3.948  -3.729   8.068  0.00  0.00    +0.000 A 
ATOM     16  C   UNL     1      -3.991  -4.212   6.762  0.00  0.00    +0.000 A 
ENDBRANCH  10  11
ENDBRANCH   1  10
TORSDOF 2
ENDMDL
MODEL 7
REMARK VINA RESULT:    -4.234     17.413     18.187
REMARK INTER + INTRA:          -4.889
REMARK INTER:                  -4.781
REMARK INTRA:                  -0.108
REMARK UNBOUND:                -0.160
REMARK  Name = 1550473
REMARK  2 active torsions:
REMARK  status: ('A' for Active; 'I' for Inactive)
REMARK    1  A    between atoms: N_1  and  C_4
REMARK    2  A    between atoms: C_4  and  C_5
REMARK                            x       y       z     vdW  Elec       q    Type
REMARK                         _______ _______ _______ _____ _____    ______ ____
ROOT
ATOM      1  N   UNL     1       4.432  -8.375 -10.361  0.00  0.00    -0.354 N 
ATOM      2  N   UNL     1       3.894  -8.486 -12.611  0.00  0.00    -0.372 N 
ATOM      3  N   UNL     1       2.675  -9.729 -11.116  0.00  0.00    -0.372 N 
ATOM      4  C   UNL     1       3.669  -8.865 -11.347  0.00  0.00    +0.166 C 
ATOM      5  H   UNL     1       5.189  -7.746 -10.606  0.00  0.00    +0.163 HD
ATOM      6  H   UNL     1       3.332  -8.836 -13.376  0.00  0.00    +0.159 HD
ATOM      7  H   UNL     1       4.621  -7.823 -12.847  0.00  0.00    +0.159 HD
ATOM      8  H   UNL     1       2.457 -10.058 -10.185  0.00  0.00    +0.159 HD
ATOM      9  H   UNL     1       2.109 -10.100 -11.869  0.00  0.00    +0.159 HD
ENDROOT
BRANCH   1  10
ATOM     10  C   UNL     1       4.235  -8.681  -8.946  0.00  0.00    +0.151 C 
BRANCH  10  11
ATOM     11  C   UNL     1       4.895  -7.614  -8.116  0.00  0.00    -0.028 A 
ATOM     12  C   UNL     1       4.477  -6.279  -8.210  0.00  0.00    +0.005 A 
ATOM     13  C   UNL     1       5.935  -7.934  -7.230  0.00  0.00    +0.005 A 
ATOM     14  C   UNL     1       5.070  -5.292  -7.418  0.00  0.00    +0.000 A 
ATOM     15  C   UNL     1       6.525  -6.946  -6.441  0.00  0.00    +0.000 A 
ATOM     16  C   UNL     1       6.090  -5.626  -6.533  0.00  0.00    +0.000 A 
ENDBRANCH  10  11
ENDBRANCH   1  10
TORSDOF 2
ENDMDL
MODEL 8
REMARK VINA RESULT:    -4.203     19.786     21.172
REMARK INTER + INTRA:          -4.854
REMARK INTER:                  -4.710
REMARK INTRA:                  -0.144
REMARK UNBOUND:                -0.160
REMARK  Name = 1550473
REMARK  2 active torsions:
REMARK  status: ('A' for Active; 'I' for Inactive)
REMARK    1  A    between atoms: N_1  and  C_4
REMARK    2  A    between atoms: C_4  and  C_5
REMARK                            x       y       z     vdW  Elec       q    Type
REMARK                         _______ _______ _______ _____ _____    ______ ____
ROOT
ATOM      1  N   UNL     1      -5.715  10.913  -2.777  0.00  0.00    -0.354 N 
ATOM      2  N   UNL     1      -7.941  10.650  -3.361  0.00  0.00    -0.372 N 
ATOM      3  N   UNL     1      -7.427  11.761  -1.420  0.00  0.00    -0.372 N 
ATOM      4  C   UNL     1      -7.013  11.111  -2.513  0.00  0.00    +0.166 C 
ATOM      5  H   UNL     1      -5.467  10.386  -3.607  0.00  0.00    +0.163 HD
ATOM      6  H   UNL     1      -8.928  10.787  -3.190  0.00  0.00    +0.159 HD
ATOM      7  H   UNL     1      -7.689  10.164  -4.213  0.00  0.00    +0.159 HD
ATOM      8  H   UNL     1      -6.778  12.128  -0.738  0.00  0.00    +0.159 HD
ATOM      9  H   UNL     1      -8.411  11.898  -1.226  0.00  0.00    +0.159 HD
ENDROOT
BRANCH   1  10
ATOM     10  C   UNL     1      -4.625  11.421  -1.946  0.00  0.00    +0.151 C 
BRANCH  10  11
ATOM     11  C   UNL     1      -3.705  12.252  -2.797  0.00  0.00    -0.028 A 
ATOM     12  C   UNL     1      -2.459  11.749  -3.200  0.00  0.00    +0.005 A 
ATOM     13  C   UNL     1      -4.075  13.542  -3.209  0.00  0.00    +0.005 A 
ATOM     14  C   UNL     1      -1.617  12.509  -4.016  0.00  0.00    +0.000 A 
ATOM     15  C   UNL     1      -3.231  14.297  -4.022  0.00  0.00    +0.000 A 
ATOM     16  C   UNL     1      -2.003  13.780  -4.427  0.00  0.00    +0.000 A 
ENDBRANCH  10  11
ENDBRANCH   1  10
TORSDOF 2
ENDMDL
MODEL 9
REMARK VINA RESULT:    -4.043     18.852     20.349
REMARK INTER + INTRA:          -4.676
REMARK INTER:                  -4.580
REMARK INTRA:                  -0.096
REMARK UNBOUND:                -0.160
REMARK  Name = 1550473
REMARK  2 active torsions:
REMARK  status: ('A' for Active; 'I' for Inactive)
REMARK    1  A    between atoms: N_1  and  C_4
REMARK    2  A    between atoms: C_4  and  C_5
REMARK                            x       y       z     vdW  Elec       q    Type
REMARK                         _______ _______ _______ _____ _____    ______ ____
ROOT
ATOM      1  N   UNL     1      -3.187  10.811  -2.635  0.00  0.00    -0.354 N 
ATOM      2  N   UNL     1      -4.590   9.072  -2.024  0.00  0.00    -0.372 N 
ATOM      3  N   UNL     1      -5.511  11.103  -2.564  0.00  0.00    -0.372 N 
ATOM      4  C   UNL     1      -4.422  10.342  -2.412  0.00  0.00    +0.166 C 
ATOM      5  H   UNL     1      -2.401  10.192  -2.472  0.00  0.00    +0.163 HD
ATOM      6  H   UNL     1      -5.510   8.690  -1.851  0.00  0.00    +0.159 HD
ATOM      7  H   UNL     1      -3.805   8.443  -1.907  0.00  0.00    +0.159 HD
ATOM      8  H   UNL     1      -5.452  12.072  -2.849  0.00  0.00    +0.159 HD
ATOM      9  H   UNL     1      -6.440  10.742  -2.384  0.00  0.00    +0.159 HD
ENDROOT
BRANCH   1  10
ATOM     10  C   UNL     1      -2.899  12.163  -3.112  0.00  0.00    +0.151 C 
BRANCH  10  11
ATOM     11  C   UNL     1      -1.428  12.279  -3.400  0.00  0.00    -0.028 A 
ATOM     12  C   UNL     1      -0.974  12.508  -4.707  0.00  0.00    +0.005 A 
ATOM     13  C   UNL     1      -0.482  12.166  -2.369  0.00  0.00    +0.005 A 
ATOM     14  C   UNL     1       0.391  12.645  -4.971  0.00  0.00    +0.000 A 
ATOM     15  C   UNL     1       0.880  12.304  -2.637  0.00  0.00    +0.000 A 
ATOM     16  C   UNL     1       1.316  12.546  -3.937  0.00  0.00    +0.000 A 
ENDBRANCH  10  11
ENDBRANCH   1  10
TORSDOF 2
ENDMDL
