MODEL 1
REMARK VINA RESULT:    -5.099      0.000      0.000
REMARK INTER + INTRA:          -5.849
REMARK INTER:                  -5.695
REMARK INTRA:                  -0.154
REMARK UNBOUND:                -0.154
REMARK  Name = 1550473
REMARK  2 active torsions:
REMARK  status: ('A' for Active; 'I' for Inactive)
REMARK    1  A    between atoms: N_1  and  C_4
REMARK    2  A    between atoms: C_4  and  C_5
REMARK                            x       y       z     vdW  Elec       q    Type
REMARK                         _______ _______ _______ _____ _____    ______ ____
ROOT
ATOM      1  N   UNL     1      -6.321  -0.736  -3.715  0.00  0.00    -0.354 N 
ATOM      2  N   UNL     1      -7.814   1.021  -3.934  0.00  0.00    -0.372 N 
ATOM      3  N   UNL     1      -5.902   1.026  -5.202  0.00  0.00    -0.372 N 
ATOM      4  C   UNL     1      -6.667   0.427  -4.284  0.00  0.00    +0.166 C 
ATOM      5  H   UNL     1      -6.929  -1.124  -3.004  0.00  0.00    +0.163 HD
ATOM      6  H   UNL     1      -8.104   1.896  -4.348  0.00  0.00    +0.159 HD
ATOM      7  H   UNL     1      -8.443   0.608  -3.256  0.00  0.00    +0.159 HD
ATOM      8  H   UNL     1      -5.021   0.633  -5.506  0.00  0.00    +0.159 HD
ATOM      9  H   UNL     1      -6.169   1.909  -5.620  0.00  0.00    +0.159 HD
ENDROOT
BRANCH   1  10
ATOM     10  C   UNL     1      -5.119  -1.492  -4.065  0.00  0.00    +0.151 C 
BRANCH  10  11
ATOM     11  C   UNL     1      -5.518  -2.715  -4.843  0.00  0.00    -0.028 A 
ATOM     12  C   UNL     1      -6.794  -3.274  -4.686  0.00  0.00    +0.005 A 
ATOM     13  C   UNL     1      -4.625  -3.317  -5.744  0.00  0.00    +0.005 A 
ATOM     14  C   UNL     1      -7.176  -4.393  -5.431  0.00  0.00    +0.000 A 
ATOM     15  C   UNL     1      -5.009  -4.434  -6.485  0.00  0.00    +0.000 A 
ATOM     16  C   UNL     1      -6.285  -4.970  -6.330  0.00  0.00    +0.000 A 
ENDBRANCH  10  11
ENDBRANCH   1  10
TORSDOF 2
ENDMDL
MODEL 2
REMARK VINA RESULT:    -5.051     19.370     20.740
REMARK INTER + INTRA:          -5.796
REMARK INTER:                  -5.626
REMARK INTRA:                  -0.170
REMARK UNBOUND:                -0.154
REMARK  Name = 1550473
REMARK  2 active torsions:
REMARK  status: ('A' for Active; 'I' for Inactive)
REMARK    1  A    between atoms: N_1  and  C_4
REMARK    2  A    between atoms: C_4  and  C_5
REMARK                            x       y       z     vdW  Elec       q    Type
REMARK                         _______ _______ _______ _____ _____    ______ ____
ROOT
ATOM      1  N   UNL     1       4.695  13.493  -7.254  0.00  0.00    -0.354 N 
ATOM      2  N   UNL     1       5.126  13.774  -9.512  0.00  0.00    -0.372 N 
ATOM      3  N   UNL     1       4.608  15.615  -8.244  0.00  0.00    -0.372 N 
ATOM      4  C   UNL     1       4.806  14.295  -8.321  0.00  0.00    +0.166 C 
ATOM      5  H   UNL     1       4.828  12.496  -7.384  0.00  0.00    +0.163 HD
ATOM      6  H   UNL     1       5.220  14.355 -10.334  0.00  0.00    +0.159 HD
ATOM      7  H   UNL     1       5.303  12.784  -9.630  0.00  0.00    +0.159 HD
ATOM      8  H   UNL     1       4.358  16.069  -7.375  0.00  0.00    +0.159 HD
ATOM      9  H   UNL     1       4.686  16.211  -9.058  0.00  0.00    +0.159 HD
ENDROOT
BRANCH   1  10
ATOM     10  C   UNL     1       4.404  13.966  -5.902  0.00  0.00    +0.151 C 
BRANCH  10  11
ATOM     11  C   UNL     1       5.699  14.201  -5.174  0.00  0.00    -0.028 A 
ATOM     12  C   UNL     1       6.477  13.118  -4.738  0.00  0.00    +0.005 A 
ATOM     13  C   UNL     1       6.157  15.504  -4.923  0.00  0.00    +0.005 A 
ATOM     14  C   UNL     1       7.695  13.336  -4.089  0.00  0.00    +0.000 A 
ATOM     15  C   UNL     1       7.373  15.716  -4.273  0.00  0.00    +0.000 A 
ATOM     16  C   UNL     1       8.143  14.632  -3.859  0.00  0.00    +0.000 A 
ENDBRANCH  10  11
ENDBRANCH   1  10
TORSDOF 2
ENDMDL
MODEL 3
REMARK VINA RESULT:    -4.941      7.830     10.182
REMARK INTER + INTRA:          -5.673
REMARK INTER:                  -5.564
REMARK INTRA:                  -0.108
REMARK UNBOUND:                -0.154
REMARK  Name = 1550473
REMARK  2 active torsions:
REMARK  status: ('A' for Active; 'I' for Inactive)
REMARK    1  A    between atoms: N_1  and  C_4
REMARK    2  A    between atoms: C_4  and  C_5
REMARK                            x       y       z     vdW  Elec       q    Type
REMARK                         _______ _______ _______ _____ _____    ______ ____
ROOT
ATOM      1  N   UNL     1     -11.255   3.199  -0.990  0.00  0.00    -0.354 N 
ATOM      2  N   UNL     1      -9.836   4.444  -2.332  0.00  0.00    -0.372 N 
ATOM      3  N   UNL     1      -9.712   2.154  -2.411  0.00  0.00    -0.372 N 
ATOM      4  C   UNL     1     -10.276   3.255  -1.903  0.00  0.00    +0.166 C 
ATOM      5  H   UNL     1     -11.620   4.070  -0.621  0.00  0.00    +0.163 HD
ATOM      6  H   UNL     1      -9.101   4.518  -3.023  0.00  0.00    +0.159 HD
ATOM      7  H   UNL     1     -10.235   5.313  -1.996  0.00  0.00    +0.159 HD
ATOM      8  H   UNL     1      -9.995   1.227  -2.125  0.00  0.00    +0.159 HD
ATOM      9  H   UNL     1      -8.967   2.208  -3.095  0.00  0.00    +0.159 HD
ENDROOT
BRANCH   1  10
ATOM     10  C   UNL     1     -11.842   1.955  -0.496  0.00  0.00    +0.151 C 
BRANCH  10  11
ATOM     11  C   UNL     1     -13.091   2.274   0.278  0.00  0.00    -0.028 A 
ATOM     12  C   UNL     1     -13.263   1.791   1.583  0.00  0.00    +0.005 A 
ATOM     13  C   UNL     1     -14.104   3.064  -0.287  0.00  0.00    +0.005 A 
ATOM     14  C   UNL     1     -14.410   2.113   2.314  0.00  0.00    +0.000 A 
ATOM     15  C   UNL     1     -15.248   3.382   0.446  0.00  0.00    +0.000 A 
ATOM     16  C   UNL     1     -15.399   2.908   1.746  0.00  0.00    +0.000 A 
ENDBRANCH  10  11
ENDBRANCH   1  10
TORSDOF 2
ENDMDL
MODEL 4
REMARK VINA RESULT:    -4.789     12.565     13.386
REMARK INTER + INTRA:          -5.503
REMARK INTER:                  -5.397
REMARK INTRA:                  -0.105
REMARK UNBOUND:                -0.154
REMARK  Name = 1550473
REMARK  2 active torsions:
REMARK  status: ('A' for Active; 'I' for Inactive)
REMARK    1  A    between atoms: N_1  and  C_4
REMARK    2  A    between atoms: C_4  and  C_5
REMARK                            x       y       z     vdW  Elec       q    Type
REMARK                         _______ _______ _______ _____ _____    ______ ____
ROOT
ATOM      1  N   UNL     1     -11.494  -2.642   8.899  0.00  0.00    -0.354 N 
ATOM      2  N   UNL     1     -10.277  -3.062  10.824  0.00  0.00    -0.372 N 
ATOM      3  N   UNL     1     -10.199  -0.964   9.898  0.00  0.00    -0.372 N 
ATOM      4  C   UNL     1     -10.664  -2.218   9.860  0.00  0.00    +0.166 C 
ATOM      5  H   UNL     1     -11.787  -3.613   8.910  0.00  0.00    +0.163 HD
ATOM      6  H   UNL     1      -9.654  -2.769  11.565  0.00  0.00    +0.159 HD
ATOM      7  H   UNL     1     -10.608  -4.019  10.858  0.00  0.00    +0.159 HD
ATOM      8  H   UNL     1     -10.448  -0.280   9.196  0.00  0.00    +0.159 HD
ATOM      9  H   UNL     1      -9.565  -0.656  10.624  0.00  0.00    +0.159 HD
ENDROOT
BRANCH   1  10
ATOM     10  C   UNL     1     -12.018  -1.788   7.834  0.00  0.00    +0.151 C 
BRANCH  10  11
ATOM     11  C   UNL     1     -11.476  -2.261   6.513  0.00  0.00    -0.028 A 
ATOM     12  C   UNL     1     -12.273  -2.218   5.360  0.00  0.00    +0.005 A 
ATOM     13  C   UNL     1     -10.164  -2.748   6.408  0.00  0.00    +0.005 A 
ATOM     14  C   UNL     1     -11.760  -2.630   4.128  0.00  0.00    +0.000 A 
ATOM     15  C   UNL     1      -9.656  -3.159   5.175  0.00  0.00    +0.000 A 
ATOM     16  C   UNL     1     -10.454  -3.097   4.035  0.00  0.00    +0.000 A 
ENDBRANCH  10  11
ENDBRANCH   1  10
TORSDOF 2
ENDMDL
MODEL 5
REMARK VINA RESULT:    -4.548     21.706     22.607
REMARK INTER + INTRA:          -5.234
REMARK INTER:                  -5.093
REMARK INTRA:                  -0.141
REMARK UNBOUND:                -0.154
REMARK  Name = 1550473
REMARK  2 active torsions:
REMARK  status: ('A' for Active; 'I' for Inactive)
REMARK    1  A    between atoms: N_1  and  C_4
REMARK    2  A    between atoms: C_4  and  C_5
REMARK                            x       y       z     vdW  Elec       q    Type
REMARK                         _______ _______ _______ _____ _____    ______ ____
ROOT
ATOM      1  N   UNL     1      -3.258  18.437   3.995  0.00  0.00    -0.354 N 
ATOM      2  N   UNL     1      -5.529  18.023   3.807  0.00  0.00    -0.372 N 
ATOM      3  N   UNL     1      -4.165  16.371   4.628  0.00  0.00    -0.372 N 
ATOM      4  C   UNL     1      -4.301  17.610   4.145  0.00  0.00    +0.166 C 
ATOM      5  H   UNL     1      -3.423  19.353   3.596  0.00  0.00    +0.163 HD
ATOM      6  H   UNL     1      -6.336  17.423   3.912  0.00  0.00    +0.159 HD
ATOM      7  H   UNL     1      -5.698  18.956   3.450  0.00  0.00    +0.159 HD
ATOM      8  H   UNL     1      -3.265  15.997   4.897  0.00  0.00    +0.159 HD
ATOM      9  H   UNL     1      -4.959  15.751   4.730  0.00  0.00    +0.159 HD
ENDROOT
BRANCH   1  10
ATOM     10  C   UNL     1      -1.888  18.103   4.384  0.00  0.00    +0.151 C 
BRANCH  10  11
ATOM     11  C   UNL     1      -0.959  18.446   3.252  0.00  0.00    -0.028 A 
ATOM     12  C   UNL     1      -1.339  18.210   1.923  0.00  0.00    +0.005 A 
ATOM     13  C   UNL     1       0.300  19.013   3.503  0.00  0.00    +0.005 A 
ATOM     14  C   UNL     1      -0.488  18.556   0.870  0.00  0.00    +0.000 A 
ATOM     15  C   UNL     1       1.146  19.356   2.449  0.00  0.00    +0.000 A 
ATOM     16  C   UNL     1       0.751  19.130   1.133  0.00  0.00    +0.000 A 
ENDBRANCH  10  11
ENDBRANCH   1  10
TORSDOF 2
ENDMDL
MODEL 6
REMARK VINA RESULT:    -4.442     28.162     29.059
REMARK INTER + INTRA:          -5.115
REMARK INTER:                  -4.987
REMARK INTRA:                  -0.128
REMARK UNBOUND:                -0.154
REMARK  Name = 1550473
REMARK  2 active torsions:
REMARK  status: ('A' for Active; 'I' for Inactive)
REMARK    1  A    between atoms: N_1  and  C_4
REMARK    2  A    between atoms: C_4  and  C_5
REMARK                            x       y       z     vdW  Elec       q    Type
REMARK                         _______ _______ _______ _____ _____    ______ ____
ROOT
ATOM      1  N   UNL     1      -8.404   1.194 -33.276  0.00  0.00    -0.354 N 
ATOM      2  N   UNL     1      -6.579   2.482 -33.887  0.00  0.00    -0.372 N 
ATOM      3  N   UNL     1      -8.047   3.307 -32.329  0.00  0.00    -0.372 N 
ATOM      4  C   UNL     1      -7.690   2.321 -33.158  0.00  0.00    +0.166 C 
ATOM      5  H   UNL     1      -8.097   0.497 -33.945  0.00  0.00    +0.163 HD
ATOM      6  H   UNL     1      -6.018   3.320 -33.817  0.00  0.00    +0.159 HD
ATOM      7  H   UNL     1      -6.249   1.765 -34.521  0.00  0.00    +0.159 HD
ATOM      8  H   UNL     1      -8.878   3.250 -31.755  0.00  0.00    +0.159 HD
ATOM      9  H   UNL     1      -7.505   4.159 -32.253  0.00  0.00    +0.159 HD
ENDROOT
BRANCH   1  10
ATOM     10  C   UNL     1      -9.599   0.897 -32.489  0.00  0.00    +0.151 C 
BRANCH  10  11
ATOM     11  C   UNL     1     -10.495  -0.015 -33.281  0.00  0.00    -0.028 A 
ATOM     12  C   UNL     1     -11.807  -0.272 -32.855  0.00  0.00    +0.005 A 
ATOM     13  C   UNL     1     -10.040  -0.622 -34.462  0.00  0.00    +0.005 A 
ATOM     14  C   UNL     1     -12.649  -1.095 -33.606  0.00  0.00    +0.000 A 
ATOM     15  C   UNL     1     -10.884  -1.444 -35.209  0.00  0.00    +0.000 A 
ATOM     16  C   UNL     1     -12.189  -1.678 -34.782  0.00  0.00    +0.000 A 
ENDBRANCH  10  11
ENDBRANCH   1  10
TORSDOF 2
ENDMDL
MODEL 7
REMARK VINA RESULT:    -4.437     17.824     18.950
REMARK INTER + INTRA:          -5.110
REMARK INTER:                  -5.012
REMARK INTRA:                  -0.097
REMARK UNBOUND:                -0.154
REMARK  Name = 1550473
REMARK  2 active torsions:
REMARK  status: ('A' for Active; 'I' for Inactive)
REMARK    1  A    between atoms: N_1  and  C_4
REMARK    2  A    between atoms: C_4  and  C_5
REMARK                            x       y       z     vdW  Elec       q    Type
REMARK                         _______ _______ _______ _____ _____    ______ ____
ROOT
ATOM      1  N   UNL     1       2.228  13.679  -9.673  0.00  0.00    -0.354 N 
ATOM      2  N   UNL     1       0.718  14.047 -11.390  0.00  0.00    -0.372 N 
ATOM      3  N   UNL     1       2.962  14.061 -11.865  0.00  0.00    -0.372 N 
ATOM      4  C   UNL     1       1.982  13.927 -10.966  0.00  0.00    +0.166 C 
ATOM      5  H   UNL     1       1.442  13.619  -9.036  0.00  0.00    +0.163 HD
ATOM      6  H   UNL     1       0.501  14.231 -12.360  0.00  0.00    +0.159 HD
ATOM      7  H   UNL     1      -0.068  13.941 -10.759  0.00  0.00    +0.159 HD
ATOM      8  H   UNL     1       3.938  13.987 -11.609  0.00  0.00    +0.159 HD
ATOM      9  H   UNL     1       2.766  14.256 -12.839  0.00  0.00    +0.159 HD
ENDROOT
BRANCH   1  10
ATOM     10  C   UNL     1       3.566  13.477  -9.119  0.00  0.00    +0.151 C 
BRANCH  10  11
ATOM     11  C   UNL     1       3.508  13.636  -7.625  0.00  0.00    -0.028 A 
ATOM     12  C   UNL     1       2.750  12.752  -6.844  0.00  0.00    +0.005 A 
ATOM     13  C   UNL     1       4.215  14.665  -6.984  0.00  0.00    +0.005 A 
ATOM     14  C   UNL     1       2.720  12.881  -5.453  0.00  0.00    +0.000 A 
ATOM     15  C   UNL     1       4.182  14.791  -5.595  0.00  0.00    +0.000 A 
ATOM     16  C   UNL     1       3.437  13.897  -4.830  0.00  0.00    +0.000 A 
ENDBRANCH  10  11
ENDBRANCH   1  10
TORSDOF 2
ENDMDL
MODEL 8
REMARK VINA RESULT:    -4.300     27.177     28.191
REMARK INTER + INTRA:          -4.957
REMARK INTER:                  -4.841
REMARK INTRA:                  -0.116
REMARK UNBOUND:                -0.154
REMARK  Name = 1550473
REMARK  2 active torsions:
REMARK  status: ('A' for Active; 'I' for Inactive)
REMARK    1  A    between atoms: N_1  and  C_4
REMARK    2  A    between atoms: C_4  and  C_5
REMARK                            x       y       z     vdW  Elec       q    Type
REMARK                         _______ _______ _______ _____ _____    ______ ____
ROOT
ATOM      1  N   UNL     1      12.710  -9.069  14.384  0.00  0.00    -0.354 N 
ATOM      2  N   UNL     1      12.522 -10.762  12.816  0.00  0.00    -0.372 N 
ATOM      3  N   UNL     1      14.075  -9.106  12.480  0.00  0.00    -0.372 N 
ATOM      4  C   UNL     1      13.106  -9.633  13.236  0.00  0.00    +0.166 C 
ATOM      5  H   UNL     1      11.949  -9.501  14.896  0.00  0.00    +0.163 HD
ATOM      6  H   UNL     1      12.802 -11.213  11.955  0.00  0.00    +0.159 HD
ATOM      7  H   UNL     1      11.794 -11.217  13.352  0.00  0.00    +0.159 HD
ATOM      8  H   UNL     1      14.551  -8.252  12.738  0.00  0.00    +0.159 HD
ATOM      9  H   UNL     1      14.361  -9.536  11.609  0.00  0.00    +0.159 HD
ENDROOT
BRANCH   1  10
ATOM     10  C   UNL     1      13.316  -7.868  14.957  0.00  0.00    +0.151 C 
BRANCH  10  11
ATOM     11  C   UNL     1      12.288  -7.143  15.780  0.00  0.00    -0.028 A 
ATOM     12  C   UNL     1      12.537  -6.841  17.127  0.00  0.00    +0.005 A 
ATOM     13  C   UNL     1      11.064  -6.749  15.217  0.00  0.00    +0.005 A 
ATOM     14  C   UNL     1      11.594  -6.141  17.884  0.00  0.00    +0.000 A 
ATOM     15  C   UNL     1      10.125  -6.051  15.976  0.00  0.00    +0.000 A 
ATOM     16  C   UNL     1      10.391  -5.745  17.309  0.00  0.00    +0.000 A 
ENDBRANCH  10  11
ENDBRANCH   1  10
TORSDOF 2
ENDMDL
MODEL 9
REMARK VINA RESULT:    -4.234     27.561     28.626
REMARK INTER + INTRA:          -4.883
REMARK INTER:                  -4.709
REMARK INTRA:                  -0.174
REMARK UNBOUND:                -0.154
REMARK  Name = 1550473
REMARK  2 active torsions:
REMARK  status: ('A' for Active; 'I' for Inactive)
REMARK    1  A    between atoms: N_1  and  C_4
REMARK    2  A    between atoms: C_4  and  C_5
REMARK                            x       y       z     vdW  Elec       q    Type
REMARK                         _______ _______ _______ _____ _____    ______ ____
ROOT
ATOM      1  N   UNL     1      10.905  -6.206  18.162  0.00  0.00    -0.354 N 
ATOM      2  N   UNL     1      10.454  -4.202  19.231  0.00  0.00    -0.372 N 
ATOM      3  N   UNL     1       9.772  -4.477  17.058  0.00  0.00    -0.372 N 
ATOM      4  C   UNL     1      10.379  -4.974  18.141  0.00  0.00    +0.166 C 
ATOM      5  H   UNL     1      11.379  -6.512  19.004  0.00  0.00    +0.163 HD
ATOM      6  H   UNL     1      10.063  -3.269  19.246  0.00  0.00    +0.159 HD
ATOM      7  H   UNL     1      10.887  -4.528  20.087  0.00  0.00    +0.159 HD
ATOM      8  H   UNL     1       9.688  -5.007  16.201  0.00  0.00    +0.159 HD
ATOM      9  H   UNL     1       9.385  -3.542  17.049  0.00  0.00    +0.159 HD
ENDROOT
BRANCH   1  10
ATOM     10  C   UNL     1      10.830  -7.147  17.046  0.00  0.00    +0.151 C 
BRANCH  10  11
ATOM     11  C   UNL     1      12.122  -7.101  16.277  0.00  0.00    -0.028 A 
ATOM     12  C   UNL     1      12.116  -6.926  14.885  0.00  0.00    +0.005 A 
ATOM     13  C   UNL     1      13.355  -7.225  16.935  0.00  0.00    +0.005 A 
ATOM     14  C   UNL     1      13.316  -6.853  14.174  0.00  0.00    +0.000 A 
ATOM     15  C   UNL     1      14.551  -7.152  16.221  0.00  0.00    +0.000 A 
ATOM     16  C   UNL     1      14.531  -6.964  14.841  0.00  0.00    +0.000 A 
ENDBRANCH  10  11
ENDBRANCH   1  10
TORSDOF 2
ENDMDL
