MODEL 1
REMARK VINA RESULT:    -5.280      0.000      0.000
REMARK INTER + INTRA:          -6.060
REMARK INTER:                  -5.898
REMARK INTRA:                  -0.163
REMARK UNBOUND:                -0.163
REMARK  Name = 1550473
REMARK  2 active torsions:
REMARK  status: ('A' for Active; 'I' for Inactive)
REMARK    1  A    between atoms: N_1  and  C_4
REMARK    2  A    between atoms: C_4  and  C_5
REMARK                            x       y       z     vdW  Elec       q    Type
REMARK                         _______ _______ _______ _____ _____    ______ ____
ROOT
ATOM      1  N   UNL     1       2.972  14.761  16.900  0.00  0.00    -0.354 N 
ATOM      2  N   UNL     1       0.692  14.842  16.503  0.00  0.00    -0.372 N 
ATOM      3  N   UNL     1       1.748  16.721  17.288  0.00  0.00    -0.372 N 
ATOM      4  C   UNL     1       1.819  15.443  16.901  0.00  0.00    +0.166 C 
ATOM      5  H   UNL     1       2.954  13.786  16.624  0.00  0.00    +0.163 HD
ATOM      6  H   UNL     1      -0.193  15.332  16.490  0.00  0.00    +0.159 HD
ATOM      7  H   UNL     1       0.684  13.881  16.184  0.00  0.00    +0.159 HD
ATOM      8  H   UNL     1       2.562  17.231  17.605  0.00  0.00    +0.159 HD
ATOM      9  H   UNL     1       0.871  17.226  17.292  0.00  0.00    +0.159 HD
ENDROOT
BRANCH   1  10
ATOM     10  C   UNL     1       4.265  15.339  17.263  0.00  0.00    +0.151 C 
BRANCH  10  11
ATOM     11  C   UNL     1       4.798  14.627  18.476  0.00  0.00    -0.028 A 
ATOM     12  C   UNL     1       4.220  14.837  19.736  0.00  0.00    +0.005 A 
ATOM     13  C   UNL     1       5.877  13.736  18.370  0.00  0.00    +0.005 A 
ATOM     14  C   UNL     1       4.695  14.153  20.858  0.00  0.00    +0.000 A 
ATOM     15  C   UNL     1       6.350  13.056  19.492  0.00  0.00    +0.000 A 
ATOM     16  C   UNL     1       5.757  13.263  20.735  0.00  0.00    +0.000 A 
ENDBRANCH  10  11
ENDBRANCH   1  10
TORSDOF 2
ENDMDL
MODEL 2
REMARK VINA RESULT:    -4.542      1.688      2.428
REMARK INTER + INTRA:          -5.236
REMARK INTER:                  -5.115
REMARK INTRA:                  -0.121
REMARK UNBOUND:                -0.163
REMARK  Name = 1550473
REMARK  2 active torsions:
REMARK  status: ('A' for Active; 'I' for Inactive)
REMARK    1  A    between atoms: N_1  and  C_4
REMARK    2  A    between atoms: C_4  and  C_5
REMARK                            x       y       z     vdW  Elec       q    Type
REMARK                         _______ _______ _______ _____ _____    ______ ____
ROOT
ATOM      1  N   UNL     1       3.601  14.517  16.577  0.00  0.00    -0.354 N 
ATOM      2  N   UNL     1       1.704  15.205  15.440  0.00  0.00    -0.372 N 
ATOM      3  N   UNL     1       2.418  16.426  17.247  0.00  0.00    -0.372 N 
ATOM      4  C   UNL     1       2.586  15.380  16.431  0.00  0.00    +0.166 C 
ATOM      5  H   UNL     1       3.656  13.728  15.944  0.00  0.00    +0.163 HD
ATOM      6  H   UNL     1       0.931  15.842  15.302  0.00  0.00    +0.159 HD
ATOM      7  H   UNL     1       1.788  14.441  14.780  0.00  0.00    +0.159 HD
ATOM      8  H   UNL     1       3.045  16.611  18.018  0.00  0.00    +0.159 HD
ATOM      9  H   UNL     1       1.643  17.068  17.133  0.00  0.00    +0.159 HD
ENDROOT
BRANCH   1  10
ATOM     10  C   UNL     1       4.646  14.648  17.591  0.00  0.00    +0.151 C 
BRANCH  10  11
ATOM     11  C   UNL     1       5.490  13.404  17.589  0.00  0.00    -0.028 A 
ATOM     12  C   UNL     1       6.342  13.120  18.667  0.00  0.00    +0.005 A 
ATOM     13  C   UNL     1       5.439  12.502  16.515  0.00  0.00    +0.005 A 
ATOM     14  C   UNL     1       7.104  11.949  18.680  0.00  0.00    +0.000 A 
ATOM     15  C   UNL     1       6.202  11.334  16.532  0.00  0.00    +0.000 A 
ATOM     16  C   UNL     1       7.032  11.057  17.615  0.00  0.00    +0.000 A 
ENDBRANCH  10  11
ENDBRANCH   1  10
TORSDOF 2
ENDMDL
MODEL 3
REMARK VINA RESULT:    -4.418      1.918      2.803
REMARK INTER + INTRA:          -5.097
REMARK INTER:                  -4.974
REMARK INTRA:                  -0.123
REMARK UNBOUND:                -0.163
REMARK  Name = 1550473
REMARK  2 active torsions:
REMARK  status: ('A' for Active; 'I' for Inactive)
REMARK    1  A    between atoms: N_1  and  C_4
REMARK    2  A    between atoms: C_4  and  C_5
REMARK                            x       y       z     vdW  Elec       q    Type
REMARK                         _______ _______ _______ _____ _____    ______ ____
ROOT
ATOM      1  N   UNL     1       4.913  14.605  15.875  0.00  0.00    -0.354 N 
ATOM      2  N   UNL     1       5.388  14.415  13.616  0.00  0.00    -0.372 N 
ATOM      3  N   UNL     1       3.786  15.913  14.291  0.00  0.00    -0.372 N 
ATOM      4  C   UNL     1       4.690  14.981  14.609  0.00  0.00    +0.166 C 
ATOM      5  H   UNL     1       5.591  13.871  16.047  0.00  0.00    +0.163 HD
ATOM      6  H   UNL     1       5.245  14.681  12.651  0.00  0.00    +0.159 HD
ATOM      7  H   UNL     1       6.098  13.715  13.795  0.00  0.00    +0.159 HD
ATOM      8  H   UNL     1       3.222  16.373  14.993  0.00  0.00    +0.159 HD
ATOM      9  H   UNL     1       3.619  16.184  13.330  0.00  0.00    +0.159 HD
ENDROOT
BRANCH   1  10
ATOM     10  C   UNL     1       4.245  15.196  17.033  0.00  0.00    +0.151 C 
BRANCH  10  11
ATOM     11  C   UNL     1       4.759  14.540  18.285  0.00  0.00    -0.028 A 
ATOM     12  C   UNL     1       5.811  13.614  18.223  0.00  0.00    +0.005 A 
ATOM     13  C   UNL     1       4.203  14.844  19.537  0.00  0.00    +0.005 A 
ATOM     14  C   UNL     1       6.308  13.026  19.389  0.00  0.00    +0.000 A 
ATOM     15  C   UNL     1       4.702  14.255  20.698  0.00  0.00    +0.000 A 
ATOM     16  C   UNL     1       5.756  13.348  20.624  0.00  0.00    +0.000 A 
ENDBRANCH  10  11
ENDBRANCH   1  10
TORSDOF 2
ENDMDL
MODEL 4
REMARK VINA RESULT:    -4.331     24.070     25.226
REMARK INTER + INTRA:          -5.000
REMARK INTER:                  -4.852
REMARK INTRA:                  -0.149
REMARK UNBOUND:                -0.163
REMARK  Name = 1550473
REMARK  2 active torsions:
REMARK  status: ('A' for Active; 'I' for Inactive)
REMARK    1  A    between atoms: N_1  and  C_4
REMARK    2  A    between atoms: C_4  and  C_5
REMARK                            x       y       z     vdW  Elec       q    Type
REMARK                         _______ _______ _______ _____ _____    ______ ____
ROOT
ATOM      1  N   UNL     1       2.730  30.679  38.091  0.00  0.00    -0.354 N 
ATOM      2  N   UNL     1       0.997  31.087  39.572  0.00  0.00    -0.372 N 
ATOM      3  N   UNL     1       2.913  32.340  39.734  0.00  0.00    -0.372 N 
ATOM      4  C   UNL     1       2.227  31.368  39.124  0.00  0.00    +0.166 C 
ATOM      5  H   UNL     1       2.171  29.934  37.691  0.00  0.00    +0.163 HD
ATOM      6  H   UNL     1       0.590  31.592  40.347  0.00  0.00    +0.159 HD
ATOM      7  H   UNL     1       0.423  30.373  39.141  0.00  0.00    +0.159 HD
ATOM      8  H   UNL     1       3.848  32.596  39.448  0.00  0.00    +0.159 HD
ATOM      9  H   UNL     1       2.527  32.848  40.520  0.00  0.00    +0.159 HD
ENDROOT
BRANCH   1  10
ATOM     10  C   UNL     1       4.038  30.943  37.492  0.00  0.00    +0.151 C 
BRANCH  10  11
ATOM     11  C   UNL     1       3.843  31.418  36.078  0.00  0.00    -0.028 A 
ATOM     12  C   UNL     1       2.619  31.221  35.422  0.00  0.00    +0.005 A 
ATOM     13  C   UNL     1       4.878  32.072  35.391  0.00  0.00    +0.005 A 
ATOM     14  C   UNL     1       2.429  31.689  34.120  0.00  0.00    +0.000 A 
ATOM     15  C   UNL     1       4.684  32.537  34.091  0.00  0.00    +0.000 A 
ATOM     16  C   UNL     1       3.458  32.348  33.457  0.00  0.00    +0.000 A 
ENDBRANCH  10  11
ENDBRANCH   1  10
TORSDOF 2
ENDMDL
MODEL 5
REMARK VINA RESULT:    -4.321     47.139     48.572
REMARK INTER + INTRA:          -4.989
REMARK INTER:                  -4.884
REMARK INTRA:                  -0.105
REMARK UNBOUND:                -0.163
REMARK  Name = 1550473
REMARK  2 active torsions:
REMARK  status: ('A' for Active; 'I' for Inactive)
REMARK    1  A    between atoms: N_1  and  C_4
REMARK    2  A    between atoms: C_4  and  C_5
REMARK                            x       y       z     vdW  Elec       q    Type
REMARK                         _______ _______ _______ _____ _____    ______ ____
ROOT
ATOM      1  N   UNL     1     -11.777 -13.686 -17.315  0.00  0.00    -0.354 N 
ATOM      2  N   UNL     1     -11.869 -11.491 -18.048  0.00  0.00    -0.372 N 
ATOM      3  N   UNL     1     -12.245 -11.936 -15.829  0.00  0.00    -0.372 N 
ATOM      4  C   UNL     1     -11.964 -12.385 -17.057  0.00  0.00    +0.166 C 
ATOM      5  H   UNL     1     -11.596 -13.965 -18.272  0.00  0.00    +0.163 HD
ATOM      6  H   UNL     1     -12.001 -10.502 -17.883  0.00  0.00    +0.159 HD
ATOM      7  H   UNL     1     -11.643 -11.768 -18.996  0.00  0.00    +0.159 HD
ATOM      8  H   UNL     1     -12.337 -12.560 -15.038  0.00  0.00    +0.159 HD
ATOM      9  H   UNL     1     -12.393 -10.951 -15.646  0.00  0.00    +0.159 HD
ENDROOT
BRANCH   1  10
ATOM     10  C   UNL     1     -11.805 -14.734 -16.297  0.00  0.00    +0.151 C 
BRANCH  10  11
ATOM     11  C   UNL     1     -10.863 -15.835 -16.698  0.00  0.00    -0.028 A 
ATOM     12  C   UNL     1      -9.858 -16.268 -15.821  0.00  0.00    +0.005 A 
ATOM     13  C   UNL     1     -10.974 -16.454 -17.953  0.00  0.00    +0.005 A 
ATOM     14  C   UNL     1      -9.002 -17.311 -16.182  0.00  0.00    +0.000 A 
ATOM     15  C   UNL     1     -10.116 -17.495 -18.310  0.00  0.00    +0.000 A 
ATOM     16  C   UNL     1      -9.132 -17.924 -17.423  0.00  0.00    +0.000 A 
ENDBRANCH  10  11
ENDBRANCH   1  10
TORSDOF 2
ENDMDL
MODEL 6
REMARK VINA RESULT:    -4.208     46.071     47.476
REMARK INTER + INTRA:          -4.863
REMARK INTER:                  -4.704
REMARK INTRA:                  -0.159
REMARK UNBOUND:                -0.163
REMARK  Name = 1550473
REMARK  2 active torsions:
REMARK  status: ('A' for Active; 'I' for Inactive)
REMARK    1  A    between atoms: N_1  and  C_4
REMARK    2  A    between atoms: C_4  and  C_5
REMARK                            x       y       z     vdW  Elec       q    Type
REMARK                         _______ _______ _______ _____ _____    ______ ____
ROOT
ATOM      1  N   UNL     1     -12.601 -12.786 -15.860  0.00  0.00    -0.354 N 
ATOM      2  N   UNL     1     -12.119 -10.561 -15.430  0.00  0.00    -0.372 N 
ATOM      3  N   UNL     1     -11.494 -11.463 -17.446  0.00  0.00    -0.372 N 
ATOM      4  C   UNL     1     -12.073 -11.618 -16.251  0.00  0.00    +0.166 C 
ATOM      5  H   UNL     1     -12.998 -12.847 -14.929  0.00  0.00    +0.163 HD
ATOM      6  H   UNL     1     -11.732  -9.667 -15.699  0.00  0.00    +0.159 HD
ATOM      7  H   UNL     1     -12.558 -10.613 -14.519  0.00  0.00    +0.159 HD
ATOM      8  H   UNL     1     -11.422 -12.223 -18.109  0.00  0.00    +0.159 HD
ATOM      9  H   UNL     1     -11.091 -10.578 -17.729  0.00  0.00    +0.159 HD
ENDROOT
BRANCH   1  10
ATOM     10  C   UNL     1     -12.651 -13.982 -16.698  0.00  0.00    +0.151 C 
BRANCH  10  11
ATOM     11  C   UNL     1     -11.725 -15.021 -16.127  0.00  0.00    -0.028 A 
ATOM     12  C   UNL     1     -10.625 -15.478 -16.868  0.00  0.00    +0.005 A 
ATOM     13  C   UNL     1     -11.940 -15.548 -14.845  0.00  0.00    +0.005 A 
ATOM     14  C   UNL     1      -9.748 -16.421 -16.326  0.00  0.00    +0.000 A 
ATOM     15  C   UNL     1     -11.062 -16.490 -14.308  0.00  0.00    +0.000 A 
ATOM     16  C   UNL     1      -9.965 -16.924 -15.048  0.00  0.00    +0.000 A 
ENDBRANCH  10  11
ENDBRANCH   1  10
TORSDOF 2
ENDMDL
MODEL 7
REMARK VINA RESULT:    -4.018      8.329      9.621
REMARK INTER + INTRA:          -4.650
REMARK INTER:                  -4.473
REMARK INTRA:                  -0.178
REMARK UNBOUND:                -0.163
REMARK  Name = 1550473
REMARK  2 active torsions:
REMARK  status: ('A' for Active; 'I' for Inactive)
REMARK    1  A    between atoms: N_1  and  C_4
REMARK    2  A    between atoms: C_4  and  C_5
REMARK                            x       y       z     vdW  Elec       q    Type
REMARK                         _______ _______ _______ _____ _____    ______ ____
ROOT
ATOM      1  N   UNL     1       3.300   8.110  10.206  0.00  0.00    -0.354 N 
ATOM      2  N   UNL     1       5.084   6.653  10.446  0.00  0.00    -0.372 N 
ATOM      3  N   UNL     1       5.502   8.905  10.312  0.00  0.00    -0.372 N 
ATOM      4  C   UNL     1       4.619   7.901  10.319  0.00  0.00    +0.166 C 
ATOM      5  H   UNL     1       2.685   7.305  10.188  0.00  0.00    +0.163 HD
ATOM      6  H   UNL     1       6.073   6.465  10.538  0.00  0.00    +0.159 HD
ATOM      7  H   UNL     1       4.464   5.853  10.474  0.00  0.00    +0.159 HD
ATOM      8  H   UNL     1       5.216   9.870  10.214  0.00  0.00    +0.159 HD
ATOM      9  H   UNL     1       6.497   8.736  10.391  0.00  0.00    +0.159 HD
ENDROOT
BRANCH   1  10
ATOM     10  C   UNL     1       2.687   9.434  10.117  0.00  0.00    +0.151 C 
BRANCH  10  11
ATOM     11  C   UNL     1       2.031   9.761  11.430  0.00  0.00    -0.028 A 
ATOM     12  C   UNL     1       0.745   9.284  11.722  0.00  0.00    +0.005 A 
ATOM     13  C   UNL     1       2.694  10.542  12.389  0.00  0.00    +0.005 A 
ATOM     14  C   UNL     1       0.148   9.562  12.954  0.00  0.00    +0.000 A 
ATOM     15  C   UNL     1       2.094  10.819  13.617  0.00  0.00    +0.000 A 
ATOM     16  C   UNL     1       0.822  10.327  13.900  0.00  0.00    +0.000 A 
ENDBRANCH  10  11
ENDBRANCH   1  10
TORSDOF 2
ENDMDL
MODEL 8
REMARK VINA RESULT:    -3.976      4.025      5.254
REMARK INTER + INTRA:          -4.603
REMARK INTER:                  -4.507
REMARK INTRA:                  -0.097
REMARK UNBOUND:                -0.163
REMARK  Name = 1550473
REMARK  2 active torsions:
REMARK  status: ('A' for Active; 'I' for Inactive)
REMARK    1  A    between atoms: N_1  and  C_4
REMARK    2  A    between atoms: C_4  and  C_5
REMARK                            x       y       z     vdW  Elec       q    Type
REMARK                         _______ _______ _______ _____ _____    ______ ____
ROOT
ATOM      1  N   UNL     1       2.715  11.153  13.711  0.00  0.00    -0.354 N 
ATOM      2  N   UNL     1       0.815  10.705  12.465  0.00  0.00    -0.372 N 
ATOM      3  N   UNL     1       0.741  10.423  14.741  0.00  0.00    -0.372 N 
ATOM      4  C   UNL     1       1.435  10.762  13.649  0.00  0.00    +0.166 C 
ATOM      5  H   UNL     1       3.195  11.368  12.844  0.00  0.00    +0.163 HD
ATOM      6  H   UNL     1      -0.151  10.417  12.387  0.00  0.00    +0.159 HD
ATOM      7  H   UNL     1       1.283  10.965  11.605  0.00  0.00    +0.159 HD
ATOM      8  H   UNL     1       1.153  10.439  15.664  0.00  0.00    +0.159 HD
ATOM      9  H   UNL     1      -0.224  10.121  14.682  0.00  0.00    +0.159 HD
ENDROOT
BRANCH   1  10
ATOM     10  C   UNL     1       3.466  11.300  14.956  0.00  0.00    +0.151 C 
BRANCH  10  11
ATOM     11  C   UNL     1       3.759  12.758  15.184  0.00  0.00    -0.028 A 
ATOM     12  C   UNL     1       4.676  13.155  16.168  0.00  0.00    +0.005 A 
ATOM     13  C   UNL     1       3.126  13.746  14.414  0.00  0.00    +0.005 A 
ATOM     14  C   UNL     1       4.970  14.507  16.359  0.00  0.00    +0.000 A 
ATOM     15  C   UNL     1       3.423  15.095  14.609  0.00  0.00    +0.000 A 
ATOM     16  C   UNL     1       4.346  15.475  15.579  0.00  0.00    +0.000 A 
ENDBRANCH  10  11
ENDBRANCH   1  10
TORSDOF 2
ENDMDL
MODEL 9
REMARK VINA RESULT:    -3.906     47.578     48.571
REMARK INTER + INTRA:          -4.525
REMARK INTER:                  -4.393
REMARK INTRA:                  -0.132
REMARK UNBOUND:                -0.163
REMARK  Name = 1550473
REMARK  2 active torsions:
REMARK  status: ('A' for Active; 'I' for Inactive)
REMARK    1  A    between atoms: N_1  and  C_4
REMARK    2  A    between atoms: C_4  and  C_5
REMARK                            x       y       z     vdW  Elec       q    Type
REMARK                         _______ _______ _______ _____ _____    ______ ____
ROOT
ATOM      1  N   UNL     1      -9.958 -16.701 -17.007  0.00  0.00    -0.354 N 
ATOM      2  N   UNL     1      -9.930 -17.369 -19.225  0.00  0.00    -0.372 N 
ATOM      3  N   UNL     1     -11.905 -16.645 -18.309  0.00  0.00    -0.372 N 
ATOM      4  C   UNL     1     -10.600 -16.900 -18.166  0.00  0.00    +0.166 C 
ATOM      5  H   UNL     1      -8.975 -16.942 -16.955  0.00  0.00    +0.163 HD
ATOM      6  H   UNL     1     -10.387 -17.526 -20.113  0.00  0.00    +0.159 HD
ATOM      7  H   UNL     1      -8.937 -17.566 -19.183  0.00  0.00    +0.159 HD
ATOM      8  H   UNL     1     -12.470 -16.296 -17.547  0.00  0.00    +0.159 HD
ATOM      9  H   UNL     1     -12.384 -16.807 -19.187  0.00  0.00    +0.159 HD
ENDROOT
BRANCH   1  10
ATOM     10  C   UNL     1     -10.584 -16.144 -15.810  0.00  0.00    +0.151 C 
BRANCH  10  11
ATOM     11  C   UNL     1     -10.123 -16.920 -14.608  0.00  0.00    -0.028 A 
ATOM     12  C   UNL     1     -10.905 -16.962 -13.444  0.00  0.00    +0.005 A 
ATOM     13  C   UNL     1      -8.908 -17.622 -14.628  0.00  0.00    +0.005 A 
ATOM     14  C   UNL     1     -10.492 -17.708 -12.338  0.00  0.00    +0.000 A 
ATOM     15  C   UNL     1      -8.498 -18.365 -13.520  0.00  0.00    +0.000 A 
ATOM     16  C   UNL     1      -9.292 -18.410 -12.377  0.00  0.00    +0.000 A 
ENDBRANCH  10  11
ENDBRANCH   1  10
TORSDOF 2
ENDMDL
