MODEL 1
REMARK VINA RESULT:    -4.668      0.000      0.000
REMARK INTER + INTRA:          -5.395
REMARK INTER:                  -5.214
REMARK INTRA:                  -0.181
REMARK UNBOUND:                -0.181
REMARK  Name = 1550473
REMARK  2 active torsions:
REMARK  status: ('A' for Active; 'I' for Inactive)
REMARK    1  A    between atoms: N_1  and  C_4
REMARK    2  A    between atoms: C_4  and  C_5
REMARK                            x       y       z     vdW  Elec       q    Type
REMARK                         _______ _______ _______ _____ _____    ______ ____
ROOT
ATOM      1  N   UNL     1       2.451  -4.375   3.385  0.00  0.00    -0.354 N 
ATOM      2  N   UNL     1       3.907  -5.430   1.926  0.00  0.00    -0.372 N 
ATOM      3  N   UNL     1       1.781  -6.259   2.164  0.00  0.00    -0.372 N 
ATOM      4  C   UNL     1       2.701  -5.350   2.501  0.00  0.00    +0.166 C 
ATOM      5  H   UNL     1       3.200  -3.734   3.621  0.00  0.00    +0.163 HD
ATOM      6  H   UNL     1       4.124  -6.153   1.253  0.00  0.00    +0.159 HD
ATOM      7  H   UNL     1       4.640  -4.762   2.129  0.00  0.00    +0.159 HD
ATOM      8  H   UNL     1       0.853  -6.257   2.566  0.00  0.00    +0.159 HD
ATOM      9  H   UNL     1       1.983  -6.997   1.501  0.00  0.00    +0.159 HD
ENDROOT
BRANCH   1  10
ATOM     10  C   UNL     1       1.154  -4.166   4.027  0.00  0.00    +0.151 C 
BRANCH  10  11
ATOM     11  C   UNL     1       0.441  -3.035   3.339  0.00  0.00    -0.028 A 
ATOM     12  C   UNL     1      -0.494  -3.294   2.326  0.00  0.00    +0.005 A 
ATOM     13  C   UNL     1       0.692  -1.702   3.699  0.00  0.00    +0.005 A 
ATOM     14  C   UNL     1      -1.178  -2.245   1.707  0.00  0.00    +0.000 A 
ATOM     15  C   UNL     1       0.007  -0.658   3.078  0.00  0.00    +0.000 A 
ATOM     16  C   UNL     1      -0.930  -0.930   2.084  0.00  0.00    +0.000 A 
ENDBRANCH  10  11
ENDBRANCH   1  10
TORSDOF 2
ENDMDL
MODEL 2
REMARK VINA RESULT:    -4.432     16.500     18.003
REMARK INTER + INTRA:          -5.131
REMARK INTER:                  -4.981
REMARK INTRA:                  -0.150
REMARK UNBOUND:                -0.181
REMARK  Name = 1550473
REMARK  2 active torsions:
REMARK  status: ('A' for Active; 'I' for Inactive)
REMARK    1  A    between atoms: N_1  and  C_4
REMARK    2  A    between atoms: C_4  and  C_5
REMARK                            x       y       z     vdW  Elec       q    Type
REMARK                         _______ _______ _______ _____ _____    ______ ____
ROOT
ATOM      1  N   UNL     1      -9.415   2.900  -8.042  0.00  0.00    -0.354 N 
ATOM      2  N   UNL     1      -8.741   0.832  -7.246  0.00  0.00    -0.372 N 
ATOM      3  N   UNL     1     -10.731   0.991  -8.379  0.00  0.00    -0.372 N 
ATOM      4  C   UNL     1      -9.636   1.587  -7.895  0.00  0.00    +0.166 C 
ATOM      5  H   UNL     1      -8.580   3.297  -7.626  0.00  0.00    +0.163 HD
ATOM      6  H   UNL     1      -8.880  -0.162  -7.123  0.00  0.00    +0.159 HD
ATOM      7  H   UNL     1      -7.886   1.223  -6.871  0.00  0.00    +0.159 HD
ATOM      8  H   UNL     1     -11.447   1.506  -8.873  0.00  0.00    +0.159 HD
ATOM      9  H   UNL     1     -10.893  -0.001  -8.255  0.00  0.00    +0.159 HD
ENDROOT
BRANCH   1  10
ATOM     10  C   UNL     1     -10.300   3.801  -8.778  0.00  0.00    +0.151 C 
BRANCH  10  11
ATOM     11  C   UNL     1      -9.902   3.803 -10.229  0.00  0.00    -0.028 A 
ATOM     12  C   UNL     1      -8.570   4.033 -10.602  0.00  0.00    +0.005 A 
ATOM     13  C   UNL     1     -10.853   3.570 -11.234  0.00  0.00    +0.005 A 
ATOM     14  C   UNL     1      -8.195   4.005 -11.947  0.00  0.00    +0.000 A 
ATOM     15  C   UNL     1     -10.475   3.544 -12.577  0.00  0.00    +0.000 A 
ATOM     16  C   UNL     1      -9.145   3.759 -12.932  0.00  0.00    +0.000 A 
ENDBRANCH  10  11
ENDBRANCH   1  10
TORSDOF 2
ENDMDL
MODEL 3
REMARK VINA RESULT:    -4.304     18.864     20.262
REMARK INTER + INTRA:          -4.988
REMARK INTER:                  -4.865
REMARK INTRA:                  -0.123
REMARK UNBOUND:                -0.181
REMARK  Name = 1550473
REMARK  2 active torsions:
REMARK  status: ('A' for Active; 'I' for Inactive)
REMARK    1  A    between atoms: N_1  and  C_4
REMARK    2  A    between atoms: C_4  and  C_5
REMARK                            x       y       z     vdW  Elec       q    Type
REMARK                         _______ _______ _______ _____ _____    ______ ____
ROOT
ATOM      1  N   UNL     1     -10.258   2.484 -13.197  0.00  0.00    -0.354 N 
ATOM      2  N   UNL     1      -9.937   0.494 -14.339  0.00  0.00    -0.372 N 
ATOM      3  N   UNL     1     -11.605   1.911 -15.027  0.00  0.00    -0.372 N 
ATOM      4  C   UNL     1     -10.604   1.644 -14.181  0.00  0.00    +0.166 C 
ATOM      5  H   UNL     1      -9.509   2.209 -12.571  0.00  0.00    +0.163 HD
ATOM      6  H   UNL     1     -10.174  -0.158 -15.074  0.00  0.00    +0.159 HD
ATOM      7  H   UNL     1      -9.160   0.243 -13.740  0.00  0.00    +0.159 HD
ATOM      8  H   UNL     1     -12.152   2.759 -14.958  0.00  0.00    +0.159 HD
ATOM      9  H   UNL     1     -11.865   1.266 -15.762  0.00  0.00    +0.159 HD
ENDROOT
BRANCH   1  10
ATOM     10  C   UNL     1     -10.885   3.785 -12.974  0.00  0.00    +0.151 C 
BRANCH  10  11
ATOM     11  C   UNL     1      -9.996   4.613 -12.088  0.00  0.00    -0.028 A 
ATOM     12  C   UNL     1     -10.234   5.986 -11.924  0.00  0.00    +0.005 A 
ATOM     13  C   UNL     1      -8.918   4.030 -11.404  0.00  0.00    +0.005 A 
ATOM     14  C   UNL     1      -9.426   6.750 -11.078  0.00  0.00    +0.000 A 
ATOM     15  C   UNL     1      -8.113   4.797 -10.561  0.00  0.00    +0.000 A 
ATOM     16  C   UNL     1      -8.369   6.156 -10.396  0.00  0.00    +0.000 A 
ENDBRANCH  10  11
ENDBRANCH   1  10
TORSDOF 2
ENDMDL
MODEL 4
REMARK VINA RESULT:    -4.126     12.538     13.910
REMARK INTER + INTRA:          -4.790
REMARK INTER:                  -4.667
REMARK INTRA:                  -0.123
REMARK UNBOUND:                -0.181
REMARK  Name = 1550473
REMARK  2 active torsions:
REMARK  status: ('A' for Active; 'I' for Inactive)
REMARK    1  A    between atoms: N_1  and  C_4
REMARK    2  A    between atoms: C_4  and  C_5
REMARK                            x       y       z     vdW  Elec       q    Type
REMARK                         _______ _______ _______ _____ _____    ______ ____
ROOT
ATOM      1  N   UNL     1       5.533   9.664  -0.864  0.00  0.00    -0.354 N 
ATOM      2  N   UNL     1       4.937  11.650  -1.895  0.00  0.00    -0.372 N 
ATOM      3  N   UNL     1       6.158  10.110  -3.079  0.00  0.00    -0.372 N 
ATOM      4  C   UNL     1       5.548  10.461  -1.941  0.00  0.00    +0.166 C 
ATOM      5  H   UNL     1       5.080  10.001  -0.023  0.00  0.00    +0.163 HD
ATOM      6  H   UNL     1       4.928  12.271  -2.693  0.00  0.00    +0.159 HD
ATOM      7  H   UNL     1       4.445  11.965  -1.068  0.00  0.00    +0.159 HD
ATOM      8  H   UNL     1       6.643   9.228  -3.176  0.00  0.00    +0.159 HD
ATOM      9  H   UNL     1       6.170  10.722  -3.884  0.00  0.00    +0.159 HD
ENDROOT
BRANCH   1  10
ATOM     10  C   UNL     1       6.123   8.327  -0.828  0.00  0.00    +0.151 C 
BRANCH  10  11
ATOM     11  C   UNL     1       6.141   7.837   0.594  0.00  0.00    -0.028 A 
ATOM     12  C   UNL     1       6.388   6.486   0.878  0.00  0.00    +0.005 A 
ATOM     13  C   UNL     1       5.917   8.719   1.662  0.00  0.00    +0.005 A 
ATOM     14  C   UNL     1       6.434   6.035   2.199  0.00  0.00    +0.000 A 
ATOM     15  C   UNL     1       5.963   8.265   2.980  0.00  0.00    +0.000 A 
ATOM     16  C   UNL     1       6.224   6.924   3.248  0.00  0.00    +0.000 A 
ENDBRANCH  10  11
ENDBRANCH   1  10
TORSDOF 2
ENDMDL
MODEL 5
REMARK VINA RESULT:    -4.069     17.930     19.002
REMARK INTER + INTRA:          -4.726
REMARK INTER:                  -4.579
REMARK INTRA:                  -0.146
REMARK UNBOUND:                -0.181
REMARK  Name = 1550473
REMARK  2 active torsions:
REMARK  status: ('A' for Active; 'I' for Inactive)
REMARK    1  A    between atoms: N_1  and  C_4
REMARK    2  A    between atoms: C_4  and  C_5
REMARK                            x       y       z     vdW  Elec       q    Type
REMARK                         _______ _______ _______ _____ _____    ______ ____
ROOT
ATOM      1  N   UNL     1      14.260   9.491   7.194  0.00  0.00    -0.354 N 
ATOM      2  N   UNL     1      16.449   9.783   7.889  0.00  0.00    -0.372 N 
ATOM      3  N   UNL     1      16.013   9.603   5.643  0.00  0.00    -0.372 N 
ATOM      4  C   UNL     1      15.560   9.624   6.902  0.00  0.00    +0.166 C 
ATOM      5  H   UNL     1      13.984   9.484   8.170  0.00  0.00    +0.163 HD
ATOM      6  H   UNL     1      17.437   9.890   7.699  0.00  0.00    +0.159 HD
ATOM      7  H   UNL     1      16.166   9.823   8.860  0.00  0.00    +0.159 HD
ATOM      8  H   UNL     1      15.394   9.480   4.853  0.00  0.00    +0.159 HD
ATOM      9  H   UNL     1      16.999   9.696   5.433  0.00  0.00    +0.159 HD
ENDROOT
BRANCH   1  10
ATOM     10  C   UNL     1      13.204   9.365   6.191  0.00  0.00    +0.151 C 
BRANCH  10  11
ATOM     11  C   UNL     1      12.227  10.495   6.361  0.00  0.00    -0.028 A 
ATOM     12  C   UNL     1      10.867  10.233   6.583  0.00  0.00    +0.005 A 
ATOM     13  C   UNL     1      12.656  11.831   6.309  0.00  0.00    +0.005 A 
ATOM     14  C   UNL     1       9.964  11.282   6.771  0.00  0.00    +0.000 A 
ATOM     15  C   UNL     1      11.751  12.875   6.497  0.00  0.00    +0.000 A 
ATOM     16  C   UNL     1      10.405  12.600   6.731  0.00  0.00    +0.000 A 
ENDBRANCH  10  11
ENDBRANCH   1  10
TORSDOF 2
ENDMDL
MODEL 6
REMARK VINA RESULT:    -4.067     16.937     18.013
REMARK INTER + INTRA:          -4.723
REMARK INTER:                  -4.606
REMARK INTRA:                  -0.117
REMARK UNBOUND:                -0.181
REMARK  Name = 1550473
REMARK  2 active torsions:
REMARK  status: ('A' for Active; 'I' for Inactive)
REMARK    1  A    between atoms: N_1  and  C_4
REMARK    2  A    between atoms: C_4  and  C_5
REMARK                            x       y       z     vdW  Elec       q    Type
REMARK                         _______ _______ _______ _____ _____    ______ ____
ROOT
ATOM      1  N   UNL     1      -5.551  11.420   8.207  0.00  0.00    -0.354 N 
ATOM      2  N   UNL     1      -6.877  11.680  10.088  0.00  0.00    -0.372 N 
ATOM      3  N   UNL     1      -7.724  12.282   8.042  0.00  0.00    -0.372 N 
ATOM      4  C   UNL     1      -6.711  11.794   8.764  0.00  0.00    +0.166 C 
ATOM      5  H   UNL     1      -4.811  11.086   8.813  0.00  0.00    +0.163 HD
ATOM      6  H   UNL     1      -7.742  11.950  10.536  0.00  0.00    +0.159 HD
ATOM      7  H   UNL     1      -6.152  11.302  10.686  0.00  0.00    +0.159 HD
ATOM      8  H   UNL     1      -7.659  12.399   7.039  0.00  0.00    +0.159 HD
ATOM      9  H   UNL     1      -8.593  12.569   8.474  0.00  0.00    +0.159 HD
ENDROOT
BRANCH   1  10
ATOM     10  C   UNL     1      -5.287  11.453   6.769  0.00  0.00    +0.151 C 
BRANCH  10  11
ATOM     11  C   UNL     1      -4.236  12.491   6.487  0.00  0.00    -0.028 A 
ATOM     12  C   UNL     1      -3.760  12.685   5.182  0.00  0.00    +0.005 A 
ATOM     13  C   UNL     1      -3.717  13.288   7.519  0.00  0.00    +0.005 A 
ATOM     14  C   UNL     1      -2.805  13.670   4.914  0.00  0.00    +0.000 A 
ATOM     15  C   UNL     1      -2.764  14.269   7.247  0.00  0.00    +0.000 A 
ATOM     16  C   UNL     1      -2.310  14.461   5.945  0.00  0.00    +0.000 A 
ENDBRANCH  10  11
ENDBRANCH   1  10
TORSDOF 2
ENDMDL
MODEL 7
REMARK VINA RESULT:    -4.041     19.176     20.785
REMARK INTER + INTRA:          -4.694
REMARK INTER:                  -4.512
REMARK INTRA:                  -0.182
REMARK UNBOUND:                -0.181
REMARK  Name = 1550473
REMARK  2 active torsions:
REMARK  status: ('A' for Active; 'I' for Inactive)
REMARK    1  A    between atoms: N_1  and  C_4
REMARK    2  A    between atoms: C_4  and  C_5
REMARK                            x       y       z     vdW  Elec       q    Type
REMARK                         _______ _______ _______ _____ _____    ______ ____
ROOT
ATOM      1  N   UNL     1     -12.701   2.656 -10.178  0.00  0.00    -0.354 N 
ATOM      2  N   UNL     1     -12.584   1.476  -8.189  0.00  0.00    -0.372 N 
ATOM      3  N   UNL     1     -14.283   1.007  -9.658  0.00  0.00    -0.372 N 
ATOM      4  C   UNL     1     -13.193   1.720  -9.356  0.00  0.00    +0.166 C 
ATOM      5  H   UNL     1     -11.890   3.183  -9.877  0.00  0.00    +0.163 HD
ATOM      6  H   UNL     1     -12.930   0.773  -7.549  0.00  0.00    +0.159 HD
ATOM      7  H   UNL     1     -11.746   1.972  -7.911  0.00  0.00    +0.159 HD
ATOM      8  H   UNL     1     -14.792   1.146 -10.521  0.00  0.00    +0.159 HD
ATOM      9  H   UNL     1     -14.651   0.307  -9.026  0.00  0.00    +0.159 HD
ENDROOT
BRANCH   1  10
ATOM     10  C   UNL     1     -13.258   2.961 -11.495  0.00  0.00    +0.151 C 
BRANCH  10  11
ATOM     11  C   UNL     1     -12.427   2.281 -12.549  0.00  0.00    -0.028 A 
ATOM     12  C   UNL     1     -11.234   2.863 -13.000  0.00  0.00    +0.005 A 
ATOM     13  C   UNL     1     -12.826   1.052 -13.095  0.00  0.00    +0.005 A 
ATOM     14  C   UNL     1     -10.447   2.217 -13.956  0.00  0.00    +0.000 A 
ATOM     15  C   UNL     1     -12.038   0.410 -14.051  0.00  0.00    +0.000 A 
ATOM     16  C   UNL     1     -10.847   0.992 -14.479  0.00  0.00    +0.000 A 
ENDBRANCH  10  11
ENDBRANCH   1  10
TORSDOF 2
ENDMDL
MODEL 8
REMARK VINA RESULT:    -4.004     18.260     19.714
REMARK INTER + INTRA:          -4.654
REMARK INTER:                  -4.526
REMARK INTRA:                  -0.128
REMARK UNBOUND:                -0.181
REMARK  Name = 1550473
REMARK  2 active torsions:
REMARK  status: ('A' for Active; 'I' for Inactive)
REMARK    1  A    between atoms: N_1  and  C_4
REMARK    2  A    between atoms: C_4  and  C_5
REMARK                            x       y       z     vdW  Elec       q    Type
REMARK                         _______ _______ _______ _____ _____    ______ ____
ROOT
ATOM      1  N   UNL     1     -12.574   2.048 -10.598  0.00  0.00    -0.354 N 
ATOM      2  N   UNL     1     -14.248   0.950  -9.434  0.00  0.00    -0.372 N 
ATOM      3  N   UNL     1     -14.825   2.640 -10.875  0.00  0.00    -0.372 N 
ATOM      4  C   UNL     1     -13.873   1.889 -10.311  0.00  0.00    +0.166 C 
ATOM      5  H   UNL     1     -11.900   1.467 -10.114  0.00  0.00    +0.163 HD
ATOM      6  H   UNL     1     -15.221   0.804  -9.200  0.00  0.00    +0.159 HD
ATOM      7  H   UNL     1     -13.576   0.340  -8.986  0.00  0.00    +0.159 HD
ATOM      8  H   UNL     1     -14.607   3.370 -11.541  0.00  0.00    +0.159 HD
ATOM      9  H   UNL     1     -15.803   2.517 -10.645  0.00  0.00    +0.159 HD
ENDROOT
BRANCH   1  10
ATOM     10  C   UNL     1     -12.065   3.005 -11.579  0.00  0.00    +0.151 C 
BRANCH  10  11
ATOM     11  C   UNL     1     -10.679   3.428 -11.179  0.00  0.00    -0.028 A 
ATOM     12  C   UNL     1     -10.323   3.513  -9.825  0.00  0.00    +0.005 A 
ATOM     13  C   UNL     1      -9.714   3.740 -12.150  0.00  0.00    +0.005 A 
ATOM     14  C   UNL     1      -9.026   3.876  -9.454  0.00  0.00    +0.000 A 
ATOM     15  C   UNL     1      -8.421   4.103 -11.775  0.00  0.00    +0.000 A 
ATOM     16  C   UNL     1      -8.077   4.169 -10.427  0.00  0.00    +0.000 A 
ENDBRANCH  10  11
ENDBRANCH   1  10
TORSDOF 2
ENDMDL
MODEL 9
REMARK VINA RESULT:    -3.961     17.439     18.696
REMARK INTER + INTRA:          -4.605
REMARK INTER:                  -4.489
REMARK INTRA:                  -0.116
REMARK UNBOUND:                -0.181
REMARK  Name = 1550473
REMARK  2 active torsions:
REMARK  status: ('A' for Active; 'I' for Inactive)
REMARK    1  A    between atoms: N_1  and  C_4
REMARK    2  A    between atoms: C_4  and  C_5
REMARK                            x       y       z     vdW  Elec       q    Type
REMARK                         _______ _______ _______ _____ _____    ______ ____
ROOT
ATOM      1  N   UNL     1      -1.858  14.794   8.259  0.00  0.00    -0.354 N 
ATOM      2  N   UNL     1      -0.711  15.441  10.164  0.00  0.00    -0.372 N 
ATOM      3  N   UNL     1      -0.301  16.544   8.194  0.00  0.00    -0.372 N 
ATOM      4  C   UNL     1      -0.963  15.591   8.858  0.00  0.00    +0.166 C 
ATOM      5  H   UNL     1      -2.304  14.071   8.811  0.00  0.00    +0.163 HD
ATOM      6  H   UNL     1      -0.044  16.030  10.644  0.00  0.00    +0.159 HD
ATOM      7  H   UNL     1      -1.192  14.747  10.723  0.00  0.00    +0.159 HD
ATOM      8  H   UNL     1      -0.441  16.704   7.206  0.00  0.00    +0.159 HD
ATOM      9  H   UNL     1       0.380  17.136   8.655  0.00  0.00    +0.159 HD
ENDROOT
BRANCH   1  10
ATOM     10  C   UNL     1      -2.244  14.910   6.853  0.00  0.00    +0.151 C 
BRANCH  10  11
ATOM     11  C   UNL     1      -3.175  13.781   6.505  0.00  0.00    -0.028 A 
ATOM     12  C   UNL     1      -3.222  13.275   5.198  0.00  0.00    +0.005 A 
ATOM     13  C   UNL     1      -4.007  13.209   7.479  0.00  0.00    +0.005 A 
ATOM     14  C   UNL     1      -4.064  12.207   4.880  0.00  0.00    +0.000 A 
ATOM     15  C   UNL     1      -4.847  12.143   7.158  0.00  0.00    +0.000 A 
ATOM     16  C   UNL     1      -4.873  11.640   5.859  0.00  0.00    +0.000 A 
ENDBRANCH  10  11
ENDBRANCH   1  10
TORSDOF 2
ENDMDL
