MODEL 1
REMARK VINA RESULT:    -4.872      0.000      0.000
REMARK INTER + INTRA:          -5.564
REMARK INTER:                  -5.442
REMARK INTRA:                  -0.122
REMARK UNBOUND:                -0.122
REMARK  Name = 1550473
REMARK  2 active torsions:
REMARK  status: ('A' for Active; 'I' for Inactive)
REMARK    1  A    between atoms: N_1  and  C_4
REMARK    2  A    between atoms: C_4  and  C_5
REMARK                            x       y       z     vdW  Elec       q    Type
REMARK                         _______ _______ _______ _____ _____    ______ ____
ROOT
ATOM      1  N   UNL     1      -1.927  10.428   1.570  0.00  0.00    -0.354 N 
ATOM      2  N   UNL     1      -1.001   8.893   3.036  0.00  0.00    -0.372 N 
ATOM      3  N   UNL     1      -3.283   9.122   2.966  0.00  0.00    -0.372 N 
ATOM      4  C   UNL     1      -2.079   9.491   2.515  0.00  0.00    +0.166 C 
ATOM      5  H   UNL     1      -0.986  10.684   1.293  0.00  0.00    +0.163 HD
ATOM      6  H   UNL     1      -1.084   8.180   3.748  0.00  0.00    +0.159 HD
ATOM      7  H   UNL     1      -0.064   9.119   2.725  0.00  0.00    +0.159 HD
ATOM      8  H   UNL     1      -4.136   9.539   2.617  0.00  0.00    +0.159 HD
ATOM      9  H   UNL     1      -3.386   8.418   3.686  0.00  0.00    +0.159 HD
ENDROOT
BRANCH   1  10
ATOM     10  C   UNL     1      -3.038  11.101   0.900  0.00  0.00    +0.151 C 
BRANCH  10  11
ATOM     11  C   UNL     1      -2.538  12.377   0.280  0.00  0.00    -0.028 A 
ATOM     12  C   UNL     1      -3.435  13.394  -0.077  0.00  0.00    +0.005 A 
ATOM     13  C   UNL     1      -1.168  12.577   0.053  0.00  0.00    +0.005 A 
ATOM     14  C   UNL     1      -2.968  14.591  -0.625  0.00  0.00    +0.000 A 
ATOM     15  C   UNL     1      -0.705  13.773  -0.495  0.00  0.00    +0.000 A 
ATOM     16  C   UNL     1      -1.606  14.781  -0.832  0.00  0.00    +0.000 A 
ENDBRANCH  10  11
ENDBRANCH   1  10
TORSDOF 2
ENDMDL
MODEL 2
REMARK VINA RESULT:    -4.633      1.970      3.262
REMARK INTER + INTRA:          -5.296
REMARK INTER:                  -5.119
REMARK INTRA:                  -0.177
REMARK UNBOUND:                -0.122
REMARK  Name = 1550473
REMARK  2 active torsions:
REMARK  status: ('A' for Active; 'I' for Inactive)
REMARK    1  A    between atoms: N_1  and  C_4
REMARK    2  A    between atoms: C_4  and  C_5
REMARK                            x       y       z     vdW  Elec       q    Type
REMARK                         _______ _______ _______ _____ _____    ______ ____
ROOT
ATOM      1  N   UNL     1      -3.950   9.608   3.513  0.00  0.00    -0.354 N 
ATOM      2  N   UNL     1      -5.058  10.194   5.460  0.00  0.00    -0.372 N 
ATOM      3  N   UNL     1      -6.185  10.310   3.464  0.00  0.00    -0.372 N 
ATOM      4  C   UNL     1      -5.059  10.035   4.131  0.00  0.00    +0.166 C 
ATOM      5  H   UNL     1      -3.120   9.445   4.071  0.00  0.00    +0.163 HD
ATOM      6  H   UNL     1      -5.881  10.511   5.954  0.00  0.00    +0.159 HD
ATOM      7  H   UNL     1      -4.241   9.987   6.021  0.00  0.00    +0.159 HD
ATOM      8  H   UNL     1      -6.249  10.216   2.460  0.00  0.00    +0.159 HD
ATOM      9  H   UNL     1      -7.016  10.640   3.940  0.00  0.00    +0.159 HD
ENDROOT
BRANCH   1  10
ATOM     10  C   UNL     1      -3.862   9.350   2.076  0.00  0.00    +0.151 C 
BRANCH  10  11
ATOM     11  C   UNL     1      -3.066  10.449   1.428  0.00  0.00    -0.028 A 
ATOM     12  C   UNL     1      -1.664  10.410   1.433  0.00  0.00    +0.005 A 
ATOM     13  C   UNL     1      -3.708  11.528   0.801  0.00  0.00    +0.005 A 
ATOM     14  C   UNL     1      -0.924  11.415   0.804  0.00  0.00    +0.000 A 
ATOM     15  C   UNL     1      -2.966  12.530   0.175  0.00  0.00    +0.000 A 
ATOM     16  C   UNL     1      -1.574  12.472   0.175  0.00  0.00    +0.000 A 
ENDBRANCH  10  11
ENDBRANCH   1  10
TORSDOF 2
ENDMDL
MODEL 3
REMARK VINA RESULT:    -4.528      3.854      5.277
REMARK INTER + INTRA:          -5.179
REMARK INTER:                  -5.021
REMARK INTRA:                  -0.158
REMARK UNBOUND:                -0.122
REMARK  Name = 1550473
REMARK  2 active torsions:
REMARK  status: ('A' for Active; 'I' for Inactive)
REMARK    1  A    between atoms: N_1  and  C_4
REMARK    2  A    between atoms: C_4  and  C_5
REMARK                            x       y       z     vdW  Elec       q    Type
REMARK                         _______ _______ _______ _____ _____    ______ ____
ROOT
ATOM      1  N   UNL     1      -1.523  15.862  -0.331  0.00  0.00    -0.354 N 
ATOM      2  N   UNL     1      -0.878  17.726   0.883  0.00  0.00    -0.372 N 
ATOM      3  N   UNL     1       0.741  16.321   0.065  0.00  0.00    -0.372 N 
ATOM      4  C   UNL     1      -0.555  16.623   0.197  0.00  0.00    +0.166 C 
ATOM      5  H   UNL     1      -2.487  16.129  -0.169  0.00  0.00    +0.163 HD
ATOM      6  H   UNL     1      -0.169  18.321   1.291  0.00  0.00    +0.159 HD
ATOM      7  H   UNL     1      -1.841  18.015   1.004  0.00  0.00    +0.159 HD
ATOM      8  H   UNL     1       1.051  15.499  -0.437  0.00  0.00    +0.159 HD
ATOM      9  H   UNL     1       1.465  16.898   0.475  0.00  0.00    +0.159 HD
ENDROOT
BRANCH   1  10
ATOM     10  C   UNL     1      -1.276  14.671  -1.141  0.00  0.00    +0.151 C 
BRANCH  10  11
ATOM     11  C   UNL     1      -1.744  13.458  -0.386  0.00  0.00    -0.028 A 
ATOM     12  C   UNL     1      -3.112  13.242  -0.162  0.00  0.00    +0.005 A 
ATOM     13  C   UNL     1      -0.826  12.516   0.104  0.00  0.00    +0.005 A 
ATOM     14  C   UNL     1      -3.549  12.100   0.514  0.00  0.00    +0.000 A 
ATOM     15  C   UNL     1      -1.266  11.378   0.778  0.00  0.00    +0.000 A 
ATOM     16  C   UNL     1      -2.628  11.169   0.981  0.00  0.00    +0.000 A 
ENDBRANCH  10  11
ENDBRANCH   1  10
TORSDOF 2
ENDMDL
MODEL 4
REMARK VINA RESULT:    -4.511      2.693      4.199
REMARK INTER + INTRA:          -5.160
REMARK INTER:                  -5.035
REMARK INTRA:                  -0.125
REMARK UNBOUND:                -0.122
REMARK  Name = 1550473
REMARK  2 active torsions:
REMARK  status: ('A' for Active; 'I' for Inactive)
REMARK    1  A    between atoms: N_1  and  C_4
REMARK    2  A    between atoms: C_4  and  C_5
REMARK                            x       y       z     vdW  Elec       q    Type
REMARK                         _______ _______ _______ _____ _____    ______ ____
ROOT
ATOM      1  N   UNL     1      -5.027   9.171   3.668  0.00  0.00    -0.354 N 
ATOM      2  N   UNL     1      -5.954   7.746   5.241  0.00  0.00    -0.372 N 
ATOM      3  N   UNL     1      -7.258   8.477   3.500  0.00  0.00    -0.372 N 
ATOM      4  C   UNL     1      -6.076   8.475   4.124  0.00  0.00    +0.166 C 
ATOM      5  H   UNL     1      -4.167   9.152   4.204  0.00  0.00    +0.163 HD
ATOM      6  H   UNL     1      -6.728   7.208   5.607  0.00  0.00    +0.159 HD
ATOM      7  H   UNL     1      -5.080   7.693   5.749  0.00  0.00    +0.159 HD
ATOM      8  H   UNL     1      -7.417   9.011   2.656  0.00  0.00    +0.159 HD
ATOM      9  H   UNL     1      -8.048   7.953   3.857  0.00  0.00    +0.159 HD
ENDROOT
BRANCH   1  10
ATOM     10  C   UNL     1      -5.039   9.953   2.433  0.00  0.00    +0.151 C 
BRANCH  10  11
ATOM     11  C   UNL     1      -3.622  10.213   2.002  0.00  0.00    -0.028 A 
ATOM     12  C   UNL     1      -2.578   9.391   2.453  0.00  0.00    +0.005 A 
ATOM     13  C   UNL     1      -3.316  11.277   1.139  0.00  0.00    +0.005 A 
ATOM     14  C   UNL     1      -1.266   9.614   2.029  0.00  0.00    +0.000 A 
ATOM     15  C   UNL     1      -2.004  11.496   0.719  0.00  0.00    +0.000 A 
ATOM     16  C   UNL     1      -0.980  10.664   1.163  0.00  0.00    +0.000 A 
ENDBRANCH  10  11
ENDBRANCH   1  10
TORSDOF 2
ENDMDL
MODEL 5
REMARK VINA RESULT:    -4.407      3.760      5.473
REMARK INTER + INTRA:          -5.045
REMARK INTER:                  -4.936
REMARK INTRA:                  -0.109
REMARK UNBOUND:                -0.122
REMARK  Name = 1550473
REMARK  2 active torsions:
REMARK  status: ('A' for Active; 'I' for Inactive)
REMARK    1  A    between atoms: N_1  and  C_4
REMARK    2  A    between atoms: C_4  and  C_5
REMARK                            x       y       z     vdW  Elec       q    Type
REMARK                         _______ _______ _______ _____ _____    ______ ____
ROOT
ATOM      1  N   UNL     1      -2.469   9.106   1.493  0.00  0.00    -0.354 N 
ATOM      2  N   UNL     1      -0.654  10.544   1.475  0.00  0.00    -0.372 N 
ATOM      3  N   UNL     1      -0.824   8.995   3.159  0.00  0.00    -0.372 N 
ATOM      4  C   UNL     1      -1.327   9.538   2.045  0.00  0.00    +0.166 C 
ATOM      5  H   UNL     1      -2.813   9.580   0.666  0.00  0.00    +0.163 HD
ATOM      6  H   UNL     1       0.212  10.889   1.866  0.00  0.00    +0.159 HD
ATOM      7  H   UNL     1      -0.976  10.985   0.622  0.00  0.00    +0.159 HD
ATOM      8  H   UNL     1      -1.287   8.236   3.641  0.00  0.00    +0.159 HD
ATOM      9  H   UNL     1       0.035   9.334   3.572  0.00  0.00    +0.159 HD
ENDROOT
BRANCH   1  10
ATOM     10  C   UNL     1      -3.251   7.981   2.005  0.00  0.00    +0.151 C 
BRANCH  10  11
ATOM     11  C   UNL     1      -4.472   8.510   2.705  0.00  0.00    -0.028 A 
ATOM     12  C   UNL     1      -4.797   9.873   2.638  0.00  0.00    +0.005 A 
ATOM     13  C   UNL     1      -5.311   7.652   3.432  0.00  0.00    +0.005 A 
ATOM     14  C   UNL     1      -5.948  10.359   3.263  0.00  0.00    +0.000 A 
ATOM     15  C   UNL     1      -6.459   8.142   4.056  0.00  0.00    +0.000 A 
ATOM     16  C   UNL     1      -6.778   9.494   3.969  0.00  0.00    +0.000 A 
ENDBRANCH  10  11
ENDBRANCH   1  10
TORSDOF 2
ENDMDL
MODEL 6
REMARK VINA RESULT:    -4.374      7.435      9.124
REMARK INTER + INTRA:          -5.007
REMARK INTER:                  -4.868
REMARK INTRA:                  -0.139
REMARK UNBOUND:                -0.122
REMARK  Name = 1550473
REMARK  2 active torsions:
REMARK  status: ('A' for Active; 'I' for Inactive)
REMARK    1  A    between atoms: N_1  and  C_4
REMARK    2  A    between atoms: C_4  and  C_5
REMARK                            x       y       z     vdW  Elec       q    Type
REMARK                         _______ _______ _______ _____ _____    ______ ____
ROOT
ATOM      1  N   UNL     1      -6.896  10.020   9.207  0.00  0.00    -0.354 N 
ATOM      2  N   UNL     1      -6.417  11.504  10.919  0.00  0.00    -0.372 N 
ATOM      3  N   UNL     1      -8.610  11.121  10.364  0.00  0.00    -0.372 N 
ATOM      4  C   UNL     1      -7.314  10.872  10.152  0.00  0.00    +0.166 C 
ATOM      5  H   UNL     1      -5.898   9.897   9.076  0.00  0.00    +0.163 HD
ATOM      6  H   UNL     1      -6.702  12.150  11.642  0.00  0.00    +0.159 HD
ATOM      7  H   UNL     1      -5.422  11.345  10.816  0.00  0.00    +0.159 HD
ATOM      8  H   UNL     1      -9.337  10.681   9.815  0.00  0.00    +0.159 HD
ATOM      9  H   UNL     1      -8.915  11.774  11.075  0.00  0.00    +0.159 HD
ENDROOT
BRANCH   1  10
ATOM     10  C   UNL     1      -7.792   9.241   8.354  0.00  0.00    +0.151 C 
BRANCH  10  11
ATOM     11  C   UNL     1      -7.273   9.265   6.943  0.00  0.00    -0.028 A 
ATOM     12  C   UNL     1      -6.071   9.921   6.638  0.00  0.00    +0.005 A 
ATOM     13  C   UNL     1      -7.975   8.629   5.908  0.00  0.00    +0.005 A 
ATOM     14  C   UNL     1      -5.573   9.918   5.333  0.00  0.00    +0.000 A 
ATOM     15  C   UNL     1      -7.475   8.630   4.606  0.00  0.00    +0.000 A 
ATOM     16  C   UNL     1      -6.273   9.272   4.319  0.00  0.00    +0.000 A 
ENDBRANCH  10  11
ENDBRANCH   1  10
TORSDOF 2
ENDMDL
MODEL 7
REMARK VINA RESULT:    -4.346     20.237     21.009
REMARK INTER + INTRA:          -4.976
REMARK INTER:                  -4.854
REMARK INTRA:                  -0.121
REMARK UNBOUND:                -0.122
REMARK  Name = 1550473
REMARK  2 active torsions:
REMARK  status: ('A' for Active; 'I' for Inactive)
REMARK    1  A    between atoms: N_1  and  C_4
REMARK    2  A    between atoms: C_4  and  C_5
REMARK                            x       y       z     vdW  Elec       q    Type
REMARK                         _______ _______ _______ _____ _____    ______ ____
ROOT
ATOM      1  N   UNL     1      16.327  15.181   9.619  0.00  0.00    -0.354 N 
ATOM      2  N   UNL     1      16.750  17.440   9.328  0.00  0.00    -0.372 N 
ATOM      3  N   UNL     1      14.932  16.804  10.575  0.00  0.00    -0.372 N 
ATOM      4  C   UNL     1      15.998  16.460   9.844  0.00  0.00    +0.166 C 
ATOM      5  H   UNL     1      17.130  14.987   9.031  0.00  0.00    +0.163 HD
ATOM      6  H   UNL     1      16.528  18.414   9.484  0.00  0.00    +0.159 HD
ATOM      7  H   UNL     1      17.578  17.243   8.779  0.00  0.00    +0.159 HD
ATOM      8  H   UNL     1      14.320  16.112  10.987  0.00  0.00    +0.159 HD
ATOM      9  H   UNL     1      14.687  17.773  10.732  0.00  0.00    +0.159 HD
ENDROOT
BRANCH   1  10
ATOM     10  C   UNL     1      15.606  14.040  10.180  0.00  0.00    +0.151 C 
BRANCH  10  11
ATOM     11  C   UNL     1      16.180  12.770   9.616  0.00  0.00    -0.028 A 
ATOM     12  C   UNL     1      15.490  11.557   9.747  0.00  0.00    +0.005 A 
ATOM     13  C   UNL     1      17.413  12.775   8.944  0.00  0.00    +0.005 A 
ATOM     14  C   UNL     1      16.009  10.382   9.197  0.00  0.00    +0.000 A 
ATOM     15  C   UNL     1      17.928  11.600   8.397  0.00  0.00    +0.000 A 
ATOM     16  C   UNL     1      17.225  10.404   8.521  0.00  0.00    +0.000 A 
ENDBRANCH  10  11
ENDBRANCH   1  10
TORSDOF 2
ENDMDL
MODEL 8
REMARK VINA RESULT:    -4.070      3.132      5.038
REMARK INTER + INTRA:          -4.668
REMARK INTER:                  -4.489
REMARK INTRA:                  -0.179
REMARK UNBOUND:                -0.122
REMARK  Name = 1550473
REMARK  2 active torsions:
REMARK  status: ('A' for Active; 'I' for Inactive)
REMARK    1  A    between atoms: N_1  and  C_4
REMARK    2  A    between atoms: C_4  and  C_5
REMARK                            x       y       z     vdW  Elec       q    Type
REMARK                         _______ _______ _______ _____ _____    ______ ____
ROOT
ATOM      1  N   UNL     1      -1.815  12.952  -1.498  0.00  0.00    -0.354 N 
ATOM      2  N   UNL     1      -1.990  12.444  -3.751  0.00  0.00    -0.372 N 
ATOM      3  N   UNL     1      -0.120  11.771  -2.605  0.00  0.00    -0.372 N 
ATOM      4  C   UNL     1      -1.304  12.392  -2.603  0.00  0.00    +0.166 C 
ATOM      5  H   UNL     1      -2.704  13.434  -1.570  0.00  0.00    +0.163 HD
ATOM      6  H   UNL     1      -1.632  12.027  -4.600  0.00  0.00    +0.159 HD
ATOM      7  H   UNL     1      -2.899  12.886  -3.809  0.00  0.00    +0.159 HD
ATOM      8  H   UNL     1       0.450  11.702  -1.772  0.00  0.00    +0.159 HD
ATOM      9  H   UNL     1       0.261  11.358  -3.447  0.00  0.00    +0.159 HD
ENDROOT
BRANCH   1  10
ATOM     10  C   UNL     1      -1.173  12.904  -0.186  0.00  0.00    +0.151 C 
BRANCH  10  11
ATOM     11  C   UNL     1      -1.760  11.769   0.606  0.00  0.00    -0.028 A 
ATOM     12  C   UNL     1      -0.933  10.766   1.134  0.00  0.00    +0.005 A 
ATOM     13  C   UNL     1      -3.142  11.693   0.838  0.00  0.00    +0.005 A 
ATOM     14  C   UNL     1      -1.475   9.727   1.895  0.00  0.00    +0.000 A 
ATOM     15  C   UNL     1      -3.679  10.654   1.598  0.00  0.00    +0.000 A 
ATOM     16  C   UNL     1      -2.845   9.673   2.128  0.00  0.00    +0.000 A 
ENDBRANCH  10  11
ENDBRANCH   1  10
TORSDOF 2
ENDMDL
MODEL 9
REMARK VINA RESULT:    -3.983      4.517      6.982
REMARK INTER + INTRA:          -4.571
REMARK INTER:                  -4.467
REMARK INTRA:                  -0.103
REMARK UNBOUND:                -0.122
REMARK  Name = 1550473
REMARK  2 active torsions:
REMARK  status: ('A' for Active; 'I' for Inactive)
REMARK    1  A    between atoms: N_1  and  C_4
REMARK    2  A    between atoms: C_4  and  C_5
REMARK                            x       y       z     vdW  Elec       q    Type
REMARK                         _______ _______ _______ _____ _____    ______ ____
ROOT
ATOM      1  N   UNL     1      -4.903   9.877   2.323  0.00  0.00    -0.354 N 
ATOM      2  N   UNL     1      -3.822   9.408   0.329  0.00  0.00    -0.372 N 
ATOM      3  N   UNL     1      -4.018  11.595   0.997  0.00  0.00    -0.372 N 
ATOM      4  C   UNL     1      -4.254  10.299   1.229  0.00  0.00    +0.166 C 
ATOM      5  H   UNL     1      -5.077   8.884   2.426  0.00  0.00    +0.163 HD
ATOM      6  H   UNL     1      -3.326   9.696  -0.504  0.00  0.00    +0.159 HD
ATOM      7  H   UNL     1      -3.957   8.413   0.457  0.00  0.00    +0.159 HD
ATOM      8  H   UNL     1      -4.323  12.318   1.634  0.00  0.00    +0.159 HD
ATOM      9  H   UNL     1      -3.534  11.904   0.163  0.00  0.00    +0.159 HD
ENDROOT
BRANCH   1  10
ATOM     10  C   UNL     1      -5.368  10.762   3.390  0.00  0.00    +0.151 C 
BRANCH  10  11
ATOM     11  C   UNL     1      -6.088   9.944   4.426  0.00  0.00    -0.028 A 
ATOM     12  C   UNL     1      -5.715  10.017   5.776  0.00  0.00    +0.005 A 
ATOM     13  C   UNL     1      -7.149   9.099   4.065  0.00  0.00    +0.005 A 
ATOM     14  C   UNL     1      -6.403   9.281   6.743  0.00  0.00    +0.000 A 
ATOM     15  C   UNL     1      -7.833   8.365   5.034  0.00  0.00    +0.000 A 
ATOM     16  C   UNL     1      -7.462   8.458   6.373  0.00  0.00    +0.000 A 
ENDBRANCH  10  11
ENDBRANCH   1  10
TORSDOF 2
ENDMDL
