MODEL 1
REMARK VINA RESULT:    -6.138      0.000      0.000
REMARK INTER + INTRA:          -6.985
REMARK INTER:                  -6.855
REMARK INTRA:                  -0.130
REMARK UNBOUND:                -0.130
REMARK  Name = 1550473
REMARK  2 active torsions:
REMARK  status: ('A' for Active; 'I' for Inactive)
REMARK    1  A    between atoms: N_1  and  C_4
REMARK    2  A    between atoms: C_4  and  C_5
REMARK                            x       y       z     vdW  Elec       q    Type
REMARK                         _______ _______ _______ _____ _____    ______ ____
ROOT
ATOM      1  N   UNL     1      -6.419  -9.559  10.863  0.00  0.00    -0.354 N 
ATOM      2  N   UNL     1      -8.718  -9.317  10.724  0.00  0.00    -0.372 N 
ATOM      3  N   UNL     1      -7.856 -10.966  12.067  0.00  0.00    -0.372 N 
ATOM      4  C   UNL     1      -7.649  -9.951  11.221  0.00  0.00    +0.166 C 
ATOM      5  H   UNL     1      -6.330  -8.802  10.195  0.00  0.00    +0.163 HD
ATOM      6  H   UNL     1      -9.659  -9.588  10.979  0.00  0.00    +0.159 HD
ATOM      7  H   UNL     1      -8.626  -8.531  10.092  0.00  0.00    +0.159 HD
ATOM      8  H   UNL     1      -7.091 -11.489  12.472  0.00  0.00    +0.159 HD
ATOM      9  H   UNL     1      -8.790 -11.260  12.324  0.00  0.00    +0.159 HD
ENDROOT
BRANCH   1  10
ATOM     10  C   UNL     1      -5.188 -10.148  11.388  0.00  0.00    +0.151 C 
BRANCH  10  11
ATOM     11  C   UNL     1      -4.264  -9.045  11.826  0.00  0.00    -0.028 A 
ATOM     12  C   UNL     1      -3.166  -8.679  11.034  0.00  0.00    +0.005 A 
ATOM     13  C   UNL     1      -4.484  -8.358  13.030  0.00  0.00    +0.005 A 
ATOM     14  C   UNL     1      -2.325  -7.635  11.425  0.00  0.00    +0.000 A 
ATOM     15  C   UNL     1      -3.641  -7.317  13.418  0.00  0.00    +0.000 A 
ATOM     16  C   UNL     1      -2.563  -6.954  12.614  0.00  0.00    +0.000 A 
ENDBRANCH  10  11
ENDBRANCH   1  10
TORSDOF 2
ENDMDL
MODEL 2
REMARK VINA RESULT:    -5.986      1.193      1.981
REMARK INTER + INTRA:          -6.815
REMARK INTER:                  -6.718
REMARK INTRA:                  -0.098
REMARK UNBOUND:                -0.130
REMARK  Name = 1550473
REMARK  2 active torsions:
REMARK  status: ('A' for Active; 'I' for Inactive)
REMARK    1  A    between atoms: N_1  and  C_4
REMARK    2  A    between atoms: C_4  and  C_5
REMARK                            x       y       z     vdW  Elec       q    Type
REMARK                         _______ _______ _______ _____ _____    ______ ____
ROOT
ATOM      1  N   UNL     1      -6.948  -9.521  11.010  0.00  0.00    -0.354 N 
ATOM      2  N   UNL     1      -9.114  -9.087  10.315  0.00  0.00    -0.372 N 
ATOM      3  N   UNL     1      -8.764 -10.692  11.916  0.00  0.00    -0.372 N 
ATOM      4  C   UNL     1      -8.262  -9.772  11.087  0.00  0.00    +0.166 C 
ATOM      5  H   UNL     1      -6.628  -8.832  10.339  0.00  0.00    +0.163 HD
ATOM      6  H   UNL     1     -10.111  -9.252  10.353  0.00  0.00    +0.159 HD
ATOM      7  H   UNL     1      -8.796  -8.367   9.678  0.00  0.00    +0.159 HD
ATOM      8  H   UNL     1      -8.173 -11.248  12.521  0.00  0.00    +0.159 HD
ATOM      9  H   UNL     1      -9.758 -10.880  11.961  0.00  0.00    +0.159 HD
ENDROOT
BRANCH   1  10
ATOM     10  C   UNL     1      -5.941 -10.173  11.845  0.00  0.00    +0.151 C 
BRANCH  10  11
ATOM     11  C   UNL     1      -4.573  -9.739  11.394  0.00  0.00    -0.028 A 
ATOM     12  C   UNL     1      -4.194  -8.391  11.465  0.00  0.00    +0.005 A 
ATOM     13  C   UNL     1      -3.650 -10.673  10.899  0.00  0.00    +0.005 A 
ATOM     14  C   UNL     1      -2.914  -7.992  11.075  0.00  0.00    +0.000 A 
ATOM     15  C   UNL     1      -2.373 -10.271  10.509  0.00  0.00    +0.000 A 
ATOM     16  C   UNL     1      -2.004  -8.931  10.599  0.00  0.00    +0.000 A 
ENDBRANCH  10  11
ENDBRANCH   1  10
TORSDOF 2
ENDMDL
MODEL 3
REMARK VINA RESULT:    -5.826      4.771      6.032
REMARK INTER + INTRA:          -6.637
REMARK INTER:                  -6.473
REMARK INTRA:                  -0.164
REMARK UNBOUND:                -0.130
REMARK  Name = 1550473
REMARK  2 active torsions:
REMARK  status: ('A' for Active; 'I' for Inactive)
REMARK    1  A    between atoms: N_1  and  C_4
REMARK    2  A    between atoms: C_4  and  C_5
REMARK                            x       y       z     vdW  Elec       q    Type
REMARK                         _______ _______ _______ _____ _____    ______ ____
ROOT
ATOM      1  N   UNL     1      -4.434  -4.322  15.033  0.00  0.00    -0.354 N 
ATOM      2  N   UNL     1      -4.350  -2.035  15.394  0.00  0.00    -0.372 N 
ATOM      3  N   UNL     1      -3.113  -3.417  16.745  0.00  0.00    -0.372 N 
ATOM      4  C   UNL     1      -3.965  -3.274  15.724  0.00  0.00    +0.166 C 
ATOM      5  H   UNL     1      -5.101  -4.149  14.290  0.00  0.00    +0.163 HD
ATOM      6  H   UNL     1      -4.010  -1.225  15.894  0.00  0.00    +0.159 HD
ATOM      7  H   UNL     1      -4.980  -1.862  14.620  0.00  0.00    +0.159 HD
ATOM      8  H   UNL     1      -2.788  -4.326  17.047  0.00  0.00    +0.159 HD
ATOM      9  H   UNL     1      -2.770  -2.620  17.265  0.00  0.00    +0.159 HD
ENDROOT
BRANCH   1  10
ATOM     10  C   UNL     1      -4.036  -5.707  15.278  0.00  0.00    +0.151 C 
BRANCH  10  11
ATOM     11  C   UNL     1      -3.283  -6.220  14.081  0.00  0.00    -0.028 A 
ATOM     12  C   UNL     1      -1.915  -5.949  13.931  0.00  0.00    +0.005 A 
ATOM     13  C   UNL     1      -3.931  -6.983  13.097  0.00  0.00    +0.005 A 
ATOM     14  C   UNL     1      -1.209  -6.450  12.835  0.00  0.00    +0.000 A 
ATOM     15  C   UNL     1      -3.222  -7.481  12.004  0.00  0.00    +0.000 A 
ATOM     16  C   UNL     1      -1.861  -7.217  11.874  0.00  0.00    +0.000 A 
ENDBRANCH  10  11
ENDBRANCH   1  10
TORSDOF 2
ENDMDL
MODEL 4
REMARK VINA RESULT:    -5.680      4.413      5.682
REMARK INTER + INTRA:          -6.474
REMARK INTER:                  -6.360
REMARK INTRA:                  -0.114
REMARK UNBOUND:                -0.130
REMARK  Name = 1550473
REMARK  2 active torsions:
REMARK  status: ('A' for Active; 'I' for Inactive)
REMARK    1  A    between atoms: N_1  and  C_4
REMARK    2  A    between atoms: C_4  and  C_5
REMARK                            x       y       z     vdW  Elec       q    Type
REMARK                         _______ _______ _______ _____ _____    ______ ____
ROOT
ATOM      1  N   UNL     1      -4.149  -4.692  14.611  0.00  0.00    -0.354 N 
ATOM      2  N   UNL     1      -4.152  -2.429  15.102  0.00  0.00    -0.372 N 
ATOM      3  N   UNL     1      -3.812  -3.932  16.802  0.00  0.00    -0.372 N 
ATOM      4  C   UNL     1      -4.037  -3.700  15.505  0.00  0.00    +0.166 C 
ATOM      5  H   UNL     1      -4.350  -4.452  13.648  0.00  0.00    +0.163 HD
ATOM      6  H   UNL     1      -4.069  -1.659  15.752  0.00  0.00    +0.159 HD
ATOM      7  H   UNL     1      -4.307  -2.190  14.130  0.00  0.00    +0.159 HD
ATOM      8  H   UNL     1      -3.721  -4.869  17.171  0.00  0.00    +0.159 HD
ATOM      9  H   UNL     1      -3.737  -3.175  17.471  0.00  0.00    +0.159 HD
ENDROOT
BRANCH   1  10
ATOM     10  C   UNL     1      -3.987  -6.108  14.937  0.00  0.00    +0.151 C 
BRANCH  10  11
ATOM     11  C   UNL     1      -3.568  -6.852  13.700  0.00  0.00    -0.028 A 
ATOM     12  C   UNL     1      -4.321  -7.941  13.235  0.00  0.00    +0.005 A 
ATOM     13  C   UNL     1      -2.423  -6.470  12.984  0.00  0.00    +0.005 A 
ATOM     14  C   UNL     1      -3.949  -8.614  12.068  0.00  0.00    +0.000 A 
ATOM     15  C   UNL     1      -2.055  -7.145  11.820  0.00  0.00    +0.000 A 
ATOM     16  C   UNL     1      -2.820  -8.215  11.361  0.00  0.00    +0.000 A 
ENDBRANCH  10  11
ENDBRANCH   1  10
TORSDOF 2
ENDMDL
MODEL 5
REMARK VINA RESULT:    -5.533     15.343     16.250
REMARK INTER + INTRA:          -6.309
REMARK INTER:                  -6.157
REMARK INTRA:                  -0.152
REMARK UNBOUND:                -0.130
REMARK  Name = 1550473
REMARK  2 active torsions:
REMARK  status: ('A' for Active; 'I' for Inactive)
REMARK    1  A    between atoms: N_1  and  C_4
REMARK    2  A    between atoms: C_4  and  C_5
REMARK                            x       y       z     vdW  Elec       q    Type
REMARK                         _______ _______ _______ _____ _____    ______ ____
ROOT
ATOM      1  N   UNL     1       8.699 -13.955   8.966  0.00  0.00    -0.354 N 
ATOM      2  N   UNL     1       8.086 -15.660   7.523  0.00  0.00    -0.372 N 
ATOM      3  N   UNL     1      10.253 -15.566   8.273  0.00  0.00    -0.372 N 
ATOM      4  C   UNL     1       9.019 -15.049   8.263  0.00  0.00    +0.166 C 
ATOM      5  H   UNL     1       7.754 -13.596   8.893  0.00  0.00    +0.163 HD
ATOM      6  H   UNL     1       8.298 -16.489   6.985  0.00  0.00    +0.159 HD
ATOM      7  H   UNL     1       7.131 -15.325   7.488  0.00  0.00    +0.159 HD
ATOM      8  H   UNL     1      11.004 -15.149   8.806  0.00  0.00    +0.159 HD
ATOM      9  H   UNL     1      10.487 -16.389   7.732  0.00  0.00    +0.159 HD
ENDROOT
BRANCH   1  10
ATOM     10  C   UNL     1       9.627 -13.247   9.846  0.00  0.00    +0.151 C 
BRANCH  10  11
ATOM     11  C   UNL     1      10.331 -12.177   9.058  0.00  0.00    -0.028 A 
ATOM     12  C   UNL     1       9.597 -11.237   8.319  0.00  0.00    +0.005 A 
ATOM     13  C   UNL     1      11.732 -12.093   9.051  0.00  0.00    +0.005 A 
ATOM     14  C   UNL     1      10.249 -10.224   7.612  0.00  0.00    +0.000 A 
ATOM     15  C   UNL     1      12.379 -11.081   8.342  0.00  0.00    +0.000 A 
ATOM     16  C   UNL     1      11.638 -10.146   7.625  0.00  0.00    +0.000 A 
ENDBRANCH  10  11
ENDBRANCH   1  10
TORSDOF 2
ENDMDL
MODEL 6
REMARK VINA RESULT:    -5.471      4.775      6.595
REMARK INTER + INTRA:          -6.240
REMARK INTER:                  -6.107
REMARK INTRA:                  -0.133
REMARK UNBOUND:                -0.130
REMARK  Name = 1550473
REMARK  2 active torsions:
REMARK  status: ('A' for Active; 'I' for Inactive)
REMARK    1  A    between atoms: N_1  and  C_4
REMARK    2  A    between atoms: C_4  and  C_5
REMARK                            x       y       z     vdW  Elec       q    Type
REMARK                         _______ _______ _______ _____ _____    ______ ____
ROOT
ATOM      1  N   UNL     1      -0.661  -5.291  13.213  0.00  0.00    -0.354 N 
ATOM      2  N   UNL     1       1.467  -4.590  12.627  0.00  0.00    -0.372 N 
ATOM      3  N   UNL     1       1.208  -5.919  14.479  0.00  0.00    -0.372 N 
ATOM      4  C   UNL     1       0.658  -5.273  13.446  0.00  0.00    +0.166 C 
ATOM      5  H   UNL     1      -1.019  -4.756  12.430  0.00  0.00    +0.163 HD
ATOM      6  H   UNL     1       2.467  -4.561  12.776  0.00  0.00    +0.159 HD
ATOM      7  H   UNL     1       1.112  -4.094  11.819  0.00  0.00    +0.159 HD
ATOM      8  H   UNL     1       0.651  -6.448  15.138  0.00  0.00    +0.159 HD
ATOM      9  H   UNL     1       2.205  -5.892  14.652  0.00  0.00    +0.159 HD
ENDROOT
BRANCH   1  10
ATOM     10  C   UNL     1      -1.623  -6.048  14.013  0.00  0.00    +0.151 C 
BRANCH  10  11
ATOM     11  C   UNL     1      -2.420  -6.944  13.105  0.00  0.00    -0.028 A 
ATOM     12  C   UNL     1      -3.668  -7.439  13.510  0.00  0.00    +0.005 A 
ATOM     13  C   UNL     1      -1.935  -7.297  11.837  0.00  0.00    +0.005 A 
ATOM     14  C   UNL     1      -4.423  -8.246  12.656  0.00  0.00    +0.000 A 
ATOM     15  C   UNL     1      -2.691  -8.105  10.987  0.00  0.00    +0.000 A 
ATOM     16  C   UNL     1      -3.935  -8.577  11.396  0.00  0.00    +0.000 A 
ENDBRANCH  10  11
ENDBRANCH   1  10
TORSDOF 2
ENDMDL
MODEL 7
REMARK VINA RESULT:    -5.423      4.312      5.619
REMARK INTER + INTRA:          -6.187
REMARK INTER:                  -6.035
REMARK INTRA:                  -0.152
REMARK UNBOUND:                -0.130
REMARK  Name = 1550473
REMARK  2 active torsions:
REMARK  status: ('A' for Active; 'I' for Inactive)
REMARK    1  A    between atoms: N_1  and  C_4
REMARK    2  A    between atoms: C_4  and  C_5
REMARK                            x       y       z     vdW  Elec       q    Type
REMARK                         _______ _______ _______ _____ _____    ______ ____
ROOT
ATOM      1  N   UNL     1      -3.586  -5.107  16.205  0.00  0.00    -0.354 N 
ATOM      2  N   UNL     1      -4.898  -6.124  17.820  0.00  0.00    -0.372 N 
ATOM      3  N   UNL     1      -5.918  -5.194  15.987  0.00  0.00    -0.372 N 
ATOM      4  C   UNL     1      -4.794  -5.467  16.659  0.00  0.00    +0.166 C 
ATOM      5  H   UNL     1      -2.775  -5.317  16.776  0.00  0.00    +0.163 HD
ATOM      6  H   UNL     1      -5.796  -6.411  18.186  0.00  0.00    +0.159 HD
ATOM      7  H   UNL     1      -4.082  -6.373  18.366  0.00  0.00    +0.159 HD
ATOM      8  H   UNL     1      -5.908  -4.696  15.107  0.00  0.00    +0.159 HD
ATOM      9  H   UNL     1      -6.827  -5.463  16.343  0.00  0.00    +0.159 HD
ENDROOT
BRANCH   1  10
ATOM     10  C   UNL     1      -3.360  -4.436  14.926  0.00  0.00    +0.151 C 
BRANCH  10  11
ATOM     11  C   UNL     1      -2.907  -5.451  13.913  0.00  0.00    -0.028 A 
ATOM     12  C   UNL     1      -3.844  -6.214  13.201  0.00  0.00    +0.005 A 
ATOM     13  C   UNL     1      -1.541  -5.649  13.655  0.00  0.00    +0.005 A 
ATOM     14  C   UNL     1      -3.424  -7.135  12.239  0.00  0.00    +0.000 A 
ATOM     15  C   UNL     1      -1.127  -6.571  12.694  0.00  0.00    +0.000 A 
ATOM     16  C   UNL     1      -2.068  -7.312  11.984  0.00  0.00    +0.000 A 
ENDBRANCH  10  11
ENDBRANCH   1  10
TORSDOF 2
ENDMDL
MODEL 8
REMARK VINA RESULT:    -5.158     15.678     16.591
REMARK INTER + INTRA:          -5.890
REMARK INTER:                  -5.746
REMARK INTRA:                  -0.144
REMARK UNBOUND:                -0.130
REMARK  Name = 1550473
REMARK  2 active torsions:
REMARK  status: ('A' for Active; 'I' for Inactive)
REMARK    1  A    between atoms: N_1  and  C_4
REMARK    2  A    between atoms: C_4  and  C_5
REMARK                            x       y       z     vdW  Elec       q    Type
REMARK                         _______ _______ _______ _____ _____    ______ ____
ROOT
ATOM      1  N   UNL     1      10.560 -14.806   9.267  0.00  0.00    -0.354 N 
ATOM      2  N   UNL     1       8.964 -16.482   9.175  0.00  0.00    -0.372 N 
ATOM      3  N   UNL     1       9.318 -15.396  11.165  0.00  0.00    -0.372 N 
ATOM      4  C   UNL     1       9.625 -15.550   9.873  0.00  0.00    +0.166 C 
ATOM      5  H   UNL     1      10.767 -14.992   8.293  0.00  0.00    +0.163 HD
ATOM      6  H   UNL     1       8.250 -17.056   9.604  0.00  0.00    +0.159 HD
ATOM      7  H   UNL     1       9.140 -16.634   8.189  0.00  0.00    +0.159 HD
ATOM      8  H   UNL     1       9.785 -14.714  11.749  0.00  0.00    +0.159 HD
ATOM      9  H   UNL     1       8.615 -15.969  11.615  0.00  0.00    +0.159 HD
ENDROOT
BRANCH   1  10
ATOM     10  C   UNL     1      11.299 -13.729   9.923  0.00  0.00    +0.151 C 
BRANCH  10  11
ATOM     11  C   UNL     1      11.135 -12.464   9.126  0.00  0.00    -0.028 A 
ATOM     12  C   UNL     1      12.258 -11.742   8.698  0.00  0.00    +0.005 A 
ATOM     13  C   UNL     1       9.858 -11.986   8.792  0.00  0.00    +0.005 A 
ATOM     14  C   UNL     1      12.106 -10.583   7.932  0.00  0.00    +0.000 A 
ATOM     15  C   UNL     1       9.711 -10.829   8.027  0.00  0.00    +0.000 A 
ATOM     16  C   UNL     1      10.836 -10.129   7.595  0.00  0.00    +0.000 A 
ENDBRANCH  10  11
ENDBRANCH   1  10
TORSDOF 2
ENDMDL
MODEL 9
REMARK VINA RESULT:    -5.087     16.990     18.684
REMARK INTER + INTRA:          -5.812
REMARK INTER:                  -5.706
REMARK INTRA:                  -0.106
REMARK UNBOUND:                -0.130
REMARK  Name = 1550473
REMARK  2 active torsions:
REMARK  status: ('A' for Active; 'I' for Inactive)
REMARK    1  A    between atoms: N_1  and  C_4
REMARK    2  A    between atoms: C_4  and  C_5
REMARK                            x       y       z     vdW  Elec       q    Type
REMARK                         _______ _______ _______ _____ _____    ______ ____
ROOT
ATOM      1  N   UNL     1      14.178 -11.314   8.401  0.00  0.00    -0.354 N 
ATOM      2  N   UNL     1      15.656 -10.333   6.911  0.00  0.00    -0.372 N 
ATOM      3  N   UNL     1      15.079 -12.533   6.613  0.00  0.00    -0.372 N 
ATOM      4  C   UNL     1      14.961 -11.402   7.317  0.00  0.00    +0.166 C 
ATOM      5  H   UNL     1      14.156 -10.437   8.908  0.00  0.00    +0.163 HD
ATOM      6  H   UNL     1      16.252 -10.368   6.096  0.00  0.00    +0.159 HD
ATOM      7  H   UNL     1      15.596  -9.444   7.394  0.00  0.00    +0.159 HD
ATOM      8  H   UNL     1      14.586 -13.378   6.871  0.00  0.00    +0.159 HD
ATOM      9  H   UNL     1      15.680 -12.592   5.801  0.00  0.00    +0.159 HD
ENDROOT
BRANCH   1  10
ATOM     10  C   UNL     1      13.339 -12.405   8.894  0.00  0.00    +0.151 C 
BRANCH  10  11
ATOM     11  C   UNL     1      11.895 -12.004   8.780  0.00  0.00    -0.028 A 
ATOM     12  C   UNL     1      10.909 -12.671   9.522  0.00  0.00    +0.005 A 
ATOM     13  C   UNL     1      11.505 -10.952   7.936  0.00  0.00    +0.005 A 
ATOM     14  C   UNL     1       9.571 -12.280   9.439  0.00  0.00    +0.000 A 
ATOM     15  C   UNL     1      10.168 -10.565   7.855  0.00  0.00    +0.000 A 
ATOM     16  C   UNL     1       9.201 -11.227   8.608  0.00  0.00    +0.000 A 
ENDBRANCH  10  11
ENDBRANCH   1  10
TORSDOF 2
ENDMDL
