MODEL 1
REMARK VINA RESULT:    -6.033      0.000      0.000
REMARK INTER + INTRA:          -6.918
REMARK INTER:                  -6.738
REMARK INTRA:                  -0.180
REMARK UNBOUND:                -0.180
REMARK  Name = 1550473
REMARK  2 active torsions:
REMARK  status: ('A' for Active; 'I' for Inactive)
REMARK    1  A    between atoms: N_1  and  C_4
REMARK    2  A    between atoms: C_4  and  C_5
REMARK                            x       y       z     vdW  Elec       q    Type
REMARK                         _______ _______ _______ _____ _____    ______ ____
ROOT
ATOM      1  N   UNL     1     -15.999 -17.525 -24.219  0.00  0.00    -0.354 N 
ATOM      2  N   UNL     1     -13.890 -17.946 -23.359  0.00  0.00    -0.372 N 
ATOM      3  N   UNL     1     -14.183 -16.139 -24.742  0.00  0.00    -0.372 N 
ATOM      4  C   UNL     1     -14.704 -17.198 -24.114  0.00  0.00    +0.166 C 
ATOM      5  H   UNL     1     -16.326 -18.357 -23.742  0.00  0.00    +0.163 HD
ATOM      6  H   UNL     1     -12.909 -17.722 -23.258  0.00  0.00    +0.159 HD
ATOM      7  H   UNL     1     -14.229 -18.751 -22.846  0.00  0.00    +0.159 HD
ATOM      8  H   UNL     1     -14.743 -15.537 -25.332  0.00  0.00    +0.159 HD
ATOM      9  H   UNL     1     -13.202 -15.905 -24.663  0.00  0.00    +0.159 HD
ENDROOT
BRANCH   1  10
ATOM     10  C   UNL     1     -16.980 -16.746 -24.972  0.00  0.00    +0.151 C 
BRANCH  10  11
ATOM     11  C   UNL     1     -17.701 -15.821 -24.031  0.00  0.00    -0.028 A 
ATOM     12  C   UNL     1     -17.694 -14.436 -24.248  0.00  0.00    +0.005 A 
ATOM     13  C   UNL     1     -18.399 -16.325 -22.922  0.00  0.00    +0.005 A 
ATOM     14  C   UNL     1     -18.389 -13.579 -23.391  0.00  0.00    +0.000 A 
ATOM     15  C   UNL     1     -19.090 -15.466 -22.068  0.00  0.00    +0.000 A 
ATOM     16  C   UNL     1     -19.087 -14.094 -22.304  0.00  0.00    +0.000 A 
ENDBRANCH  10  11
ENDBRANCH   1  10
TORSDOF 2
ENDMDL
MODEL 2
REMARK VINA RESULT:    -5.960      1.617      2.028
REMARK INTER + INTRA:          -6.837
REMARK INTER:                  -6.710
REMARK INTRA:                  -0.127
REMARK UNBOUND:                -0.180
REMARK  Name = 1550473
REMARK  2 active torsions:
REMARK  status: ('A' for Active; 'I' for Inactive)
REMARK    1  A    between atoms: N_1  and  C_4
REMARK    2  A    between atoms: C_4  and  C_5
REMARK                            x       y       z     vdW  Elec       q    Type
REMARK                         _______ _______ _______ _____ _____    ______ ____
ROOT
ATOM      1  N   UNL     1     -14.445 -14.603 -24.785  0.00  0.00    -0.354 N 
ATOM      2  N   UNL     1     -12.214 -14.652 -24.167  0.00  0.00    -0.372 N 
ATOM      3  N   UNL     1     -13.107 -16.471 -25.243  0.00  0.00    -0.372 N 
ATOM      4  C   UNL     1     -13.270 -15.245 -24.736  0.00  0.00    +0.166 C 
ATOM      5  H   UNL     1     -14.512 -13.687 -24.356  0.00  0.00    +0.163 HD
ATOM      6  H   UNL     1     -11.314 -15.110 -24.119  0.00  0.00    +0.159 HD
ATOM      7  H   UNL     1     -12.271 -13.718 -23.780  0.00  0.00    +0.159 HD
ATOM      8  H   UNL     1     -13.867 -16.975 -25.681  0.00  0.00    +0.159 HD
ATOM      9  H   UNL     1     -12.217 -16.951 -25.194  0.00  0.00    +0.159 HD
ENDROOT
BRANCH   1  10
ATOM     10  C   UNL     1     -15.643 -15.138 -25.430  0.00  0.00    +0.151 C 
BRANCH  10  11
ATOM     11  C   UNL     1     -16.784 -15.107 -24.451  0.00  0.00    -0.028 A 
ATOM     12  C   UNL     1     -17.404 -13.894 -24.118  0.00  0.00    +0.005 A 
ATOM     13  C   UNL     1     -17.253 -16.289 -23.856  0.00  0.00    +0.005 A 
ATOM     14  C   UNL     1     -18.483 -13.869 -23.231  0.00  0.00    +0.000 A 
ATOM     15  C   UNL     1     -18.330 -16.259 -22.971  0.00  0.00    +0.000 A 
ATOM     16  C   UNL     1     -18.947 -15.050 -22.660  0.00  0.00    +0.000 A 
ENDBRANCH  10  11
ENDBRANCH   1  10
TORSDOF 2
ENDMDL
MODEL 3
REMARK VINA RESULT:    -5.327      2.643      4.183
REMARK INTER + INTRA:          -6.130
REMARK INTER:                  -5.971
REMARK INTRA:                  -0.159
REMARK UNBOUND:                -0.180
REMARK  Name = 1550473
REMARK  2 active torsions:
REMARK  status: ('A' for Active; 'I' for Inactive)
REMARK    1  A    between atoms: N_1  and  C_4
REMARK    2  A    between atoms: C_4  and  C_5
REMARK                            x       y       z     vdW  Elec       q    Type
REMARK                         _______ _______ _______ _____ _____    ______ ____
ROOT
ATOM      1  N   UNL     1     -17.815 -16.747 -22.907  0.00  0.00    -0.354 N 
ATOM      2  N   UNL     1     -18.795 -18.679 -22.089  0.00  0.00    -0.372 N 
ATOM      3  N   UNL     1     -19.998 -16.726 -22.055  0.00  0.00    -0.372 N 
ATOM      4  C   UNL     1     -18.865 -17.369 -22.355  0.00  0.00    +0.166 C 
ATOM      5  H   UNL     1     -16.974 -17.285 -23.083  0.00  0.00    +0.163 HD
ATOM      6  H   UNL     1     -19.572 -19.177 -21.676  0.00  0.00    +0.159 HD
ATOM      7  H   UNL     1     -17.970 -19.224 -22.308  0.00  0.00    +0.159 HD
ATOM      8  H   UNL     1     -20.113 -15.736 -22.226  0.00  0.00    +0.159 HD
ATOM      9  H   UNL     1     -20.783 -17.204 -21.631  0.00  0.00    +0.159 HD
ENDROOT
BRANCH   1  10
ATOM     10  C   UNL     1     -17.808 -15.335 -23.286  0.00  0.00    +0.151 C 
BRANCH  10  11
ATOM     11  C   UNL     1     -17.651 -15.227 -24.778  0.00  0.00    -0.028 A 
ATOM     12  C   UNL     1     -18.774 -15.273 -25.617  0.00  0.00    +0.005 A 
ATOM     13  C   UNL     1     -16.382 -15.073 -25.357  0.00  0.00    +0.005 A 
ATOM     14  C   UNL     1     -18.631 -15.143 -27.001  0.00  0.00    +0.000 A 
ATOM     15  C   UNL     1     -16.244 -14.944 -26.739  0.00  0.00    +0.000 A 
ATOM     16  C   UNL     1     -17.369 -14.977 -27.560  0.00  0.00    +0.000 A 
ENDBRANCH  10  11
ENDBRANCH   1  10
TORSDOF 2
ENDMDL
MODEL 4
REMARK VINA RESULT:    -4.977     42.723     43.625
REMARK INTER + INTRA:          -5.739
REMARK INTER:                  -5.600
REMARK INTRA:                  -0.139
REMARK UNBOUND:                -0.180
REMARK  Name = 1550473
REMARK  2 active torsions:
REMARK  status: ('A' for Active; 'I' for Inactive)
REMARK    1  A    between atoms: N_1  and  C_4
REMARK    2  A    between atoms: C_4  and  C_5
REMARK                            x       y       z     vdW  Elec       q    Type
REMARK                         _______ _______ _______ _____ _____    ______ ____
ROOT
ATOM      1  N   UNL     1       0.651  10.626   3.616  0.00  0.00    -0.354 N 
ATOM      2  N   UNL     1       1.330  11.040   1.441  0.00  0.00    -0.372 N 
ATOM      3  N   UNL     1      -0.715  11.817   2.131  0.00  0.00    -0.372 N 
ATOM      4  C   UNL     1       0.415  11.160   2.410  0.00  0.00    +0.166 C 
ATOM      5  H   UNL     1       1.515  10.114   3.755  0.00  0.00    +0.163 HD
ATOM      6  H   UNL     1       1.182  11.435   0.522  0.00  0.00    +0.159 HD
ATOM      7  H   UNL     1       2.212  10.567   1.596  0.00  0.00    +0.159 HD
ATOM      8  H   UNL     1      -1.449  11.937   2.817  0.00  0.00    +0.159 HD
ATOM      9  H   UNL     1      -0.888  12.210   1.214  0.00  0.00    +0.159 HD
ENDROOT
BRANCH   1  10
ATOM     10  C   UNL     1      -0.257  10.747   4.756  0.00  0.00    +0.151 C 
BRANCH  10  11
ATOM     11  C   UNL     1       0.520  11.215   5.955  0.00  0.00    -0.028 A 
ATOM     12  C   UNL     1       1.816  11.731   5.808  0.00  0.00    +0.005 A 
ATOM     13  C   UNL     1      -0.036  11.149   7.242  0.00  0.00    +0.005 A 
ATOM     14  C   UNL     1       2.526  12.194   6.918  0.00  0.00    +0.000 A 
ATOM     15  C   UNL     1       0.676  11.612   8.348  0.00  0.00    +0.000 A 
ATOM     16  C   UNL     1       1.956  12.136   8.186  0.00  0.00    +0.000 A 
ENDBRANCH  10  11
ENDBRANCH   1  10
TORSDOF 2
ENDMDL
MODEL 5
REMARK VINA RESULT:    -4.833      3.084      4.622
REMARK INTER + INTRA:          -5.578
REMARK INTER:                  -5.529
REMARK INTRA:                  -0.049
REMARK UNBOUND:                -0.180
REMARK  Name = 1550473
REMARK  2 active torsions:
REMARK  status: ('A' for Active; 'I' for Inactive)
REMARK    1  A    between atoms: N_1  and  C_4
REMARK    2  A    between atoms: C_4  and  C_5
REMARK                            x       y       z     vdW  Elec       q    Type
REMARK                         _______ _______ _______ _____ _____    ______ ____
ROOT
ATOM      1  N   UNL     1     -18.063 -16.592 -26.044  0.00  0.00    -0.354 N 
ATOM      2  N   UNL     1     -19.430 -15.492 -27.555  0.00  0.00    -0.372 N 
ATOM      3  N   UNL     1     -19.484 -14.862 -25.350  0.00  0.00    -0.372 N 
ATOM      4  C   UNL     1     -18.984 -15.655 -26.304  0.00  0.00    +0.166 C 
ATOM      5  H   UNL     1     -17.747 -17.181 -26.806  0.00  0.00    +0.163 HD
ATOM      6  H   UNL     1     -20.123 -14.791 -27.783  0.00  0.00    +0.159 HD
ATOM      7  H   UNL     1     -19.079 -16.051 -28.323  0.00  0.00    +0.159 HD
ATOM      8  H   UNL     1     -19.193 -14.938 -24.384  0.00  0.00    +0.159 HD
ATOM      9  H   UNL     1     -20.186 -14.162 -25.556  0.00  0.00    +0.159 HD
ENDROOT
BRANCH   1  10
ATOM     10  C   UNL     1     -17.473 -16.814 -24.725  0.00  0.00    +0.151 C 
BRANCH  10  11
ATOM     11  C   UNL     1     -16.055 -16.312 -24.731  0.00  0.00    -0.028 A 
ATOM     12  C   UNL     1     -15.710 -15.163 -25.457  0.00  0.00    +0.005 A 
ATOM     13  C   UNL     1     -15.053 -16.979 -24.009  0.00  0.00    +0.005 A 
ATOM     14  C   UNL     1     -14.399 -14.679 -25.439  0.00  0.00    +0.000 A 
ATOM     15  C   UNL     1     -13.746 -16.493 -23.994  0.00  0.00    +0.000 A 
ATOM     16  C   UNL     1     -13.420 -15.342 -24.707  0.00  0.00    +0.000 A 
ENDBRANCH  10  11
ENDBRANCH   1  10
TORSDOF 2
ENDMDL
MODEL 6
REMARK VINA RESULT:    -4.708     37.198     37.841
REMARK INTER + INTRA:          -5.438
REMARK INTER:                  -5.286
REMARK INTRA:                  -0.152
REMARK UNBOUND:                -0.180
REMARK  Name = 1550473
REMARK  2 active torsions:
REMARK  status: ('A' for Active; 'I' for Inactive)
REMARK    1  A    between atoms: N_1  and  C_4
REMARK    2  A    between atoms: C_4  and  C_5
REMARK                            x       y       z     vdW  Elec       q    Type
REMARK                         _______ _______ _______ _____ _____    ______ ____
ROOT
ATOM      1  N   UNL     1       6.768   4.720  -3.807  0.00  0.00    -0.354 N 
ATOM      2  N   UNL     1       8.370   3.071  -3.524  0.00  0.00    -0.372 N 
ATOM      3  N   UNL     1       8.852   5.213  -2.857  0.00  0.00    -0.372 N 
ATOM      4  C   UNL     1       7.988   4.348  -3.397  0.00  0.00    +0.166 C 
ATOM      5  H   UNL     1       6.171   4.022  -4.236  0.00  0.00    +0.163 HD
ATOM      6  H   UNL     1       9.283   2.761  -3.220  0.00  0.00    +0.159 HD
ATOM      7  H   UNL     1       7.755   2.367  -3.910  0.00  0.00    +0.159 HD
ATOM      8  H   UNL     1       8.627   6.192  -2.739  0.00  0.00    +0.159 HD
ATOM      9  H   UNL     1       9.775   4.924  -2.557  0.00  0.00    +0.159 HD
ENDROOT
BRANCH   1  10
ATOM     10  C   UNL     1       6.235   6.073  -3.665  0.00  0.00    +0.151 C 
BRANCH  10  11
ATOM     11  C   UNL     1       5.259   6.099  -2.521  0.00  0.00    -0.028 A 
ATOM     12  C   UNL     1       3.878   6.076  -2.762  0.00  0.00    +0.005 A 
ATOM     13  C   UNL     1       5.710   6.141  -1.193  0.00  0.00    +0.005 A 
ATOM     14  C   UNL     1       2.972   6.070  -1.699  0.00  0.00    +0.000 A 
ATOM     15  C   UNL     1       4.802   6.135  -0.134  0.00  0.00    +0.000 A 
ATOM     16  C   UNL     1       3.434   6.097  -0.387  0.00  0.00    +0.000 A 
ENDBRANCH  10  11
ENDBRANCH   1  10
TORSDOF 2
ENDMDL
MODEL 7
REMARK VINA RESULT:    -4.666      3.813      5.282
REMARK INTER + INTRA:          -5.391
REMARK INTER:                  -5.280
REMARK INTRA:                  -0.111
REMARK UNBOUND:                -0.180
REMARK  Name = 1550473
REMARK  2 active torsions:
REMARK  status: ('A' for Active; 'I' for Inactive)
REMARK    1  A    between atoms: N_1  and  C_4
REMARK    2  A    between atoms: C_4  and  C_5
REMARK                            x       y       z     vdW  Elec       q    Type
REMARK                         _______ _______ _______ _____ _____    ______ ____
ROOT
ATOM      1  N   UNL     1     -17.022 -15.563 -28.157  0.00  0.00    -0.354 N 
ATOM      2  N   UNL     1     -17.274 -15.700 -30.455  0.00  0.00    -0.372 N 
ATOM      3  N   UNL     1     -18.516 -14.160 -29.293  0.00  0.00    -0.372 N 
ATOM      4  C   UNL     1     -17.604 -15.138 -29.286  0.00  0.00    +0.166 C 
ATOM      5  H   UNL     1     -16.361 -16.329 -28.215  0.00  0.00    +0.163 HD
ATOM      6  H   UNL     1     -17.693 -15.398 -31.324  0.00  0.00    +0.159 HD
ATOM      7  H   UNL     1     -16.579 -16.434 -30.516  0.00  0.00    +0.159 HD
ATOM      8  H   UNL     1     -18.813 -13.699 -28.444  0.00  0.00    +0.159 HD
ATOM      9  H   UNL     1     -18.956 -13.852 -30.151  0.00  0.00    +0.159 HD
ENDROOT
BRANCH   1  10
ATOM     10  C   UNL     1     -17.272 -14.981 -26.839  0.00  0.00    +0.151 C 
BRANCH  10  11
ATOM     11  C   UNL     1     -16.098 -15.268 -25.945  0.00  0.00    -0.028 A 
ATOM     12  C   UNL     1     -16.268 -15.997 -24.758  0.00  0.00    +0.005 A 
ATOM     13  C   UNL     1     -14.812 -14.819 -26.281  0.00  0.00    +0.005 A 
ATOM     14  C   UNL     1     -15.172 -16.289 -23.942  0.00  0.00    +0.000 A 
ATOM     15  C   UNL     1     -13.721 -15.112 -25.463  0.00  0.00    +0.000 A 
ATOM     16  C   UNL     1     -13.901 -15.849 -24.295  0.00  0.00    +0.000 A 
ENDBRANCH  10  11
ENDBRANCH   1  10
TORSDOF 2
ENDMDL
MODEL 8
REMARK VINA RESULT:    -4.602     32.719     33.706
REMARK INTER + INTRA:          -5.320
REMARK INTER:                  -5.179
REMARK INTRA:                  -0.141
REMARK UNBOUND:                -0.180
REMARK  Name = 1550473
REMARK  2 active torsions:
REMARK  status: ('A' for Active; 'I' for Inactive)
REMARK    1  A    between atoms: N_1  and  C_4
REMARK    2  A    between atoms: C_4  and  C_5
REMARK                            x       y       z     vdW  Elec       q    Type
REMARK                         _______ _______ _______ _____ _____    ______ ____
ROOT
ATOM      1  N   UNL     1      -7.536  -1.328   4.010  0.00  0.00    -0.354 N 
ATOM      2  N   UNL     1      -7.371  -3.558   4.613  0.00  0.00    -0.372 N 
ATOM      3  N   UNL     1      -7.103  -2.982   2.408  0.00  0.00    -0.372 N 
ATOM      4  C   UNL     1      -7.337  -2.608   3.670  0.00  0.00    +0.166 C 
ATOM      5  H   UNL     1      -7.738  -1.113   4.980  0.00  0.00    +0.163 HD
ATOM      6  H   UNL     1      -7.222  -4.532   4.387  0.00  0.00    +0.159 HD
ATOM      7  H   UNL     1      -7.528  -3.335   5.588  0.00  0.00    +0.159 HD
ATOM      8  H   UNL     1      -7.071  -2.315   1.649  0.00  0.00    +0.159 HD
ATOM      9  H   UNL     1      -6.963  -3.954   2.160  0.00  0.00    +0.159 HD
ENDROOT
BRANCH   1  10
ATOM     10  C   UNL     1      -7.466  -0.212   3.069  0.00  0.00    +0.151 C 
BRANCH  10  11
ATOM     11  C   UNL     1      -6.651   0.895   3.678  0.00  0.00    -0.028 A 
ATOM     12  C   UNL     1      -6.116   0.759   4.968  0.00  0.00    +0.005 A 
ATOM     13  C   UNL     1      -6.405   2.081   2.969  0.00  0.00    +0.005 A 
ATOM     14  C   UNL     1      -5.334   1.774   5.522  0.00  0.00    +0.000 A 
ATOM     15  C   UNL     1      -5.624   3.093   3.527  0.00  0.00    +0.000 A 
ATOM     16  C   UNL     1      -5.087   2.938   4.803  0.00  0.00    +0.000 A 
ENDBRANCH  10  11
ENDBRANCH   1  10
TORSDOF 2
ENDMDL
MODEL 9
REMARK VINA RESULT:    -4.593     17.397     18.281
REMARK INTER + INTRA:          -5.310
REMARK INTER:                  -5.165
REMARK INTRA:                  -0.145
REMARK UNBOUND:                -0.180
REMARK  Name = 1550473
REMARK  2 active torsions:
REMARK  status: ('A' for Active; 'I' for Inactive)
REMARK    1  A    between atoms: N_1  and  C_4
REMARK    2  A    between atoms: C_4  and  C_5
REMARK                            x       y       z     vdW  Elec       q    Type
REMARK                         _______ _______ _______ _____ _____    ______ ____
ROOT
ATOM      1  N   UNL     1      -4.633  -4.012 -17.993  0.00  0.00    -0.354 N 
ATOM      2  N   UNL     1      -4.700  -3.111 -15.861  0.00  0.00    -0.372 N 
ATOM      3  N   UNL     1      -2.828  -2.782 -17.146  0.00  0.00    -0.372 N 
ATOM      4  C   UNL     1      -4.050  -3.307 -17.015  0.00  0.00    +0.166 C 
ATOM      5  H   UNL     1      -5.550  -4.409 -17.820  0.00  0.00    +0.163 HD
ATOM      6  H   UNL     1      -4.287  -2.580 -15.106  0.00  0.00    +0.159 HD
ATOM      7  H   UNL     1      -5.634  -3.470 -15.708  0.00  0.00    +0.159 HD
ATOM      8  H   UNL     1      -2.283  -2.899 -17.990  0.00  0.00    +0.159 HD
ATOM      9  H   UNL     1      -2.393  -2.257 -16.397  0.00  0.00    +0.159 HD
ENDROOT
BRANCH   1  10
ATOM     10  C   UNL     1      -4.034  -4.237 -19.308  0.00  0.00    +0.151 C 
BRANCH  10  11
ATOM     11  C   UNL     1      -4.883  -3.573 -20.355  0.00  0.00    -0.028 A 
ATOM     12  C   UNL     1      -6.253  -3.861 -20.450  0.00  0.00    +0.005 A 
ATOM     13  C   UNL     1      -4.326  -2.650 -21.254  0.00  0.00    +0.005 A 
ATOM     14  C   UNL     1      -7.049  -3.221 -21.403  0.00  0.00    +0.000 A 
ATOM     15  C   UNL     1      -5.124  -2.014 -22.205  0.00  0.00    +0.000 A 
ATOM     16  C   UNL     1      -6.485  -2.298 -22.278  0.00  0.00    +0.000 A 
ENDBRANCH  10  11
ENDBRANCH   1  10
TORSDOF 2
ENDMDL
