MODEL 1
REMARK VINA RESULT:    -6.231      0.000      0.000
REMARK INTER + INTRA:          -7.081
REMARK INTER:                  -6.959
REMARK INTRA:                  -0.122
REMARK UNBOUND:                -0.122
REMARK  Name = 1550473
REMARK  2 active torsions:
REMARK  status: ('A' for Active; 'I' for Inactive)
REMARK    1  A    between atoms: N_1  and  C_4
REMARK    2  A    between atoms: C_4  and  C_5
REMARK                            x       y       z     vdW  Elec       q    Type
REMARK                         _______ _______ _______ _____ _____    ______ ____
ROOT
ATOM      1  N   UNL     1      -7.403  10.595  -4.577  0.00  0.00    -0.354 N 
ATOM      2  N   UNL     1      -7.720  10.946  -6.844  0.00  0.00    -0.372 N 
ATOM      3  N   UNL     1      -9.254   9.688  -5.691  0.00  0.00    -0.372 N 
ATOM      4  C   UNL     1      -8.125  10.405  -5.689  0.00  0.00    +0.166 C 
ATOM      5  H   UNL     1      -6.541  11.124  -4.647  0.00  0.00    +0.163 HD
ATOM      6  H   UNL     1      -8.246  10.823  -7.699  0.00  0.00    +0.159 HD
ATOM      7  H   UNL     1      -6.882  11.513  -6.902  0.00  0.00    +0.159 HD
ATOM      8  H   UNL     1      -9.611   9.248  -4.853  0.00  0.00    +0.159 HD
ATOM      9  H   UNL     1      -9.788   9.543  -6.539  0.00  0.00    +0.159 HD
ENDROOT
BRANCH   1  10
ATOM     10  C   UNL     1      -7.785  10.095  -3.258  0.00  0.00    +0.151 C 
BRANCH  10  11
ATOM     11  C   UNL     1      -7.298  11.055  -2.208  0.00  0.00    -0.028 A 
ATOM     12  C   UNL     1      -7.970  11.171  -0.982  0.00  0.00    +0.005 A 
ATOM     13  C   UNL     1      -6.163  11.849  -2.431  0.00  0.00    +0.005 A 
ATOM     14  C   UNL     1      -7.501  12.041   0.005  0.00  0.00    +0.000 A 
ATOM     15  C   UNL     1      -5.698  12.717  -1.443  0.00  0.00    +0.000 A 
ATOM     16  C   UNL     1      -6.366  12.811  -0.225  0.00  0.00    +0.000 A 
ENDBRANCH  10  11
ENDBRANCH   1  10
TORSDOF 2
ENDMDL
MODEL 2
REMARK VINA RESULT:    -6.022      1.248      1.962
REMARK INTER + INTRA:          -6.848
REMARK INTER:                  -6.706
REMARK INTRA:                  -0.142
REMARK UNBOUND:                -0.122
REMARK  Name = 1550473
REMARK  2 active torsions:
REMARK  status: ('A' for Active; 'I' for Inactive)
REMARK    1  A    between atoms: N_1  and  C_4
REMARK    2  A    between atoms: C_4  and  C_5
REMARK                            x       y       z     vdW  Elec       q    Type
REMARK                         _______ _______ _______ _____ _____    ______ ____
ROOT
ATOM      1  N   UNL     1      -6.539  11.689  -4.484  0.00  0.00    -0.354 N 
ATOM      2  N   UNL     1      -6.492  12.984  -6.405  0.00  0.00    -0.372 N 
ATOM      3  N   UNL     1      -8.421  11.861  -5.870  0.00  0.00    -0.372 N 
ATOM      4  C   UNL     1      -7.153  12.168  -5.574  0.00  0.00    +0.166 C 
ATOM      5  H   UNL     1      -5.567  11.936  -4.332  0.00  0.00    +0.163 HD
ATOM      6  H   UNL     1      -6.931  13.363  -7.233  0.00  0.00    +0.159 HD
ATOM      7  H   UNL     1      -5.536  13.265  -6.226  0.00  0.00    +0.159 HD
ATOM      8  H   UNL     1      -8.973  11.246  -5.287  0.00  0.00    +0.159 HD
ATOM      9  H   UNL     1      -8.874  12.221  -6.701  0.00  0.00    +0.159 HD
ENDROOT
BRANCH   1  10
ATOM     10  C   UNL     1      -7.186  10.838  -3.488  0.00  0.00    +0.151 C 
BRANCH  10  11
ATOM     11  C   UNL     1      -6.969  11.428  -2.122  0.00  0.00    -0.028 A 
ATOM     12  C   UNL     1      -5.969  12.389  -1.912  0.00  0.00    +0.005 A 
ATOM     13  C   UNL     1      -7.765  11.035  -1.035  0.00  0.00    +0.005 A 
ATOM     14  C   UNL     1      -5.788  12.959  -0.650  0.00  0.00    +0.000 A 
ATOM     15  C   UNL     1      -7.580  11.607   0.224  0.00  0.00    +0.000 A 
ATOM     16  C   UNL     1      -6.593  12.570   0.415  0.00  0.00    +0.000 A 
ENDBRANCH  10  11
ENDBRANCH   1  10
TORSDOF 2
ENDMDL
MODEL 3
REMARK VINA RESULT:    -6.009      1.445      2.227
REMARK INTER + INTRA:          -6.833
REMARK INTER:                  -6.737
REMARK INTRA:                  -0.097
REMARK UNBOUND:                -0.122
REMARK  Name = 1550473
REMARK  2 active torsions:
REMARK  status: ('A' for Active; 'I' for Inactive)
REMARK    1  A    between atoms: N_1  and  C_4
REMARK    2  A    between atoms: C_4  and  C_5
REMARK                            x       y       z     vdW  Elec       q    Type
REMARK                         _______ _______ _______ _____ _____    ______ ____
ROOT
ATOM      1  N   UNL     1      -9.515  11.097  -3.283  0.00  0.00    -0.354 N 
ATOM      2  N   UNL     1     -11.275  11.563  -4.715  0.00  0.00    -0.372 N 
ATOM      3  N   UNL     1      -9.809   9.886  -5.267  0.00  0.00    -0.372 N 
ATOM      4  C   UNL     1     -10.187  10.844  -4.414  0.00  0.00    +0.166 C 
ATOM      5  H   UNL     1      -9.835  11.857  -2.693  0.00  0.00    +0.163 HD
ATOM      6  H   UNL     1     -11.804  11.393  -5.560  0.00  0.00    +0.159 HD
ATOM      7  H   UNL     1     -11.619  12.291  -4.101  0.00  0.00    +0.159 HD
ATOM      8  H   UNL     1      -8.994   9.312  -5.101  0.00  0.00    +0.159 HD
ATOM      9  H   UNL     1     -10.319   9.708  -6.124  0.00  0.00    +0.159 HD
ENDROOT
BRANCH   1  10
ATOM     10  C   UNL     1      -8.350  10.337  -2.836  0.00  0.00    +0.151 C 
BRANCH  10  11
ATOM     11  C   UNL     1      -7.512  11.204  -1.938  0.00  0.00    -0.028 A 
ATOM     12  C   UNL     1      -6.388  11.875  -2.442  0.00  0.00    +0.005 A 
ATOM     13  C   UNL     1      -7.839  11.364  -0.582  0.00  0.00    +0.005 A 
ATOM     14  C   UNL     1      -5.627  12.705  -1.616  0.00  0.00    +0.000 A 
ATOM     15  C   UNL     1      -7.076  12.192   0.240  0.00  0.00    +0.000 A 
ATOM     16  C   UNL     1      -5.971  12.865  -0.278  0.00  0.00    +0.000 A 
ENDBRANCH  10  11
ENDBRANCH   1  10
TORSDOF 2
ENDMDL
MODEL 4
REMARK VINA RESULT:    -5.905      3.096      4.991
REMARK INTER + INTRA:          -6.718
REMARK INTER:                  -6.569
REMARK INTRA:                  -0.149
REMARK UNBOUND:                -0.122
REMARK  Name = 1550473
REMARK  2 active torsions:
REMARK  status: ('A' for Active; 'I' for Inactive)
REMARK    1  A    between atoms: N_1  and  C_4
REMARK    2  A    between atoms: C_4  and  C_5
REMARK                            x       y       z     vdW  Elec       q    Type
REMARK                         _______ _______ _______ _____ _____    ______ ____
ROOT
ATOM      1  N   UNL     1      -7.008  11.537  -0.480  0.00  0.00    -0.354 N 
ATOM      2  N   UNL     1      -7.278  13.023   1.276  0.00  0.00    -0.372 N 
ATOM      3  N   UNL     1      -5.702  13.477  -0.329  0.00  0.00    -0.372 N 
ATOM      4  C   UNL     1      -6.659  12.670   0.143  0.00  0.00    +0.166 C 
ATOM      5  H   UNL     1      -7.720  10.954  -0.055  0.00  0.00    +0.163 HD
ATOM      6  H   UNL     1      -7.038  13.874   1.766  0.00  0.00    +0.159 HD
ATOM      7  H   UNL     1      -8.021  12.462   1.674  0.00  0.00    +0.159 HD
ATOM      8  H   UNL     1      -5.192  13.265  -1.176  0.00  0.00    +0.159 HD
ATOM      9  H   UNL     1      -5.440  14.327   0.154  0.00  0.00    +0.159 HD
ENDROOT
BRANCH   1  10
ATOM     10  C   UNL     1      -6.433  11.090  -1.747  0.00  0.00    +0.151 C 
BRANCH  10  11
ATOM     11  C   UNL     1      -7.527  10.990  -2.775  0.00  0.00    -0.028 A 
ATOM     12  C   UNL     1      -8.873  10.986  -2.383  0.00  0.00    +0.005 A 
ATOM     13  C   UNL     1      -7.223  10.904  -4.142  0.00  0.00    +0.005 A 
ATOM     14  C   UNL     1      -9.890  10.923  -3.339  0.00  0.00    +0.000 A 
ATOM     15  C   UNL     1      -8.241  10.841  -5.093  0.00  0.00    +0.000 A 
ATOM     16  C   UNL     1      -9.574  10.853  -4.691  0.00  0.00    +0.000 A 
ENDBRANCH  10  11
ENDBRANCH   1  10
TORSDOF 2
ENDMDL
MODEL 5
REMARK VINA RESULT:    -5.163      2.900      4.196
REMARK INTER + INTRA:          -5.888
REMARK INTER:                  -5.742
REMARK INTRA:                  -0.146
REMARK UNBOUND:                -0.122
REMARK  Name = 1550473
REMARK  2 active torsions:
REMARK  status: ('A' for Active; 'I' for Inactive)
REMARK    1  A    between atoms: N_1  and  C_4
REMARK    2  A    between atoms: C_4  and  C_5
REMARK                            x       y       z     vdW  Elec       q    Type
REMARK                         _______ _______ _______ _____ _____    ______ ____
ROOT
ATOM      1  N   UNL     1     -11.119   9.476  -6.640  0.00  0.00    -0.354 N 
ATOM      2  N   UNL     1     -13.385   9.531  -7.117  0.00  0.00    -0.372 N 
ATOM      3  N   UNL     1     -12.112  11.387  -7.565  0.00  0.00    -0.372 N 
ATOM      4  C   UNL     1     -12.190  10.134  -7.105  0.00  0.00    +0.166 C 
ATOM      5  H   UNL     1     -11.250   8.539  -6.277  0.00  0.00    +0.163 HD
ATOM      6  H   UNL     1     -14.210  10.001  -7.465  0.00  0.00    +0.159 HD
ATOM      7  H   UNL     1     -13.505   8.578  -6.796  0.00  0.00    +0.159 HD
ATOM      8  H   UNL     1     -11.240  11.900  -7.578  0.00  0.00    +0.159 HD
ATOM      9  H   UNL     1     -12.929  11.878  -7.906  0.00  0.00    +0.159 HD
ENDROOT
BRANCH   1  10
ATOM     10  C   UNL     1      -9.763  10.023  -6.633  0.00  0.00    +0.151 C 
BRANCH  10  11
ATOM     11  C   UNL     1      -9.291  10.148  -5.211  0.00  0.00    -0.028 A 
ATOM     12  C   UNL     1     -10.011  10.920  -4.288  0.00  0.00    +0.005 A 
ATOM     13  C   UNL     1      -8.128   9.493  -4.779  0.00  0.00    +0.005 A 
ATOM     14  C   UNL     1      -9.590  11.013  -2.959  0.00  0.00    +0.000 A 
ATOM     15  C   UNL     1      -7.710   9.589  -3.452  0.00  0.00    +0.000 A 
ATOM     16  C   UNL     1      -8.443  10.347  -2.542  0.00  0.00    +0.000 A 
ENDBRANCH  10  11
ENDBRANCH   1  10
TORSDOF 2
ENDMDL
MODEL 6
REMARK VINA RESULT:    -5.010      2.369      4.976
REMARK INTER + INTRA:          -5.718
REMARK INTER:                  -5.572
REMARK INTRA:                  -0.146
REMARK UNBOUND:                -0.122
REMARK  Name = 1550473
REMARK  2 active torsions:
REMARK  status: ('A' for Active; 'I' for Inactive)
REMARK    1  A    between atoms: N_1  and  C_4
REMARK    2  A    between atoms: C_4  and  C_5
REMARK                            x       y       z     vdW  Elec       q    Type
REMARK                         _______ _______ _______ _____ _____    ______ ____
ROOT
ATOM      1  N   UNL     1      -6.759  11.040  -3.296  0.00  0.00    -0.354 N 
ATOM      2  N   UNL     1      -5.817  12.597  -1.863  0.00  0.00    -0.372 N 
ATOM      3  N   UNL     1      -7.261  11.033  -1.007  0.00  0.00    -0.372 N 
ATOM      4  C   UNL     1      -6.620  11.545  -2.063  0.00  0.00    +0.166 C 
ATOM      5  H   UNL     1      -6.269  11.492  -4.059  0.00  0.00    +0.163 HD
ATOM      6  H   UNL     1      -5.690  12.998  -0.944  0.00  0.00    +0.159 HD
ATOM      7  H   UNL     1      -5.293  13.019  -2.620  0.00  0.00    +0.159 HD
ATOM      8  H   UNL     1      -7.887  10.243  -1.091  0.00  0.00    +0.159 HD
ATOM      9  H   UNL     1      -7.156  11.428  -0.080  0.00  0.00    +0.159 HD
ENDROOT
BRANCH   1  10
ATOM     10  C   UNL     1      -7.567   9.863  -3.611  0.00  0.00    +0.151 C 
BRANCH  10  11
ATOM     11  C   UNL     1      -8.778  10.294  -4.391  0.00  0.00    -0.028 A 
ATOM     12  C   UNL     1      -8.938   9.907  -5.730  0.00  0.00    +0.005 A 
ATOM     13  C   UNL     1      -9.774  11.084  -3.795  0.00  0.00    +0.005 A 
ATOM     14  C   UNL     1     -10.077  10.282  -6.446  0.00  0.00    +0.000 A 
ATOM     15  C   UNL     1     -10.909  11.457  -4.514  0.00  0.00    +0.000 A 
ATOM     16  C   UNL     1     -11.062  11.053  -5.838  0.00  0.00    +0.000 A 
ENDBRANCH  10  11
ENDBRANCH   1  10
TORSDOF 2
ENDMDL
MODEL 7
REMARK VINA RESULT:    -4.969     27.345     28.220
REMARK INTER + INTRA:          -5.672
REMARK INTER:                  -5.544
REMARK INTRA:                  -0.128
REMARK UNBOUND:                -0.122
REMARK  Name = 1550473
REMARK  2 active torsions:
REMARK  status: ('A' for Active; 'I' for Inactive)
REMARK    1  A    between atoms: N_1  and  C_4
REMARK    2  A    between atoms: C_4  and  C_5
REMARK                            x       y       z     vdW  Elec       q    Type
REMARK                         _______ _______ _______ _____ _____    ______ ____
ROOT
ATOM      1  N   UNL     1      -6.494 -11.242 -19.875  0.00  0.00    -0.354 N 
ATOM      2  N   UNL     1      -6.817 -12.472 -17.939  0.00  0.00    -0.372 N 
ATOM      3  N   UNL     1      -6.861 -13.554 -19.962  0.00  0.00    -0.372 N 
ATOM      4  C   UNL     1      -6.722 -12.417 -19.273  0.00  0.00    +0.166 C 
ATOM      5  H   UNL     1      -6.429 -10.410 -19.298  0.00  0.00    +0.163 HD
ATOM      6  H   UNL     1      -6.985 -13.344 -17.457  0.00  0.00    +0.159 HD
ATOM      7  H   UNL     1      -6.705 -11.647 -17.362  0.00  0.00    +0.159 HD
ATOM      8  H   UNL     1      -6.807 -13.580 -20.971  0.00  0.00    +0.159 HD
ATOM      9  H   UNL     1      -7.042 -14.436 -19.498  0.00  0.00    +0.159 HD
ENDROOT
BRANCH   1  10
ATOM     10  C   UNL     1      -6.321 -11.082 -21.317  0.00  0.00    +0.151 C 
BRANCH  10  11
ATOM     11  C   UNL     1      -6.901  -9.760 -21.738  0.00  0.00    -0.028 A 
ATOM     12  C   UNL     1      -8.156  -9.349 -21.264  0.00  0.00    +0.005 A 
ATOM     13  C   UNL     1      -6.199  -8.910 -22.607  0.00  0.00    +0.005 A 
ATOM     14  C   UNL     1      -8.682  -8.108 -21.631  0.00  0.00    +0.000 A 
ATOM     15  C   UNL     1      -6.728  -7.672 -22.971  0.00  0.00    +0.000 A 
ATOM     16  C   UNL     1      -7.968  -7.270 -22.481  0.00  0.00    +0.000 A 
ENDBRANCH  10  11
ENDBRANCH   1  10
TORSDOF 2
ENDMDL
MODEL 8
REMARK VINA RESULT:    -4.900     28.662     29.778
REMARK INTER + INTRA:          -5.594
REMARK INTER:                  -5.443
REMARK INTRA:                  -0.151
REMARK UNBOUND:                -0.122
REMARK  Name = 1550473
REMARK  2 active torsions:
REMARK  status: ('A' for Active; 'I' for Inactive)
REMARK    1  A    between atoms: N_1  and  C_4
REMARK    2  A    between atoms: C_4  and  C_5
REMARK                            x       y       z     vdW  Elec       q    Type
REMARK                         _______ _______ _______ _____ _____    ______ ____
ROOT
ATOM      1  N   UNL     1      -6.822 -13.422 -19.649  0.00  0.00    -0.354 N 
ATOM      2  N   UNL     1      -8.110 -14.099 -17.847  0.00  0.00    -0.372 N 
ATOM      3  N   UNL     1      -6.843 -12.196 -17.652  0.00  0.00    -0.372 N 
ATOM      4  C   UNL     1      -7.248 -13.232 -18.393  0.00  0.00    +0.166 C 
ATOM      5  H   UNL     1      -7.143 -14.244 -20.147  0.00  0.00    +0.163 HD
ATOM      6  H   UNL     1      -8.452 -13.980 -16.903  0.00  0.00    +0.159 HD
ATOM      7  H   UNL     1      -8.464 -14.895 -18.364  0.00  0.00    +0.159 HD
ATOM      8  H   UNL     1      -6.190 -11.509 -18.004  0.00  0.00    +0.159 HD
ATOM      9  H   UNL     1      -7.166 -12.066 -16.701  0.00  0.00    +0.159 HD
ENDROOT
BRANCH   1  10
ATOM     10  C   UNL     1      -5.926 -12.508 -20.355  0.00  0.00    +0.151 C 
BRANCH  10  11
ATOM     11  C   UNL     1      -4.504 -12.949 -20.141  0.00  0.00    -0.028 A 
ATOM     12  C   UNL     1      -3.508 -12.014 -19.828  0.00  0.00    +0.005 A 
ATOM     13  C   UNL     1      -4.149 -14.303 -20.243  0.00  0.00    +0.005 A 
ATOM     14  C   UNL     1      -2.193 -12.427 -19.599  0.00  0.00    +0.000 A 
ATOM     15  C   UNL     1      -2.835 -14.712 -20.014  0.00  0.00    +0.000 A 
ATOM     16  C   UNL     1      -1.858 -13.774 -19.690  0.00  0.00    +0.000 A 
ENDBRANCH  10  11
ENDBRANCH   1  10
TORSDOF 2
ENDMDL
MODEL 9
REMARK VINA RESULT:    -4.717      2.417      3.438
REMARK INTER + INTRA:          -5.391
REMARK INTER:                  -5.293
REMARK INTRA:                  -0.097
REMARK UNBOUND:                -0.122
REMARK  Name = 1550473
REMARK  2 active torsions:
REMARK  status: ('A' for Active; 'I' for Inactive)
REMARK    1  A    between atoms: N_1  and  C_4
REMARK    2  A    between atoms: C_4  and  C_5
REMARK                            x       y       z     vdW  Elec       q    Type
REMARK                         _______ _______ _______ _____ _____    ______ ____
ROOT
ATOM      1  N   UNL     1      -9.731  11.272  -7.031  0.00  0.00    -0.354 N 
ATOM      2  N   UNL     1      -8.743  12.952  -8.283  0.00  0.00    -0.372 N 
ATOM      3  N   UNL     1      -7.487  11.126  -7.689  0.00  0.00    -0.372 N 
ATOM      4  C   UNL     1      -8.658  11.771  -7.659  0.00  0.00    +0.166 C 
ATOM      5  H   UNL     1     -10.581  11.824  -7.019  0.00  0.00    +0.163 HD
ATOM      6  H   UNL     1      -7.951  13.351  -8.768  0.00  0.00    +0.159 HD
ATOM      7  H   UNL     1      -9.607  13.480  -8.308  0.00  0.00    +0.159 HD
ATOM      8  H   UNL     1      -7.355  10.233  -7.232  0.00  0.00    +0.159 HD
ATOM      9  H   UNL     1      -6.679  11.515  -8.159  0.00  0.00    +0.159 HD
ENDROOT
BRANCH   1  10
ATOM     10  C   UNL     1      -9.759   9.970  -6.367  0.00  0.00    +0.151 C 
BRANCH  10  11
ATOM     11  C   UNL     1      -9.236  10.122  -4.966  0.00  0.00    -0.028 A 
ATOM     12  C   UNL     1      -9.925  10.907  -4.030  0.00  0.00    +0.005 A 
ATOM     13  C   UNL     1      -8.055   9.478  -4.566  0.00  0.00    +0.005 A 
ATOM     14  C   UNL     1      -9.455  11.024  -2.719  0.00  0.00    +0.000 A 
ATOM     15  C   UNL     1      -7.589   9.598  -3.257  0.00  0.00    +0.000 A 
ATOM     16  C   UNL     1      -8.291  10.369  -2.333  0.00  0.00    +0.000 A 
ENDBRANCH  10  11
ENDBRANCH   1  10
TORSDOF 2
ENDMDL
