MODEL 1
REMARK VINA RESULT:    -4.760      0.000      0.000
REMARK INTER + INTRA:          -5.459
REMARK INTER:                  -5.316
REMARK INTRA:                  -0.142
REMARK UNBOUND:                -0.142
REMARK  Name = 1550473
REMARK  2 active torsions:
REMARK  status: ('A' for Active; 'I' for Inactive)
REMARK    1  A    between atoms: N_1  and  C_4
REMARK    2  A    between atoms: C_4  and  C_5
REMARK                            x       y       z     vdW  Elec       q    Type
REMARK                         _______ _______ _______ _____ _____    ______ ____
ROOT
ATOM      1  N   UNL     1       5.513  -5.650 -12.514  0.00  0.00    -0.354 N 
ATOM      2  N   UNL     1       7.058  -5.638 -10.788  0.00  0.00    -0.372 N 
ATOM      3  N   UNL     1       7.815  -5.612 -12.954  0.00  0.00    -0.372 N 
ATOM      4  C   UNL     1       6.787  -5.633 -12.099  0.00  0.00    +0.166 C 
ATOM      5  H   UNL     1       4.780  -5.696 -11.816  0.00  0.00    +0.163 HD
ATOM      6  H   UNL     1       8.009  -5.622 -10.445  0.00  0.00    +0.159 HD
ATOM      7  H   UNL     1       6.322  -5.638 -10.092  0.00  0.00    +0.159 HD
ATOM      8  H   UNL     1       7.678  -5.613 -13.956  0.00  0.00    +0.159 HD
ATOM      9  H   UNL     1       8.774  -5.608 -12.631  0.00  0.00    +0.159 HD
ENDROOT
BRANCH   1  10
ATOM     10  C   UNL     1       5.110  -5.593 -13.918  0.00  0.00    +0.151 C 
BRANCH  10  11
ATOM     11  C   UNL     1       4.147  -4.453 -14.107  0.00  0.00    -0.028 A 
ATOM     12  C   UNL     1       4.477  -3.162 -13.667  0.00  0.00    +0.005 A 
ATOM     13  C   UNL     1       2.906  -4.656 -14.729  0.00  0.00    +0.005 A 
ATOM     14  C   UNL     1       3.595  -2.097 -13.869  0.00  0.00    +0.000 A 
ATOM     15  C   UNL     1       2.028  -3.590 -14.928  0.00  0.00    +0.000 A 
ATOM     16  C   UNL     1       2.374  -2.311 -14.500  0.00  0.00    +0.000 A 
ENDBRANCH  10  11
ENDBRANCH   1  10
TORSDOF 2
ENDMDL
MODEL 2
REMARK VINA RESULT:    -4.683     18.750     20.204
REMARK INTER + INTRA:          -5.373
REMARK INTER:                  -5.238
REMARK INTRA:                  -0.134
REMARK UNBOUND:                -0.142
REMARK  Name = 1550473
REMARK  2 active torsions:
REMARK  status: ('A' for Active; 'I' for Inactive)
REMARK    1  A    between atoms: N_1  and  C_4
REMARK    2  A    between atoms: C_4  and  C_5
REMARK                            x       y       z     vdW  Elec       q    Type
REMARK                         _______ _______ _______ _____ _____    ______ ____
ROOT
ATOM      1  N   UNL     1       9.927  -0.083   5.641  0.00  0.00    -0.354 N 
ATOM      2  N   UNL     1       9.007   0.486   7.689  0.00  0.00    -0.372 N 
ATOM      3  N   UNL     1      10.058   2.111   6.456  0.00  0.00    -0.372 N 
ATOM      4  C   UNL     1       9.671   0.837   6.581  0.00  0.00    +0.166 C 
ATOM      5  H   UNL     1       9.634  -1.038   5.810  0.00  0.00    +0.163 HD
ATOM      6  H   UNL     1       8.797   1.158   8.415  0.00  0.00    +0.159 HD
ATOM      7  H   UNL     1       8.675  -0.460   7.835  0.00  0.00    +0.159 HD
ATOM      8  H   UNL     1      10.568   2.438   5.646  0.00  0.00    +0.159 HD
ATOM      9  H   UNL     1       9.867   2.796   7.176  0.00  0.00    +0.159 HD
ENDROOT
BRANCH   1  10
ATOM     10  C   UNL     1      10.595   0.208   4.374  0.00  0.00    +0.151 C 
BRANCH  10  11
ATOM     11  C   UNL     1      11.499  -0.941   4.021  0.00  0.00    -0.028 A 
ATOM     12  C   UNL     1      11.832  -1.200   2.683  0.00  0.00    +0.005 A 
ATOM     13  C   UNL     1      12.029  -1.772   5.020  0.00  0.00    +0.005 A 
ATOM     14  C   UNL     1      12.696  -2.249   2.357  0.00  0.00    +0.000 A 
ATOM     15  C   UNL     1      12.890  -2.819   4.690  0.00  0.00    +0.000 A 
ATOM     16  C   UNL     1      13.225  -3.055   3.359  0.00  0.00    +0.000 A 
ENDBRANCH  10  11
ENDBRANCH   1  10
TORSDOF 2
ENDMDL
MODEL 3
REMARK VINA RESULT:    -4.643      3.295      4.903
REMARK INTER + INTRA:          -5.329
REMARK INTER:                  -5.208
REMARK INTRA:                  -0.120
REMARK UNBOUND:                -0.142
REMARK  Name = 1550473
REMARK  2 active torsions:
REMARK  status: ('A' for Active; 'I' for Inactive)
REMARK    1  A    between atoms: N_1  and  C_4
REMARK    2  A    between atoms: C_4  and  C_5
REMARK                            x       y       z     vdW  Elec       q    Type
REMARK                         _______ _______ _______ _____ _____    ______ ____
ROOT
ATOM      1  N   UNL     1       2.101  -3.187 -14.536  0.00  0.00    -0.354 N 
ATOM      2  N   UNL     1       2.087  -0.998 -13.779  0.00  0.00    -0.372 N 
ATOM      3  N   UNL     1       3.061  -1.465 -15.804  0.00  0.00    -0.372 N 
ATOM      4  C   UNL     1       2.418  -1.897 -14.714  0.00  0.00    +0.166 C 
ATOM      5  H   UNL     1       1.640  -3.455 -13.674  0.00  0.00    +0.163 HD
ATOM      6  H   UNL     1       2.310  -0.018 -13.887  0.00  0.00    +0.159 HD
ATOM      7  H   UNL     1       1.586  -1.262 -12.940  0.00  0.00    +0.159 HD
ATOM      8  H   UNL     1       3.344  -2.094 -16.543  0.00  0.00    +0.159 HD
ATOM      9  H   UNL     1       3.303  -0.490 -15.924  0.00  0.00    +0.159 HD
ENDROOT
BRANCH   1  10
ATOM     10  C   UNL     1       2.368  -4.237 -15.518  0.00  0.00    +0.151 C 
BRANCH  10  11
ATOM     11  C   UNL     1       3.605  -4.988 -15.109  0.00  0.00    -0.028 A 
ATOM     12  C   UNL     1       4.308  -5.764 -16.042  0.00  0.00    +0.005 A 
ATOM     13  C   UNL     1       4.083  -4.923 -13.791  0.00  0.00    +0.005 A 
ATOM     14  C   UNL     1       5.474  -6.438 -15.670  0.00  0.00    +0.000 A 
ATOM     15  C   UNL     1       5.247  -5.598 -13.423  0.00  0.00    +0.000 A 
ATOM     16  C   UNL     1       5.943  -6.354 -14.364  0.00  0.00    +0.000 A 
ENDBRANCH  10  11
ENDBRANCH   1  10
TORSDOF 2
ENDMDL
MODEL 4
REMARK VINA RESULT:    -4.609     20.529     22.060
REMARK INTER + INTRA:          -5.290
REMARK INTER:                  -5.157
REMARK INTRA:                  -0.132
REMARK UNBOUND:                -0.142
REMARK  Name = 1550473
REMARK  2 active torsions:
REMARK  status: ('A' for Active; 'I' for Inactive)
REMARK    1  A    between atoms: N_1  and  C_4
REMARK    2  A    between atoms: C_4  and  C_5
REMARK                            x       y       z     vdW  Elec       q    Type
REMARK                         _______ _______ _______ _____ _____    ______ ____
ROOT
ATOM      1  N   UNL     1       9.553   0.807   5.696  0.00  0.00    -0.354 N 
ATOM      2  N   UNL     1      10.810  -1.127   5.479  0.00  0.00    -0.372 N 
ATOM      3  N   UNL     1      11.661   0.846   4.674  0.00  0.00    -0.372 N 
ATOM      4  C   UNL     1      10.668   0.190   5.283  0.00  0.00    +0.166 C 
ATOM      5  H   UNL     1       8.824   0.247   6.124  0.00  0.00    +0.163 HD
ATOM      6  H   UNL     1      11.641  -1.619   5.182  0.00  0.00    +0.159 HD
ATOM      7  H   UNL     1      10.099  -1.675   5.949  0.00  0.00    +0.159 HD
ATOM      8  H   UNL     1      11.613   1.839   4.490  0.00  0.00    +0.159 HD
ATOM      9  H   UNL     1      12.496   0.369   4.358  0.00  0.00    +0.159 HD
ENDROOT
BRANCH   1  10
ATOM     10  C   UNL     1       9.323   2.245   5.578  0.00  0.00    +0.151 C 
BRANCH  10  11
ATOM     11  C   UNL     1       8.962   2.797   6.930  0.00  0.00    -0.028 A 
ATOM     12  C   UNL     1       9.471   4.034   7.353  0.00  0.00    +0.005 A 
ATOM     13  C   UNL     1       8.107   2.091   7.790  0.00  0.00    +0.005 A 
ATOM     14  C   UNL     1       9.112   4.561   8.596  0.00  0.00    +0.000 A 
ATOM     15  C   UNL     1       7.752   2.620   9.030  0.00  0.00    +0.000 A 
ATOM     16  C   UNL     1       8.253   3.856   9.432  0.00  0.00    +0.000 A 
ENDBRANCH  10  11
ENDBRANCH   1  10
TORSDOF 2
ENDMDL
MODEL 5
REMARK VINA RESULT:    -4.564     22.136     23.468
REMARK INTER + INTRA:          -5.240
REMARK INTER:                  -5.125
REMARK INTRA:                  -0.115
REMARK UNBOUND:                -0.142
REMARK  Name = 1550473
REMARK  2 active torsions:
REMARK  status: ('A' for Active; 'I' for Inactive)
REMARK    1  A    between atoms: N_1  and  C_4
REMARK    2  A    between atoms: C_4  and  C_5
REMARK                            x       y       z     vdW  Elec       q    Type
REMARK                         _______ _______ _______ _____ _____    ______ ____
ROOT
ATOM      1  N   UNL     1      -3.054  12.269   1.711  0.00  0.00    -0.354 N 
ATOM      2  N   UNL     1      -5.332  12.346   1.299  0.00  0.00    -0.372 N 
ATOM      3  N   UNL     1      -4.280  14.235   2.066  0.00  0.00    -0.372 N 
ATOM      4  C   UNL     1      -4.207  12.952   1.696  0.00  0.00    +0.166 C 
ATOM      5  H   UNL     1      -3.071  11.291   1.447  0.00  0.00    +0.163 HD
ATOM      6  H   UNL     1      -6.216  12.836   1.274  0.00  0.00    +0.159 HD
ATOM      7  H   UNL     1      -5.338  11.380   0.992  0.00  0.00    +0.159 HD
ATOM      8  H   UNL     1      -3.468  14.748   2.381  0.00  0.00    +0.159 HD
ATOM      9  H   UNL     1      -5.158  14.740   2.059  0.00  0.00    +0.159 HD
ENDROOT
BRANCH   1  10
ATOM     10  C   UNL     1      -1.764  12.852   2.074  0.00  0.00    +0.151 C 
BRANCH  10  11
ATOM     11  C   UNL     1      -0.663  11.977   1.543  0.00  0.00    -0.028 A 
ATOM     12  C   UNL     1      -0.711  11.491   0.228  0.00  0.00    +0.005 A 
ATOM     13  C   UNL     1       0.435  11.634   2.347  0.00  0.00    +0.005 A 
ATOM     14  C   UNL     1       0.326  10.703  -0.276  0.00  0.00    +0.000 A 
ATOM     15  C   UNL     1       1.469  10.846   1.840  0.00  0.00    +0.000 A 
ATOM     16  C   UNL     1       1.415  10.383   0.528  0.00  0.00    +0.000 A 
ENDBRANCH  10  11
ENDBRANCH   1  10
TORSDOF 2
ENDMDL
MODEL 6
REMARK VINA RESULT:    -4.560     23.305     25.201
REMARK INTER + INTRA:          -5.236
REMARK INTER:                  -5.083
REMARK INTRA:                  -0.152
REMARK UNBOUND:                -0.142
REMARK  Name = 1550473
REMARK  2 active torsions:
REMARK  status: ('A' for Active; 'I' for Inactive)
REMARK    1  A    between atoms: N_1  and  C_4
REMARK    2  A    between atoms: C_4  and  C_5
REMARK                            x       y       z     vdW  Elec       q    Type
REMARK                         _______ _______ _______ _____ _____    ______ ____
ROOT
ATOM      1  N   UNL     1      14.478   5.128   4.943  0.00  0.00    -0.354 N 
ATOM      2  N   UNL     1      15.561   5.415   2.917  0.00  0.00    -0.372 N 
ATOM      3  N   UNL     1      14.853   7.269   4.068  0.00  0.00    -0.372 N 
ATOM      4  C   UNL     1      14.956   5.938   3.990  0.00  0.00    +0.166 C 
ATOM      5  H   UNL     1      14.560   4.126   4.810  0.00  0.00    +0.163 HD
ATOM      6  H   UNL     1      15.935   6.001   2.183  0.00  0.00    +0.159 HD
ATOM      7  H   UNL     1      15.683   4.415   2.808  0.00  0.00    +0.159 HD
ATOM      8  H   UNL     1      14.403   7.726   4.849  0.00  0.00    +0.159 HD
ATOM      9  H   UNL     1      15.211   7.872   3.338  0.00  0.00    +0.159 HD
ENDROOT
BRANCH   1  10
ATOM     10  C   UNL     1      13.850   5.598   6.177  0.00  0.00    +0.151 C 
BRANCH  10  11
ATOM     11  C   UNL     1      14.868   5.582   7.283  0.00  0.00    -0.028 A 
ATOM     12  C   UNL     1      15.893   4.624   7.294  0.00  0.00    +0.005 A 
ATOM     13  C   UNL     1      14.818   6.525   8.321  0.00  0.00    +0.005 A 
ATOM     14  C   UNL     1      16.857   4.627   8.305  0.00  0.00    +0.000 A 
ATOM     15  C   UNL     1      15.781   6.524   9.330  0.00  0.00    +0.000 A 
ATOM     16  C   UNL     1      16.802   5.577   9.320  0.00  0.00    +0.000 A 
ENDBRANCH  10  11
ENDBRANCH   1  10
TORSDOF 2
ENDMDL
MODEL 7
REMARK VINA RESULT:    -4.536     14.793     16.167
REMARK INTER + INTRA:          -5.209
REMARK INTER:                  -5.102
REMARK INTRA:                  -0.107
REMARK UNBOUND:                -0.142
REMARK  Name = 1550473
REMARK  2 active torsions:
REMARK  status: ('A' for Active; 'I' for Inactive)
REMARK    1  A    between atoms: N_1  and  C_4
REMARK    2  A    between atoms: C_4  and  C_5
REMARK                            x       y       z     vdW  Elec       q    Type
REMARK                         _______ _______ _______ _____ _____    ______ ____
ROOT
ATOM      1  N   UNL     1       8.831  -8.463   1.049  0.00  0.00    -0.354 N 
ATOM      2  N   UNL     1      10.678  -7.954  -0.251  0.00  0.00    -0.372 N 
ATOM      3  N   UNL     1       8.996  -9.221  -1.162  0.00  0.00    -0.372 N 
ATOM      4  C   UNL     1       9.488  -8.551  -0.114  0.00  0.00    +0.166 C 
ATOM      5  H   UNL     1       9.272  -7.966   1.815  0.00  0.00    +0.163 HD
ATOM      6  H   UNL     1      11.196  -8.001  -1.118  0.00  0.00    +0.159 HD
ATOM      7  H   UNL     1      11.096  -7.419   0.501  0.00  0.00    +0.159 HD
ATOM      8  H   UNL     1       8.106  -9.699  -1.121  0.00  0.00    +0.159 HD
ATOM      9  H   UNL     1       9.505  -9.289  -2.034  0.00  0.00    +0.159 HD
ENDROOT
BRANCH   1  10
ATOM     10  C   UNL     1       7.505  -9.032   1.285  0.00  0.00    +0.151 C 
BRANCH  10  11
ATOM     11  C   UNL     1       6.755  -8.149   2.243  0.00  0.00    -0.028 A 
ATOM     12  C   UNL     1       6.709  -8.459   3.610  0.00  0.00    +0.005 A 
ATOM     13  C   UNL     1       6.092  -6.997   1.792  0.00  0.00    +0.005 A 
ATOM     14  C   UNL     1       6.038  -7.623   4.506  0.00  0.00    +0.000 A 
ATOM     15  C   UNL     1       5.422  -6.165   2.689  0.00  0.00    +0.000 A 
ATOM     16  C   UNL     1       5.397  -6.477   4.046  0.00  0.00    +0.000 A 
ENDBRANCH  10  11
ENDBRANCH   1  10
TORSDOF 2
ENDMDL
MODEL 8
REMARK VINA RESULT:    -4.503     25.607     26.526
REMARK INTER + INTRA:          -5.172
REMARK INTER:                  -5.034
REMARK INTRA:                  -0.138
REMARK UNBOUND:                -0.142
REMARK  Name = 1550473
REMARK  2 active torsions:
REMARK  status: ('A' for Active; 'I' for Inactive)
REMARK    1  A    between atoms: N_1  and  C_4
REMARK    2  A    between atoms: C_4  and  C_5
REMARK                            x       y       z     vdW  Elec       q    Type
REMARK                         _______ _______ _______ _____ _____    ______ ____
ROOT
ATOM      1  N   UNL     1     -15.786  -3.253   3.452  0.00  0.00    -0.354 N 
ATOM      2  N   UNL     1     -14.381  -5.011   4.001  0.00  0.00    -0.372 N 
ATOM      3  N   UNL     1     -16.639  -5.251   4.332  0.00  0.00    -0.372 N 
ATOM      4  C   UNL     1     -15.614  -4.495   3.926  0.00  0.00    +0.166 C 
ATOM      5  H   UNL     1     -14.965  -2.720   3.189  0.00  0.00    +0.163 HD
ATOM      6  H   UNL     1     -14.220  -5.946   4.350  0.00  0.00    +0.159 HD
ATOM      7  H   UNL     1     -13.567  -4.493   3.694  0.00  0.00    +0.159 HD
ATOM      8  H   UNL     1     -17.593  -4.918   4.306  0.00  0.00    +0.159 HD
ATOM      9  H   UNL     1     -16.497  -6.185   4.696  0.00  0.00    +0.159 HD
ENDROOT
BRANCH   1  10
ATOM     10  C   UNL     1     -17.091  -2.618   3.279  0.00  0.00    +0.151 C 
BRANCH  10  11
ATOM     11  C   UNL     1     -17.116  -1.898   1.959  0.00  0.00    -0.028 A 
ATOM     12  C   UNL     1     -17.976  -0.809   1.758  0.00  0.00    +0.005 A 
ATOM     13  C   UNL     1     -16.277  -2.296   0.907  0.00  0.00    +0.005 A 
ATOM     14  C   UNL     1     -17.978  -0.121   0.543  0.00  0.00    +0.000 A 
ATOM     15  C   UNL     1     -16.282  -1.607  -0.305  0.00  0.00    +0.000 A 
ATOM     16  C   UNL     1     -17.131  -0.518  -0.486  0.00  0.00    +0.000 A 
ENDBRANCH  10  11
ENDBRANCH   1  10
TORSDOF 2
ENDMDL
MODEL 9
REMARK VINA RESULT:    -4.398     16.644     18.322
REMARK INTER + INTRA:          -5.054
REMARK INTER:                  -4.915
REMARK INTRA:                  -0.140
REMARK UNBOUND:                -0.142
REMARK  Name = 1550473
REMARK  2 active torsions:
REMARK  status: ('A' for Active; 'I' for Inactive)
REMARK    1  A    between atoms: N_1  and  C_4
REMARK    2  A    between atoms: C_4  and  C_5
REMARK                            x       y       z     vdW  Elec       q    Type
REMARK                         _______ _______ _______ _____ _____    ______ ____
ROOT
ATOM      1  N   UNL     1       4.237  -7.120   4.654  0.00  0.00    -0.354 N 
ATOM      2  N   UNL     1       2.639  -7.596   6.262  0.00  0.00    -0.372 N 
ATOM      3  N   UNL     1       4.413  -6.253   6.824  0.00  0.00    -0.372 N 
ATOM      4  C   UNL     1       3.775  -6.985   5.904  0.00  0.00    +0.166 C 
ATOM      5  H   UNL     1       3.723  -7.713   4.012  0.00  0.00    +0.163 HD
ATOM      6  H   UNL     1       2.265  -7.510   7.197  0.00  0.00    +0.159 HD
ATOM      7  H   UNL     1       2.103  -8.151   5.605  0.00  0.00    +0.159 HD
ATOM      8  H   UNL     1       5.278  -5.772   6.619  0.00  0.00    +0.159 HD
ATOM      9  H   UNL     1       4.060  -6.165   7.769  0.00  0.00    +0.159 HD
ENDROOT
BRANCH   1  10
ATOM     10  C   UNL     1       5.435  -6.453   4.148  0.00  0.00    +0.151 C 
BRANCH  10  11
ATOM     11  C   UNL     1       6.289  -7.458   3.425  0.00  0.00    -0.028 A 
ATOM     12  C   UNL     1       6.712  -8.629   4.071  0.00  0.00    +0.005 A 
ATOM     13  C   UNL     1       6.672  -7.248   2.091  0.00  0.00    +0.005 A 
ATOM     14  C   UNL     1       7.479  -9.577   3.390  0.00  0.00    +0.000 A 
ATOM     15  C   UNL     1       7.440  -8.197   1.415  0.00  0.00    +0.000 A 
ATOM     16  C   UNL     1       7.841  -9.362   2.064  0.00  0.00    +0.000 A 
ENDBRANCH  10  11
ENDBRANCH   1  10
TORSDOF 2
ENDMDL
