MODEL 1
REMARK VINA RESULT:    -5.921      0.000      0.000
REMARK INTER + INTRA:          -6.721
REMARK INTER:                  -6.613
REMARK INTRA:                  -0.108
REMARK UNBOUND:                -0.108
REMARK  Name = 1550473
REMARK  2 active torsions:
REMARK  status: ('A' for Active; 'I' for Inactive)
REMARK    1  A    between atoms: N_1  and  C_4
REMARK    2  A    between atoms: C_4  and  C_5
REMARK                            x       y       z     vdW  Elec       q    Type
REMARK                         _______ _______ _______ _____ _____    ______ ____
ROOT
ATOM      1  N   UNL     1      -1.647  -8.812   1.919  0.00  0.00    -0.354 N 
ATOM      2  N   UNL     1      -0.361 -10.722   2.170  0.00  0.00    -0.372 N 
ATOM      3  N   UNL     1      -1.973 -10.256   3.735  0.00  0.00    -0.372 N 
ATOM      4  C   UNL     1      -1.337  -9.918   2.609  0.00  0.00    +0.166 C 
ATOM      5  H   UNL     1      -1.107  -8.596   1.088  0.00  0.00    +0.163 HD
ATOM      6  H   UNL     1      -0.107 -11.565   2.668  0.00  0.00    +0.159 HD
ATOM      7  H   UNL     1       0.146 -10.528   1.315  0.00  0.00    +0.159 HD
ATOM      8  H   UNL     1      -2.715  -9.688   4.123  0.00  0.00    +0.159 HD
ATOM      9  H   UNL     1      -1.725 -11.089   4.254  0.00  0.00    +0.159 HD
ENDROOT
BRANCH   1  10
ATOM     10  C   UNL     1      -2.728  -7.898   2.281  0.00  0.00    +0.151 C 
BRANCH  10  11
ATOM     11  C   UNL     1      -2.771  -6.769   1.289  0.00  0.00    -0.028 A 
ATOM     12  C   UNL     1      -2.870  -5.440   1.726  0.00  0.00    +0.005 A 
ATOM     13  C   UNL     1      -2.706  -7.021  -0.090  0.00  0.00    +0.005 A 
ATOM     14  C   UNL     1      -2.879  -4.389   0.805  0.00  0.00    +0.000 A 
ATOM     15  C   UNL     1      -2.717  -5.970  -1.006  0.00  0.00    +0.000 A 
ATOM     16  C   UNL     1      -2.801  -4.654  -0.558  0.00  0.00    +0.000 A 
ENDBRANCH  10  11
ENDBRANCH   1  10
TORSDOF 2
ENDMDL
MODEL 2
REMARK VINA RESULT:    -5.899      1.502      2.094
REMARK INTER + INTRA:          -6.697
REMARK INTER:                  -6.535
REMARK INTRA:                  -0.161
REMARK UNBOUND:                -0.108
REMARK  Name = 1550473
REMARK  2 active torsions:
REMARK  status: ('A' for Active; 'I' for Inactive)
REMARK    1  A    between atoms: N_1  and  C_4
REMARK    2  A    between atoms: C_4  and  C_5
REMARK                            x       y       z     vdW  Elec       q    Type
REMARK                         _______ _______ _______ _____ _____    ______ ____
ROOT
ATOM      1  N   UNL     1      -2.076  -7.079   3.666  0.00  0.00    -0.354 N 
ATOM      2  N   UNL     1      -0.772  -8.917   4.201  0.00  0.00    -0.372 N 
ATOM      3  N   UNL     1      -2.995  -9.234   3.728  0.00  0.00    -0.372 N 
ATOM      4  C   UNL     1      -1.958  -8.399   3.861  0.00  0.00    +0.166 C 
ATOM      5  H   UNL     1      -1.259  -6.497   3.812  0.00  0.00    +0.163 HD
ATOM      6  H   UNL     1      -0.652  -9.910   4.352  0.00  0.00    +0.159 HD
ATOM      7  H   UNL     1       0.053  -8.338   4.302  0.00  0.00    +0.159 HD
ATOM      8  H   UNL     1      -3.918  -8.906   3.479  0.00  0.00    +0.159 HD
ATOM      9  H   UNL     1      -2.897 -10.229   3.886  0.00  0.00    +0.159 HD
ENDROOT
BRANCH   1  10
ATOM     10  C   UNL     1      -3.310  -6.422   3.241  0.00  0.00    +0.151 C 
BRANCH  10  11
ATOM     11  C   UNL     1      -3.113  -5.848   1.865  0.00  0.00    -0.028 A 
ATOM     12  C   UNL     1      -3.081  -6.687   0.741  0.00  0.00    +0.005 A 
ATOM     13  C   UNL     1      -2.963  -4.466   1.677  0.00  0.00    +0.005 A 
ATOM     14  C   UNL     1      -2.927  -6.152  -0.540  0.00  0.00    +0.000 A 
ATOM     15  C   UNL     1      -2.809  -3.935   0.396  0.00  0.00    +0.000 A 
ATOM     16  C   UNL     1      -2.794  -4.779  -0.712  0.00  0.00    +0.000 A 
ENDBRANCH  10  11
ENDBRANCH   1  10
TORSDOF 2
ENDMDL
MODEL 3
REMARK VINA RESULT:    -5.577     19.592     20.172
REMARK INTER + INTRA:          -6.337
REMARK INTER:                  -6.154
REMARK INTRA:                  -0.183
REMARK UNBOUND:                -0.108
REMARK  Name = 1550473
REMARK  2 active torsions:
REMARK  status: ('A' for Active; 'I' for Inactive)
REMARK    1  A    between atoms: N_1  and  C_4
REMARK    2  A    between atoms: C_4  and  C_5
REMARK                            x       y       z     vdW  Elec       q    Type
REMARK                         _______ _______ _______ _____ _____    ______ ____
ROOT
ATOM      1  N   UNL     1      15.307   2.414  -0.502  0.00  0.00    -0.354 N 
ATOM      2  N   UNL     1      17.218   3.332  -1.435  0.00  0.00    -0.372 N 
ATOM      3  N   UNL     1      16.749   3.752   0.772  0.00  0.00    -0.372 N 
ATOM      4  C   UNL     1      16.412   3.161  -0.380  0.00  0.00    +0.166 C 
ATOM      5  H   UNL     1      15.092   2.018  -1.410  0.00  0.00    +0.163 HD
ATOM      6  H   UNL     1      18.060   3.888  -1.372  0.00  0.00    +0.159 HD
ATOM      7  H   UNL     1      17.024   2.898  -2.329  0.00  0.00    +0.159 HD
ATOM      8  H   UNL     1      16.180   3.667   1.604  0.00  0.00    +0.159 HD
ATOM      9  H   UNL     1      17.582   4.322   0.851  0.00  0.00    +0.159 HD
ENDROOT
BRANCH   1  10
ATOM     10  C   UNL     1      14.392   2.121   0.600  0.00  0.00    +0.151 C 
BRANCH  10  11
ATOM     11  C   UNL     1      14.706   0.757   1.150  0.00  0.00    -0.028 A 
ATOM     12  C   UNL     1      15.148   0.607   2.472  0.00  0.00    +0.005 A 
ATOM     13  C   UNL     1      14.557  -0.390   0.355  0.00  0.00    +0.005 A 
ATOM     14  C   UNL     1      15.411  -0.663   2.993  0.00  0.00    +0.000 A 
ATOM     15  C   UNL     1      14.822  -1.656   0.878  0.00  0.00    +0.000 A 
ATOM     16  C   UNL     1      15.246  -1.792   2.198  0.00  0.00    +0.000 A 
ENDBRANCH  10  11
ENDBRANCH   1  10
TORSDOF 2
ENDMDL
MODEL 4
REMARK VINA RESULT:    -5.382     20.735     21.746
REMARK INTER + INTRA:          -6.119
REMARK INTER:                  -5.969
REMARK INTRA:                  -0.150
REMARK UNBOUND:                -0.108
REMARK  Name = 1550473
REMARK  2 active torsions:
REMARK  status: ('A' for Active; 'I' for Inactive)
REMARK    1  A    between atoms: N_1  and  C_4
REMARK    2  A    between atoms: C_4  and  C_5
REMARK                            x       y       z     vdW  Elec       q    Type
REMARK                         _______ _______ _______ _____ _____    ______ ____
ROOT
ATOM      1  N   UNL     1      11.296   3.618 -11.453  0.00  0.00    -0.354 N 
ATOM      2  N   UNL     1      12.714   2.816 -13.099  0.00  0.00    -0.372 N 
ATOM      3  N   UNL     1      10.601   1.938 -12.932  0.00  0.00    -0.372 N 
ATOM      4  C   UNL     1      11.526   2.794 -12.484  0.00  0.00    +0.166 C 
ATOM      5  H   UNL     1      12.048   4.222 -11.143  0.00  0.00    +0.163 HD
ATOM      6  H   UNL     1      12.915   2.208 -13.882  0.00  0.00    +0.159 HD
ATOM      7  H   UNL     1      13.449   3.453 -12.816  0.00  0.00    +0.159 HD
ATOM      8  H   UNL     1       9.686   1.868 -12.507  0.00  0.00    +0.159 HD
ATOM      9  H   UNL     1      10.787   1.314 -13.706  0.00  0.00    +0.159 HD
ENDROOT
BRANCH   1  10
ATOM     10  C   UNL     1      10.018   3.711 -10.750  0.00  0.00    +0.151 C 
BRANCH  10  11
ATOM     11  C   UNL     1       9.477   5.107 -10.896  0.00  0.00    -0.028 A 
ATOM     12  C   UNL     1      10.327   6.166 -11.246  0.00  0.00    +0.005 A 
ATOM     13  C   UNL     1       8.115   5.375 -10.691  0.00  0.00    +0.005 A 
ATOM     14  C   UNL     1       9.819   7.457 -11.411  0.00  0.00    +0.000 A 
ATOM     15  C   UNL     1       7.613   6.666 -10.856  0.00  0.00    +0.000 A 
ATOM     16  C   UNL     1       8.465   7.706 -11.218  0.00  0.00    +0.000 A 
ENDBRANCH  10  11
ENDBRANCH   1  10
TORSDOF 2
ENDMDL
MODEL 5
REMARK VINA RESULT:    -5.372     19.304     19.830
REMARK INTER + INTRA:          -6.108
REMARK INTER:                  -5.992
REMARK INTRA:                  -0.116
REMARK UNBOUND:                -0.108
REMARK  Name = 1550473
REMARK  2 active torsions:
REMARK  status: ('A' for Active; 'I' for Inactive)
REMARK    1  A    between atoms: N_1  and  C_4
REMARK    2  A    between atoms: C_4  and  C_5
REMARK                            x       y       z     vdW  Elec       q    Type
REMARK                         _______ _______ _______ _____ _____    ______ ____
ROOT
ATOM      1  N   UNL     1      15.509   1.857   1.838  0.00  0.00    -0.354 N 
ATOM      2  N   UNL     1      16.443   3.880   1.206  0.00  0.00    -0.372 N 
ATOM      3  N   UNL     1      15.894   3.552   3.410  0.00  0.00    -0.372 N 
ATOM      4  C   UNL     1      15.942   3.084   2.158  0.00  0.00    +0.166 C 
ATOM      5  H   UNL     1      15.544   1.573   0.865  0.00  0.00    +0.163 HD
ATOM      6  H   UNL     1      16.780   4.810   1.419  0.00  0.00    +0.159 HD
ATOM      7  H   UNL     1      16.519   3.577   0.243  0.00  0.00    +0.159 HD
ATOM      8  H   UNL     1      15.522   3.002   4.173  0.00  0.00    +0.159 HD
ATOM      9  H   UNL     1      16.216   4.483   3.640  0.00  0.00    +0.159 HD
ENDROOT
BRANCH   1  10
ATOM     10  C   UNL     1      14.996   0.892   2.808  0.00  0.00    +0.151 C 
BRANCH  10  11
ATOM     11  C   UNL     1      15.028  -0.482   2.198  0.00  0.00    -0.028 A 
ATOM     12  C   UNL     1      14.833  -0.654   0.820  0.00  0.00    +0.005 A 
ATOM     13  C   UNL     1      15.258  -1.616   2.992  0.00  0.00    +0.005 A 
ATOM     14  C   UNL     1      14.893  -1.927   0.248  0.00  0.00    +0.000 A 
ATOM     15  C   UNL     1      15.316  -2.886   2.417  0.00  0.00    +0.000 A 
ATOM     16  C   UNL     1      15.136  -3.041   1.045  0.00  0.00    +0.000 A 
ENDBRANCH  10  11
ENDBRANCH   1  10
TORSDOF 2
ENDMDL
MODEL 6
REMARK VINA RESULT:    -5.268     12.302     13.490
REMARK INTER + INTRA:          -5.992
REMARK INTER:                  -5.860
REMARK INTRA:                  -0.131
REMARK UNBOUND:                -0.108
REMARK  Name = 1550473
REMARK  2 active torsions:
REMARK  status: ('A' for Active; 'I' for Inactive)
REMARK    1  A    between atoms: N_1  and  C_4
REMARK    2  A    between atoms: C_4  and  C_5
REMARK                            x       y       z     vdW  Elec       q    Type
REMARK                         _______ _______ _______ _____ _____    ______ ____
ROOT
ATOM      1  N   UNL     1     -11.631  -3.233  -6.990  0.00  0.00    -0.354 N 
ATOM      2  N   UNL     1     -13.627  -2.081  -6.760  0.00  0.00    -0.372 N 
ATOM      3  N   UNL     1     -13.287  -3.974  -5.507  0.00  0.00    -0.372 N 
ATOM      4  C   UNL     1     -12.836  -3.106  -6.419  0.00  0.00    +0.166 C 
ATOM      5  H   UNL     1     -11.360  -2.558  -7.697  0.00  0.00    +0.163 HD
ATOM      6  H   UNL     1     -14.540  -1.958  -6.343  0.00  0.00    +0.159 HD
ATOM      7  H   UNL     1     -13.335  -1.383  -7.432  0.00  0.00    +0.159 HD
ATOM      8  H   UNL     1     -12.741  -4.771  -5.211  0.00  0.00    +0.159 HD
ATOM      9  H   UNL     1     -14.203  -3.873  -5.087  0.00  0.00    +0.159 HD
ENDROOT
BRANCH   1  10
ATOM     10  C   UNL     1     -10.671  -4.281  -6.650  0.00  0.00    +0.151 C 
BRANCH  10  11
ATOM     11  C   UNL     1      -9.866  -4.626  -7.873  0.00  0.00    -0.028 A 
ATOM     12  C   UNL     1     -10.386  -4.398  -9.155  0.00  0.00    +0.005 A 
ATOM     13  C   UNL     1      -8.581  -5.177  -7.755  0.00  0.00    +0.005 A 
ATOM     14  C   UNL     1      -9.628  -4.690 -10.291  0.00  0.00    +0.000 A 
ATOM     15  C   UNL     1      -7.827  -5.469  -8.892  0.00  0.00    +0.000 A 
ATOM     16  C   UNL     1      -8.350  -5.223 -10.159  0.00  0.00    +0.000 A 
ENDBRANCH  10  11
ENDBRANCH   1  10
TORSDOF 2
ENDMDL
MODEL 7
REMARK VINA RESULT:    -5.264     21.872     23.468
REMARK INTER + INTRA:          -5.987
REMARK INTER:                  -5.832
REMARK INTRA:                  -0.155
REMARK UNBOUND:                -0.108
REMARK  Name = 1550473
REMARK  2 active torsions:
REMARK  status: ('A' for Active; 'I' for Inactive)
REMARK    1  A    between atoms: N_1  and  C_4
REMARK    2  A    between atoms: C_4  and  C_5
REMARK                            x       y       z     vdW  Elec       q    Type
REMARK                         _______ _______ _______ _____ _____    ______ ____
ROOT
ATOM      1  N   UNL     1      10.326   9.729 -11.080  0.00  0.00    -0.354 N 
ATOM      2  N   UNL     1      10.676  11.445  -9.565  0.00  0.00    -0.372 N 
ATOM      3  N   UNL     1      12.228   9.762  -9.711  0.00  0.00    -0.372 N 
ATOM      4  C   UNL     1      11.076  10.299 -10.128  0.00  0.00    +0.166 C 
ATOM      5  H   UNL     1       9.449  10.171 -11.330  0.00  0.00    +0.163 HD
ATOM      6  H   UNL     1      11.223  11.901  -8.846  0.00  0.00    +0.159 HD
ATOM      7  H   UNL     1       9.821  11.909  -9.849  0.00  0.00    +0.159 HD
ATOM      8  H   UNL     1      12.583   8.895 -10.092  0.00  0.00    +0.159 HD
ATOM      9  H   UNL     1      12.783  10.196  -8.985  0.00  0.00    +0.159 HD
ENDROOT
BRANCH   1  10
ATOM     10  C   UNL     1      10.699   8.510 -11.794  0.00  0.00    +0.151 C 
BRANCH  10  11
ATOM     11  C   UNL     1       9.770   7.399 -11.388  0.00  0.00    -0.028 A 
ATOM     12  C   UNL     1       8.429   7.670 -11.077  0.00  0.00    +0.005 A 
ATOM     13  C   UNL     1      10.222   6.072 -11.319  0.00  0.00    +0.005 A 
ATOM     14  C   UNL     1       7.558   6.635 -10.729  0.00  0.00    +0.000 A 
ATOM     15  C   UNL     1       9.350   5.042 -10.970  0.00  0.00    +0.000 A 
ATOM     16  C   UNL     1       8.017   5.323 -10.678  0.00  0.00    +0.000 A 
ENDBRANCH  10  11
ENDBRANCH   1  10
TORSDOF 2
ENDMDL
MODEL 8
REMARK VINA RESULT:    -5.201     22.437     24.148
REMARK INTER + INTRA:          -5.917
REMARK INTER:                  -5.745
REMARK INTRA:                  -0.172
REMARK UNBOUND:                -0.108
REMARK  Name = 1550473
REMARK  2 active torsions:
REMARK  status: ('A' for Active; 'I' for Inactive)
REMARK    1  A    between atoms: N_1  and  C_4
REMARK    2  A    between atoms: C_4  and  C_5
REMARK                            x       y       z     vdW  Elec       q    Type
REMARK                         _______ _______ _______ _____ _____    ______ ____
ROOT
ATOM      1  N   UNL     1      10.983   8.945 -12.992  0.00  0.00    -0.354 N 
ATOM      2  N   UNL     1      11.192   9.423 -15.248  0.00  0.00    -0.372 N 
ATOM      3  N   UNL     1       9.396  10.267 -14.098  0.00  0.00    -0.372 N 
ATOM      4  C   UNL     1      10.520   9.543 -14.097  0.00  0.00    +0.166 C 
ATOM      5  H   UNL     1      11.825   8.385 -13.064  0.00  0.00    +0.163 HD
ATOM      6  H   UNL     1      10.869   9.866 -16.098  0.00  0.00    +0.159 HD
ATOM      7  H   UNL     1      12.058   8.901 -15.307  0.00  0.00    +0.159 HD
ATOM      8  H   UNL     1       8.839  10.392 -13.263  0.00  0.00    +0.159 HD
ATOM      9  H   UNL     1       9.050  10.708 -14.941  0.00  0.00    +0.159 HD
ENDROOT
BRANCH   1  10
ATOM     10  C   UNL     1      10.355   9.058 -11.676  0.00  0.00    +0.151 C 
BRANCH  10  11
ATOM     11  C   UNL     1       9.614   7.785 -11.375  0.00  0.00    -0.028 A 
ATOM     12  C   UNL     1      10.280   6.551 -11.400  0.00  0.00    +0.005 A 
ATOM     13  C   UNL     1       8.247   7.807 -11.058  0.00  0.00    +0.005 A 
ATOM     14  C   UNL     1       9.599   5.371 -11.090  0.00  0.00    +0.000 A 
ATOM     15  C   UNL     1       7.570   6.626 -10.751  0.00  0.00    +0.000 A 
ATOM     16  C   UNL     1       8.247   5.409 -10.764  0.00  0.00    +0.000 A 
ENDBRANCH  10  11
ENDBRANCH   1  10
TORSDOF 2
ENDMDL
MODEL 9
REMARK VINA RESULT:    -5.171     22.148     23.696
REMARK INTER + INTRA:          -5.883
REMARK INTER:                  -5.756
REMARK INTRA:                  -0.128
REMARK UNBOUND:                -0.108
REMARK  Name = 1550473
REMARK  2 active torsions:
REMARK  status: ('A' for Active; 'I' for Inactive)
REMARK    1  A    between atoms: N_1  and  C_4
REMARK    2  A    between atoms: C_4  and  C_5
REMARK                            x       y       z     vdW  Elec       q    Type
REMARK                         _______ _______ _______ _____ _____    ______ ____
ROOT
ATOM      1  N   UNL     1      11.945   7.124 -12.824  0.00  0.00    -0.354 N 
ATOM      2  N   UNL     1      13.425   8.405 -14.062  0.00  0.00    -0.372 N 
ATOM      3  N   UNL     1      14.204   7.282 -12.219  0.00  0.00    -0.372 N 
ATOM      4  C   UNL     1      13.183   7.595 -13.025  0.00  0.00    +0.166 C 
ATOM      5  H   UNL     1      11.209   7.422 -13.453  0.00  0.00    +0.163 HD
ATOM      6  H   UNL     1      14.350   8.773 -14.241  0.00  0.00    +0.159 HD
ATOM      7  H   UNL     1      12.697   8.665 -14.716  0.00  0.00    +0.159 HD
ATOM      8  H   UNL     1      14.086   6.680 -11.415  0.00  0.00    +0.159 HD
ATOM      9  H   UNL     1      15.134   7.650 -12.375  0.00  0.00    +0.159 HD
ENDROOT
BRANCH   1  10
ATOM     10  C   UNL     1      11.588   6.192 -11.756  0.00  0.00    +0.151 C 
BRANCH  10  11
ATOM     11  C   UNL     1      10.152   6.416 -11.369  0.00  0.00    -0.028 A 
ATOM     12  C   UNL     1       9.591   7.700 -11.423  0.00  0.00    +0.005 A 
ATOM     13  C   UNL     1       9.344   5.345 -10.955  0.00  0.00    +0.005 A 
ATOM     14  C   UNL     1       8.249   7.903 -11.093  0.00  0.00    +0.000 A 
ATOM     15  C   UNL     1       8.005   5.552 -10.626  0.00  0.00    +0.000 A 
ATOM     16  C   UNL     1       7.457   6.831 -10.697  0.00  0.00    +0.000 A 
ENDBRANCH  10  11
ENDBRANCH   1  10
TORSDOF 2
ENDMDL
