MODEL 1
REMARK VINA RESULT:    -5.319      0.000      0.000
REMARK INTER + INTRA:          -6.070
REMARK INTER:                  -5.941
REMARK INTRA:                  -0.130
REMARK UNBOUND:                -0.130
REMARK  Name = 1550473
REMARK  2 active torsions:
REMARK  status: ('A' for Active; 'I' for Inactive)
REMARK    1  A    between atoms: N_1  and  C_4
REMARK    2  A    between atoms: C_4  and  C_5
REMARK                            x       y       z     vdW  Elec       q    Type
REMARK                         _______ _______ _______ _____ _____    ______ ____
ROOT
ATOM      1  N   UNL     1      -9.611  -6.568  11.294  0.00  0.00    -0.354 N 
ATOM      2  N   UNL     1      -8.386  -6.187  13.222  0.00  0.00    -0.372 N 
ATOM      3  N   UNL     1      -7.583  -5.397  11.223  0.00  0.00    -0.372 N 
ATOM      4  C   UNL     1      -8.533  -6.052  11.899  0.00  0.00    +0.166 C 
ATOM      5  H   UNL     1     -10.280  -7.080  11.858  0.00  0.00    +0.163 HD
ATOM      6  H   UNL     1      -7.584  -5.806  13.707  0.00  0.00    +0.159 HD
ATOM      7  H   UNL     1      -9.079  -6.659  13.790  0.00  0.00    +0.159 HD
ATOM      8  H   UNL     1      -7.631  -5.266  10.222  0.00  0.00    +0.159 HD
ATOM      9  H   UNL     1      -6.767  -5.018  11.689  0.00  0.00    +0.159 HD
ENDROOT
BRANCH   1  10
ATOM     10  C   UNL     1      -9.893  -6.430   9.866  0.00  0.00    +0.151 C 
BRANCH  10  11
ATOM     11  C   UNL     1     -11.145  -5.617   9.689  0.00  0.00    -0.028 A 
ATOM     12  C   UNL     1     -11.621  -5.312   8.405  0.00  0.00    +0.005 A 
ATOM     13  C   UNL     1     -11.864  -5.153  10.801  0.00  0.00    +0.005 A 
ATOM     14  C   UNL     1     -12.800  -4.582   8.240  0.00  0.00    +0.000 A 
ATOM     15  C   UNL     1     -13.041  -4.423  10.632  0.00  0.00    +0.000 A 
ATOM     16  C   UNL     1     -13.510  -4.140   9.352  0.00  0.00    +0.000 A 
ENDBRANCH  10  11
ENDBRANCH   1  10
TORSDOF 2
ENDMDL
MODEL 2
REMARK VINA RESULT:    -5.001      2.238      3.100
REMARK INTER + INTRA:          -5.715
REMARK INTER:                  -5.592
REMARK INTRA:                  -0.123
REMARK UNBOUND:                -0.130
REMARK  Name = 1550473
REMARK  2 active torsions:
REMARK  status: ('A' for Active; 'I' for Inactive)
REMARK    1  A    between atoms: N_1  and  C_4
REMARK    2  A    between atoms: C_4  and  C_5
REMARK                            x       y       z     vdW  Elec       q    Type
REMARK                         _______ _______ _______ _____ _____    ______ ____
ROOT
ATOM      1  N   UNL     1     -10.796  -4.867  13.358  0.00  0.00    -0.354 N 
ATOM      2  N   UNL     1     -11.512  -4.141  15.438  0.00  0.00    -0.372 N 
ATOM      3  N   UNL     1      -9.464  -5.162  15.263  0.00  0.00    -0.372 N 
ATOM      4  C   UNL     1     -10.583  -4.729  14.673  0.00  0.00    +0.166 C 
ATOM      5  H   UNL     1     -11.679  -4.545  12.977  0.00  0.00    +0.163 HD
ATOM      6  H   UNL     1     -11.378  -4.021  16.433  0.00  0.00    +0.159 HD
ATOM      7  H   UNL     1     -12.373  -3.780  15.047  0.00  0.00    +0.159 HD
ATOM      8  H   UNL     1      -8.727  -5.619  14.743  0.00  0.00    +0.159 HD
ATOM      9  H   UNL     1      -9.316  -5.060  16.259  0.00  0.00    +0.159 HD
ENDROOT
BRANCH   1  10
ATOM     10  C   UNL     1      -9.827  -5.444  12.428  0.00  0.00    +0.151 C 
BRANCH  10  11
ATOM     11  C   UNL     1     -10.420  -5.460  11.047  0.00  0.00    -0.028 A 
ATOM     12  C   UNL     1     -11.760  -5.099  10.843  0.00  0.00    +0.005 A 
ATOM     13  C   UNL     1      -9.646  -5.831   9.936  0.00  0.00    +0.005 A 
ATOM     14  C   UNL     1     -12.303  -5.085   9.556  0.00  0.00    +0.000 A 
ATOM     15  C   UNL     1     -10.192  -5.817   8.653  0.00  0.00    +0.000 A 
ATOM     16  C   UNL     1     -11.520  -5.442   8.463  0.00  0.00    +0.000 A 
ENDBRANCH  10  11
ENDBRANCH   1  10
TORSDOF 2
ENDMDL
MODEL 3
REMARK VINA RESULT:    -4.866     21.158     22.574
REMARK INTER + INTRA:          -5.564
REMARK INTER:                  -5.389
REMARK INTRA:                  -0.176
REMARK UNBOUND:                -0.130
REMARK  Name = 1550473
REMARK  2 active torsions:
REMARK  status: ('A' for Active; 'I' for Inactive)
REMARK    1  A    between atoms: N_1  and  C_4
REMARK    2  A    between atoms: C_4  and  C_5
REMARK                            x       y       z     vdW  Elec       q    Type
REMARK                         _______ _______ _______ _____ _____    ______ ____
ROOT
ATOM      1  N   UNL     1      11.879   1.327  10.030  0.00  0.00    -0.354 N 
ATOM      2  N   UNL     1      14.171   1.094  10.273  0.00  0.00    -0.372 N 
ATOM      3  N   UNL     1      13.083   2.702  11.497  0.00  0.00    -0.372 N 
ATOM      4  C   UNL     1      13.029   1.711  10.600  0.00  0.00    +0.166 C 
ATOM      5  H   UNL     1      11.909   0.590   9.335  0.00  0.00    +0.163 HD
ATOM      6  H   UNL     1      15.053   1.360  10.689  0.00  0.00    +0.159 HD
ATOM      7  H   UNL     1      14.191   0.327   9.612  0.00  0.00    +0.159 HD
ATOM      8  H   UNL     1      12.258   3.212  11.782  0.00  0.00    +0.159 HD
ATOM      9  H   UNL     1      13.959   2.990  11.916  0.00  0.00    +0.159 HD
ENDROOT
BRANCH   1  10
ATOM     10  C   UNL     1      10.574   1.898  10.357  0.00  0.00    +0.151 C 
BRANCH  10  11
ATOM     11  C   UNL     1       9.864   0.984  11.318  0.00  0.00    -0.028 A 
ATOM     12  C   UNL     1       9.309   1.489  12.502  0.00  0.00    +0.005 A 
ATOM     13  C   UNL     1       9.740  -0.387  11.046  0.00  0.00    +0.005 A 
ATOM     14  C   UNL     1       8.624   0.646  13.380  0.00  0.00    +0.000 A 
ATOM     15  C   UNL     1       9.056  -1.226  11.926  0.00  0.00    +0.000 A 
ATOM     16  C   UNL     1       8.496  -0.709  13.092  0.00  0.00    +0.000 A 
ENDBRANCH  10  11
ENDBRANCH   1  10
TORSDOF 2
ENDMDL
MODEL 4
REMARK VINA RESULT:    -4.844      1.970      2.708
REMARK INTER + INTRA:          -5.540
REMARK INTER:                  -5.458
REMARK INTRA:                  -0.082
REMARK UNBOUND:                -0.130
REMARK  Name = 1550473
REMARK  2 active torsions:
REMARK  status: ('A' for Active; 'I' for Inactive)
REMARK    1  A    between atoms: N_1  and  C_4
REMARK    2  A    between atoms: C_4  and  C_5
REMARK                            x       y       z     vdW  Elec       q    Type
REMARK                         _______ _______ _______ _____ _____    ______ ____
ROOT
ATOM      1  N   UNL     1      -9.590  -5.719  11.704  0.00  0.00    -0.354 N 
ATOM      2  N   UNL     1      -7.275  -5.735  11.784  0.00  0.00    -0.372 N 
ATOM      3  N   UNL     1      -8.317  -4.662  10.044  0.00  0.00    -0.372 N 
ATOM      4  C   UNL     1      -8.409  -5.370  11.174  0.00  0.00    +0.166 C 
ATOM      5  H   UNL     1      -9.592  -6.282  12.546  0.00  0.00    +0.163 HD
ATOM      6  H   UNL     1      -6.370  -5.483  11.410  0.00  0.00    +0.159 HD
ATOM      7  H   UNL     1      -7.280  -6.258  12.651  0.00  0.00    +0.159 HD
ATOM      8  H   UNL     1      -9.136  -4.361   9.532  0.00  0.00    +0.159 HD
ATOM      9  H   UNL     1      -7.420  -4.411   9.647  0.00  0.00    +0.159 HD
ENDROOT
BRANCH   1  10
ATOM     10  C   UNL     1     -10.883  -5.326  11.147  0.00  0.00    +0.151 C 
BRANCH  10  11
ATOM     11  C   UNL     1     -11.511  -6.517  10.478  0.00  0.00    -0.028 A 
ATOM     12  C   UNL     1     -12.789  -6.421   9.906  0.00  0.00    +0.005 A 
ATOM     13  C   UNL     1     -10.832  -7.743  10.406  0.00  0.00    +0.005 A 
ATOM     14  C   UNL     1     -13.360  -7.518   9.257  0.00  0.00    +0.000 A 
ATOM     15  C   UNL     1     -11.407  -8.836   9.758  0.00  0.00    +0.000 A 
ATOM     16  C   UNL     1     -12.670  -8.723   9.182  0.00  0.00    +0.000 A 
ENDBRANCH  10  11
ENDBRANCH   1  10
TORSDOF 2
ENDMDL
MODEL 5
REMARK VINA RESULT:    -4.798      2.809      4.807
REMARK INTER + INTRA:          -5.488
REMARK INTER:                  -5.309
REMARK INTRA:                  -0.179
REMARK UNBOUND:                -0.130
REMARK  Name = 1550473
REMARK  2 active torsions:
REMARK  status: ('A' for Active; 'I' for Inactive)
REMARK    1  A    between atoms: N_1  and  C_4
REMARK    2  A    between atoms: C_4  and  C_5
REMARK                            x       y       z     vdW  Elec       q    Type
REMARK                         _______ _______ _______ _____ _____    ______ ____
ROOT
ATOM      1  N   UNL     1     -11.621  -4.817   8.526  0.00  0.00    -0.354 N 
ATOM      2  N   UNL     1     -13.642  -3.718   8.802  0.00  0.00    -0.372 N 
ATOM      3  N   UNL     1     -13.608  -6.011   8.870  0.00  0.00    -0.372 N 
ATOM      4  C   UNL     1     -12.945  -4.858   8.731  0.00  0.00    +0.166 C 
ATOM      5  H   UNL     1     -11.182  -3.912   8.398  0.00  0.00    +0.163 HD
ATOM      6  H   UNL     1     -14.640  -3.718   8.959  0.00  0.00    +0.159 HD
ATOM      7  H   UNL     1     -13.193  -2.814   8.720  0.00  0.00    +0.159 HD
ATOM      8  H   UNL     1     -13.141  -6.907   8.820  0.00  0.00    +0.159 HD
ATOM      9  H   UNL     1     -14.609  -6.032   9.016  0.00  0.00    +0.159 HD
ENDROOT
BRANCH   1  10
ATOM     10  C   UNL     1     -10.762  -5.999   8.486  0.00  0.00    +0.151 C 
BRANCH  10  11
ATOM     11  C   UNL     1     -10.096  -6.167   9.824  0.00  0.00    -0.028 A 
ATOM     12  C   UNL     1     -10.627  -7.046  10.778  0.00  0.00    +0.005 A 
ATOM     13  C   UNL     1      -8.929  -5.454  10.140  0.00  0.00    +0.005 A 
ATOM     14  C   UNL     1      -9.992  -7.225  12.009  0.00  0.00    +0.000 A 
ATOM     15  C   UNL     1      -8.298  -5.636  11.370  0.00  0.00    +0.000 A 
ATOM     16  C   UNL     1      -8.828  -6.523  12.304  0.00  0.00    +0.000 A 
ENDBRANCH  10  11
ENDBRANCH   1  10
TORSDOF 2
ENDMDL
MODEL 6
REMARK VINA RESULT:    -4.777     16.821     19.396
REMARK INTER + INTRA:          -5.465
REMARK INTER:                  -5.334
REMARK INTRA:                  -0.131
REMARK UNBOUND:                -0.130
REMARK  Name = 1550473
REMARK  2 active torsions:
REMARK  status: ('A' for Active; 'I' for Inactive)
REMARK    1  A    between atoms: N_1  and  C_4
REMARK    2  A    between atoms: C_4  and  C_5
REMARK                            x       y       z     vdW  Elec       q    Type
REMARK                         _______ _______ _______ _____ _____    ______ ____
ROOT
ATOM      1  N   UNL     1       5.974  -1.193  13.845  0.00  0.00    -0.354 N 
ATOM      2  N   UNL     1       3.800  -1.829  13.366  0.00  0.00    -0.372 N 
ATOM      3  N   UNL     1       4.161   0.173  14.426  0.00  0.00    -0.372 N 
ATOM      4  C   UNL     1       4.659  -0.943  13.884  0.00  0.00    +0.166 C 
ATOM      5  H   UNL     1       6.286  -2.072  13.448  0.00  0.00    +0.163 HD
ATOM      6  H   UNL     1       2.802  -1.667  13.378  0.00  0.00    +0.159 HD
ATOM      7  H   UNL     1       4.117  -2.686  12.928  0.00  0.00    +0.159 HD
ATOM      8  H   UNL     1       4.756   0.879  14.839  0.00  0.00    +0.159 HD
ATOM      9  H   UNL     1       3.165   0.349  14.458  0.00  0.00    +0.159 HD
ENDROOT
BRANCH   1  10
ATOM     10  C   UNL     1       6.997  -0.269  14.333  0.00  0.00    +0.151 C 
BRANCH  10  11
ATOM     11  C   UNL     1       8.086  -0.153  13.302  0.00  0.00    -0.028 A 
ATOM     12  C   UNL     1       8.400  -1.240  12.473  0.00  0.00    +0.005 A 
ATOM     13  C   UNL     1       8.803   1.043  13.146  0.00  0.00    +0.005 A 
ATOM     14  C   UNL     1       9.391  -1.123  11.495  0.00  0.00    +0.000 A 
ATOM     15  C   UNL     1       9.792   1.156  12.169  0.00  0.00    +0.000 A 
ATOM     16  C   UNL     1      10.084   0.073  11.342  0.00  0.00    +0.000 A 
ENDBRANCH  10  11
ENDBRANCH   1  10
TORSDOF 2
ENDMDL
MODEL 7
REMARK VINA RESULT:    -4.668     18.638     19.528
REMARK INTER + INTRA:          -5.343
REMARK INTER:                  -5.238
REMARK INTRA:                  -0.105
REMARK UNBOUND:                -0.130
REMARK  Name = 1550473
REMARK  2 active torsions:
REMARK  status: ('A' for Active; 'I' for Inactive)
REMARK    1  A    between atoms: N_1  and  C_4
REMARK    2  A    between atoms: C_4  and  C_5
REMARK                            x       y       z     vdW  Elec       q    Type
REMARK                         _______ _______ _______ _____ _____    ______ ____
ROOT
ATOM      1  N   UNL     1     -11.389  13.856   6.174  0.00  0.00    -0.354 N 
ATOM      2  N   UNL     1     -13.685  13.592   6.321  0.00  0.00    -0.372 N 
ATOM      3  N   UNL     1     -12.631  14.985   7.809  0.00  0.00    -0.372 N 
ATOM      4  C   UNL     1     -12.553  14.148   6.770  0.00  0.00    +0.166 C 
ATOM      5  H   UNL     1     -11.393  13.190   5.410  0.00  0.00    +0.163 HD
ATOM      6  H   UNL     1     -14.579  13.796   6.748  0.00  0.00    +0.159 HD
ATOM      7  H   UNL     1     -13.692  12.962   5.528  0.00  0.00    +0.159 HD
ATOM      8  H   UNL     1     -11.813  15.433   8.199  0.00  0.00    +0.159 HD
ATOM      9  H   UNL     1     -13.515  15.192   8.258  0.00  0.00    +0.159 HD
ENDROOT
BRANCH   1  10
ATOM     10  C   UNL     1     -10.107  14.449   6.551  0.00  0.00    +0.151 C 
BRANCH  10  11
ATOM     11  C   UNL     1      -9.281  13.417   7.270  0.00  0.00    -0.028 A 
ATOM     12  C   UNL     1      -8.024  13.040   6.774  0.00  0.00    +0.005 A 
ATOM     13  C   UNL     1      -9.747  12.818   8.449  0.00  0.00    +0.005 A 
ATOM     14  C   UNL     1      -7.244  12.105   7.458  0.00  0.00    +0.000 A 
ATOM     15  C   UNL     1      -8.966  11.883   9.128  0.00  0.00    +0.000 A 
ATOM     16  C   UNL     1      -7.713  11.529   8.634  0.00  0.00    +0.000 A 
ENDBRANCH  10  11
ENDBRANCH   1  10
TORSDOF 2
ENDMDL
MODEL 8
REMARK VINA RESULT:    -4.533     23.806     24.677
REMARK INTER + INTRA:          -5.193
REMARK INTER:                  -5.068
REMARK INTRA:                  -0.125
REMARK UNBOUND:                -0.130
REMARK  Name = 1550473
REMARK  2 active torsions:
REMARK  status: ('A' for Active; 'I' for Inactive)
REMARK    1  A    between atoms: N_1  and  C_4
REMARK    2  A    between atoms: C_4  and  C_5
REMARK                            x       y       z     vdW  Elec       q    Type
REMARK                         _______ _______ _______ _____ _____    ______ ____
ROOT
ATOM      1  N   UNL     1      -0.493 -15.011 -10.273  0.00  0.00    -0.354 N 
ATOM      2  N   UNL     1       1.478 -14.182 -11.163  0.00  0.00    -0.372 N 
ATOM      3  N   UNL     1      -0.446 -14.042 -12.406  0.00  0.00    -0.372 N 
ATOM      4  C   UNL     1       0.165 -14.417 -11.277  0.00  0.00    +0.166 C 
ATOM      5  H   UNL     1       0.033 -15.298  -9.456  0.00  0.00    +0.163 HD
ATOM      6  H   UNL     1       2.000 -13.732 -11.903  0.00  0.00    +0.159 HD
ATOM      7  H   UNL     1       1.993 -14.428 -10.327  0.00  0.00    +0.159 HD
ATOM      8  H   UNL     1      -1.434 -14.197 -12.557  0.00  0.00    +0.159 HD
ATOM      9  H   UNL     1       0.063 -13.601 -13.163  0.00  0.00    +0.159 HD
ENDROOT
BRANCH   1  10
ATOM     10  C   UNL     1      -1.933 -15.264 -10.275  0.00  0.00    +0.151 C 
BRANCH  10  11
ATOM     11  C   UNL     1      -2.253 -16.289  -9.223  0.00  0.00    -0.028 A 
ATOM     12  C   UNL     1      -1.277 -16.691  -8.300  0.00  0.00    +0.005 A 
ATOM     13  C   UNL     1      -3.533 -16.859  -9.141  0.00  0.00    +0.005 A 
ATOM     14  C   UNL     1      -1.583 -17.622  -7.304  0.00  0.00    +0.000 A 
ATOM     15  C   UNL     1      -3.834 -17.789  -8.146  0.00  0.00    +0.000 A 
ATOM     16  C   UNL     1      -2.860 -18.168  -7.226  0.00  0.00    +0.000 A 
ENDBRANCH  10  11
ENDBRANCH   1  10
TORSDOF 2
ENDMDL
MODEL 9
REMARK VINA RESULT:    -4.483     25.613     26.766
REMARK INTER + INTRA:          -5.137
REMARK INTER:                  -5.016
REMARK INTRA:                  -0.121
REMARK UNBOUND:                -0.130
REMARK  Name = 1550473
REMARK  2 active torsions:
REMARK  status: ('A' for Active; 'I' for Inactive)
REMARK    1  A    between atoms: N_1  and  C_4
REMARK    2  A    between atoms: C_4  and  C_5
REMARK                            x       y       z     vdW  Elec       q    Type
REMARK                         _______ _______ _______ _____ _____    ______ ____
ROOT
ATOM      1  N   UNL     1       8.862  -8.635  -7.609  0.00  0.00    -0.354 N 
ATOM      2  N   UNL     1       8.866  -6.538  -6.626  0.00  0.00    -0.372 N 
ATOM      3  N   UNL     1      10.783  -7.798  -6.560  0.00  0.00    -0.372 N 
ATOM      4  C   UNL     1       9.507  -7.672  -6.937  0.00  0.00    +0.166 C 
ATOM      5  H   UNL     1       7.886  -8.491  -7.839  0.00  0.00    +0.163 HD
ATOM      6  H   UNL     1       9.328  -5.792  -6.123  0.00  0.00    +0.159 HD
ATOM      7  H   UNL     1       7.904  -6.378  -6.898  0.00  0.00    +0.159 HD
ATOM      8  H   UNL     1      11.321  -8.631  -6.759  0.00  0.00    +0.159 HD
ATOM      9  H   UNL     1      11.259  -7.067  -6.045  0.00  0.00    +0.159 HD
ENDROOT
BRANCH   1  10
ATOM     10  C   UNL     1       9.484  -9.885  -8.043  0.00  0.00    +0.151 C 
BRANCH  10  11
ATOM     11  C   UNL     1       8.809 -11.036  -7.351  0.00  0.00    -0.028 A 
ATOM     12  C   UNL     1       8.522 -12.218  -8.049  0.00  0.00    +0.005 A 
ATOM     13  C   UNL     1       8.458 -10.954  -5.994  0.00  0.00    +0.005 A 
ATOM     14  C   UNL     1       7.922 -13.299  -7.399  0.00  0.00    +0.000 A 
ATOM     15  C   UNL     1       7.859 -12.035  -5.349  0.00  0.00    +0.000 A 
ATOM     16  C   UNL     1       7.593 -13.208  -6.051  0.00  0.00    +0.000 A 
ENDBRANCH  10  11
ENDBRANCH   1  10
TORSDOF 2
ENDMDL
