MODEL 1
REMARK VINA RESULT:    -6.413      0.000      0.000
REMARK INTER + INTRA:          -7.296
REMARK INTER:                  -7.163
REMARK INTRA:                  -0.133
REMARK UNBOUND:                -0.133
REMARK  Name = 1550473
REMARK  2 active torsions:
REMARK  status: ('A' for Active; 'I' for Inactive)
REMARK    1  A    between atoms: N_1  and  C_4
REMARK    2  A    between atoms: C_4  and  C_5
REMARK                            x       y       z     vdW  Elec       q    Type
REMARK                         _______ _______ _______ _____ _____    ______ ____
ROOT
ATOM      1  N   UNL     1      15.373  -4.192  -0.769  0.00  0.00    -0.354 N 
ATOM      2  N   UNL     1      16.701  -2.303  -0.595  0.00  0.00    -0.372 N 
ATOM      3  N   UNL     1      17.132  -3.812  -2.269  0.00  0.00    -0.372 N 
ATOM      4  C   UNL     1      16.395  -3.449  -1.214  0.00  0.00    +0.166 C 
ATOM      5  H   UNL     1      14.872  -3.878   0.055  0.00  0.00    +0.163 HD
ATOM      6  H   UNL     1      17.465  -1.720  -0.910  0.00  0.00    +0.159 HD
ATOM      7  H   UNL     1      16.170  -1.968   0.200  0.00  0.00    +0.159 HD
ATOM      8  H   UNL     1      16.956  -4.668  -2.777  0.00  0.00    +0.159 HD
ATOM      9  H   UNL     1      17.908  -3.247  -2.593  0.00  0.00    +0.159 HD
ENDROOT
BRANCH   1  10
ATOM     10  C   UNL     1      14.923  -5.430  -1.404  0.00  0.00    +0.151 C 
BRANCH  10  11
ATOM     11  C   UNL     1      14.401  -6.363  -0.347  0.00  0.00    -0.028 A 
ATOM     12  C   UNL     1      13.876  -7.615  -0.699  0.00  0.00    +0.005 A 
ATOM     13  C   UNL     1      14.433  -6.004   1.009  0.00  0.00    +0.005 A 
ATOM     14  C   UNL     1      13.418  -8.495   0.285  0.00  0.00    +0.000 A 
ATOM     15  C   UNL     1      13.974  -6.884   1.988  0.00  0.00    +0.000 A 
ATOM     16  C   UNL     1      13.469  -8.131   1.626  0.00  0.00    +0.000 A 
ENDBRANCH  10  11
ENDBRANCH   1  10
TORSDOF 2
ENDMDL
MODEL 2
REMARK VINA RESULT:    -6.156      2.636      4.847
REMARK INTER + INTRA:          -7.008
REMARK INTER:                  -6.865
REMARK INTRA:                  -0.143
REMARK UNBOUND:                -0.133
REMARK  Name = 1550473
REMARK  2 active torsions:
REMARK  status: ('A' for Active; 'I' for Inactive)
REMARK    1  A    between atoms: N_1  and  C_4
REMARK    2  A    between atoms: C_4  and  C_5
REMARK                            x       y       z     vdW  Elec       q    Type
REMARK                         _______ _______ _______ _____ _____    ______ ____
ROOT
ATOM      1  N   UNL     1      13.632  -6.638   0.483  0.00  0.00    -0.354 N 
ATOM      2  N   UNL     1      13.021  -7.459   2.561  0.00  0.00    -0.372 N 
ATOM      3  N   UNL     1      14.250  -8.795   1.158  0.00  0.00    -0.372 N 
ATOM      4  C   UNL     1      13.639  -7.628   1.386  0.00  0.00    +0.166 C 
ATOM      5  H   UNL     1      13.125  -5.789   0.704  0.00  0.00    +0.163 HD
ATOM      6  H   UNL     1      13.013  -8.187   3.263  0.00  0.00    +0.159 HD
ATOM      7  H   UNL     1      12.555  -6.592   2.798  0.00  0.00    +0.159 HD
ATOM      8  H   UNL     1      14.730  -8.988   0.289  0.00  0.00    +0.159 HD
ATOM      9  H   UNL     1      14.243  -9.540   1.844  0.00  0.00    +0.159 HD
ENDROOT
BRANCH   1  10
ATOM     10  C   UNL     1      14.321  -6.701  -0.805  0.00  0.00    +0.151 C 
BRANCH  10  11
ATOM     11  C   UNL     1      15.175  -5.474  -0.965  0.00  0.00    -0.028 A 
ATOM     12  C   UNL     1      15.905  -5.263  -2.144  0.00  0.00    +0.005 A 
ATOM     13  C   UNL     1      15.256  -4.515   0.057  0.00  0.00    +0.005 A 
ATOM     14  C   UNL     1      16.675  -4.108  -2.305  0.00  0.00    +0.000 A 
ATOM     15  C   UNL     1      16.027  -3.365  -0.107  0.00  0.00    +0.000 A 
ATOM     16  C   UNL     1      16.734  -3.160  -1.289  0.00  0.00    +0.000 A 
ENDBRANCH  10  11
ENDBRANCH   1  10
TORSDOF 2
ENDMDL
MODEL 3
REMARK VINA RESULT:    -5.580     32.951     33.822
REMARK INTER + INTRA:          -6.365
REMARK INTER:                  -6.236
REMARK INTRA:                  -0.130
REMARK UNBOUND:                -0.133
REMARK  Name = 1550473
REMARK  2 active torsions:
REMARK  status: ('A' for Active; 'I' for Inactive)
REMARK    1  A    between atoms: N_1  and  C_4
REMARK    2  A    between atoms: C_4  and  C_5
REMARK                            x       y       z     vdW  Elec       q    Type
REMARK                         _______ _______ _______ _____ _____    ______ ____
ROOT
ATOM      1  N   UNL     1     -20.151  -1.940   0.779  0.00  0.00    -0.354 N 
ATOM      2  N   UNL     1     -22.019  -2.136  -0.575  0.00  0.00    -0.372 N 
ATOM      3  N   UNL     1     -21.188  -4.015   0.446  0.00  0.00    -0.372 N 
ATOM      4  C   UNL     1     -21.107  -2.698   0.226  0.00  0.00    +0.166 C 
ATOM      5  H   UNL     1     -20.125  -0.953   0.548  0.00  0.00    +0.163 HD
ATOM      6  H   UNL     1     -22.755  -2.682  -1.004  0.00  0.00    +0.159 HD
ATOM      7  H   UNL     1     -22.019  -1.141  -0.767  0.00  0.00    +0.159 HD
ATOM      8  H   UNL     1     -20.526  -4.501   1.037  0.00  0.00    +0.159 HD
ATOM      9  H   UNL     1     -21.910  -4.580   0.017  0.00  0.00    +0.159 HD
ENDROOT
BRANCH   1  10
ATOM     10  C   UNL     1     -19.142  -2.445   1.708  0.00  0.00    +0.151 C 
BRANCH  10  11
ATOM     11  C   UNL     1     -17.784  -2.322   1.073  0.00  0.00    -0.028 A 
ATOM     12  C   UNL     1     -16.725  -1.719   1.768  0.00  0.00    +0.005 A 
ATOM     13  C   UNL     1     -17.548  -2.812  -0.220  0.00  0.00    +0.005 A 
ATOM     14  C   UNL     1     -15.456  -1.632   1.191  0.00  0.00    +0.000 A 
ATOM     15  C   UNL     1     -16.280  -2.722  -0.794  0.00  0.00    +0.000 A 
ATOM     16  C   UNL     1     -15.234  -2.134  -0.087  0.00  0.00    +0.000 A 
ENDBRANCH  10  11
ENDBRANCH   1  10
TORSDOF 2
ENDMDL
MODEL 4
REMARK VINA RESULT:    -5.446     32.590     33.464
REMARK INTER + INTRA:          -6.215
REMARK INTER:                  -6.054
REMARK INTRA:                  -0.161
REMARK UNBOUND:                -0.133
REMARK  Name = 1550473
REMARK  2 active torsions:
REMARK  status: ('A' for Active; 'I' for Inactive)
REMARK    1  A    between atoms: N_1  and  C_4
REMARK    2  A    between atoms: C_4  and  C_5
REMARK                            x       y       z     vdW  Elec       q    Type
REMARK                         _______ _______ _______ _____ _____    ______ ____
ROOT
ATOM      1  N   UNL     1     -19.589  -2.642   2.452  0.00  0.00    -0.354 N 
ATOM      2  N   UNL     1     -20.105  -3.971   4.278  0.00  0.00    -0.372 N 
ATOM      3  N   UNL     1     -20.364  -4.835   2.169  0.00  0.00    -0.372 N 
ATOM      4  C   UNL     1     -20.017  -3.809   2.952  0.00  0.00    +0.166 C 
ATOM      5  H   UNL     1     -19.370  -1.893   3.099  0.00  0.00    +0.163 HD
ATOM      6  H   UNL     1     -20.421  -4.841   4.684  0.00  0.00    +0.159 HD
ATOM      7  H   UNL     1     -19.842  -3.236   4.923  0.00  0.00    +0.159 HD
ATOM      8  H   UNL     1     -20.325  -4.776   1.160  0.00  0.00    +0.159 HD
ATOM      9  H   UNL     1     -20.694  -5.711   2.556  0.00  0.00    +0.159 HD
ENDROOT
BRANCH   1  10
ATOM     10  C   UNL     1     -19.406  -2.382   1.026  0.00  0.00    +0.151 C 
BRANCH  10  11
ATOM     11  C   UNL     1     -17.935  -2.385   0.711  0.00  0.00    -0.028 A 
ATOM     12  C   UNL     1     -17.469  -2.904  -0.506  0.00  0.00    +0.005 A 
ATOM     13  C   UNL     1     -17.003  -1.866   1.623  0.00  0.00    +0.005 A 
ATOM     14  C   UNL     1     -16.106  -2.880  -0.812  0.00  0.00    +0.000 A 
ATOM     15  C   UNL     1     -15.643  -1.845   1.314  0.00  0.00    +0.000 A 
ATOM     16  C   UNL     1     -15.195  -2.350   0.096  0.00  0.00    +0.000 A 
ENDBRANCH  10  11
ENDBRANCH   1  10
TORSDOF 2
ENDMDL
MODEL 5
REMARK VINA RESULT:    -5.417     35.864     36.500
REMARK INTER + INTRA:          -6.183
REMARK INTER:                  -6.039
REMARK INTRA:                  -0.144
REMARK UNBOUND:                -0.133
REMARK  Name = 1550473
REMARK  2 active torsions:
REMARK  status: ('A' for Active; 'I' for Inactive)
REMARK    1  A    between atoms: N_1  and  C_4
REMARK    2  A    between atoms: C_4  and  C_5
REMARK                            x       y       z     vdW  Elec       q    Type
REMARK                         _______ _______ _______ _____ _____    ______ ____
ROOT
ATOM      1  N   UNL     1     -17.088   0.282 -14.612  0.00  0.00    -0.354 N 
ATOM      2  N   UNL     1     -17.854  -1.557 -15.792  0.00  0.00    -0.372 N 
ATOM      3  N   UNL     1     -17.580  -1.733 -13.521  0.00  0.00    -0.372 N 
ATOM      4  C   UNL     1     -17.502  -0.992 -14.632  0.00  0.00    +0.166 C 
ATOM      5  H   UNL     1     -17.022   0.780 -15.493  0.00  0.00    +0.163 HD
ATOM      6  H   UNL     1     -18.174  -2.516 -15.838  0.00  0.00    +0.159 HD
ATOM      7  H   UNL     1     -17.832  -1.043 -16.664  0.00  0.00    +0.159 HD
ATOM      8  H   UNL     1     -17.322  -1.367 -12.614  0.00  0.00    +0.159 HD
ATOM      9  H   UNL     1     -17.886  -2.697 -13.548  0.00  0.00    +0.159 HD
ENDROOT
BRANCH   1  10
ATOM     10  C   UNL     1     -16.732   1.008 -13.394  0.00  0.00    +0.151 C 
BRANCH  10  11
ATOM     11  C   UNL     1     -17.512   2.293 -13.343  0.00  0.00    -0.028 A 
ATOM     12  C   UNL     1     -16.849   3.526 -13.273  0.00  0.00    +0.005 A 
ATOM     13  C   UNL     1     -18.915   2.284 -13.370  0.00  0.00    +0.005 A 
ATOM     14  C   UNL     1     -17.572   4.721 -13.256  0.00  0.00    +0.000 A 
ATOM     15  C   UNL     1     -19.634   3.479 -13.352  0.00  0.00    +0.000 A 
ATOM     16  C   UNL     1     -18.962   4.697 -13.297  0.00  0.00    +0.000 A 
ENDBRANCH  10  11
ENDBRANCH   1  10
TORSDOF 2
ENDMDL
MODEL 6
REMARK VINA RESULT:    -4.981     37.525     37.991
REMARK INTER + INTRA:          -5.696
REMARK INTER:                  -5.555
REMARK INTRA:                  -0.142
REMARK UNBOUND:                -0.133
REMARK  Name = 1550473
REMARK  2 active torsions:
REMARK  status: ('A' for Active; 'I' for Inactive)
REMARK    1  A    between atoms: N_1  and  C_4
REMARK    2  A    between atoms: C_4  and  C_5
REMARK                            x       y       z     vdW  Elec       q    Type
REMARK                         _______ _______ _______ _____ _____    ______ ____
ROOT
ATOM      1  N   UNL     1     -14.435  14.740 -11.886  0.00  0.00    -0.354 N 
ATOM      2  N   UNL     1     -12.149  14.863 -11.536  0.00  0.00    -0.372 N 
ATOM      3  N   UNL     1     -12.997  13.081 -12.706  0.00  0.00    -0.372 N 
ATOM      4  C   UNL     1     -13.209  14.225 -12.046  0.00  0.00    +0.166 C 
ATOM      5  H   UNL     1     -14.532  15.594 -11.350  0.00  0.00    +0.163 HD
ATOM      6  H   UNL     1     -11.211  14.501 -11.644  0.00  0.00    +0.159 HD
ATOM      7  H   UNL     1     -12.244  15.741 -11.040  0.00  0.00    +0.159 HD
ATOM      8  H   UNL     1     -13.755  12.548 -13.110  0.00  0.00    +0.159 HD
ATOM      9  H   UNL     1     -12.067  12.696 -12.815  0.00  0.00    +0.159 HD
ENDROOT
BRANCH   1  10
ATOM     10  C   UNL     1     -15.649  14.151 -12.448  0.00  0.00    +0.151 C 
BRANCH  10  11
ATOM     11  C   UNL     1     -16.573  13.766 -11.326  0.00  0.00    -0.028 A 
ATOM     12  C   UNL     1     -16.934  14.703 -10.348  0.00  0.00    +0.005 A 
ATOM     13  C   UNL     1     -17.096  12.466 -11.240  0.00  0.00    +0.005 A 
ATOM     14  C   UNL     1     -17.817  14.354  -9.322  0.00  0.00    +0.000 A 
ATOM     15  C   UNL     1     -17.976  12.122 -10.214  0.00  0.00    +0.000 A 
ATOM     16  C   UNL     1     -18.338  13.066  -9.257  0.00  0.00    +0.000 A 
ENDBRANCH  10  11
ENDBRANCH   1  10
TORSDOF 2
ENDMDL
MODEL 7
REMARK VINA RESULT:    -4.876     32.163     33.043
REMARK INTER + INTRA:          -5.579
REMARK INTER:                  -5.457
REMARK INTRA:                  -0.122
REMARK UNBOUND:                -0.133
REMARK  Name = 1550473
REMARK  2 active torsions:
REMARK  status: ('A' for Active; 'I' for Inactive)
REMARK    1  A    between atoms: N_1  and  C_4
REMARK    2  A    between atoms: C_4  and  C_5
REMARK                            x       y       z     vdW  Elec       q    Type
REMARK                         _______ _______ _______ _____ _____    ______ ____
ROOT
ATOM      1  N   UNL     1      -8.080   9.769  16.990  0.00  0.00    -0.354 N 
ATOM      2  N   UNL     1      -5.840  10.091  17.483  0.00  0.00    -0.372 N 
ATOM      3  N   UNL     1      -6.944  11.681  16.250  0.00  0.00    -0.372 N 
ATOM      4  C   UNL     1      -6.969  10.514  16.903  0.00  0.00    +0.166 C 
ATOM      5  H   UNL     1      -8.026   8.880  17.474  0.00  0.00    +0.163 HD
ATOM      6  H   UNL     1      -4.987  10.633  17.436  0.00  0.00    +0.159 HD
ATOM      7  H   UNL     1      -5.800   9.224  18.004  0.00  0.00    +0.159 HD
ATOM      8  H   UNL     1      -7.761  12.052  15.785  0.00  0.00    +0.159 HD
ATOM      9  H   UNL     1      -6.097  12.232  16.182  0.00  0.00    +0.159 HD
ENDROOT
BRANCH   1  10
ATOM     10  C   UNL     1      -9.375  10.165  16.440  0.00  0.00    +0.151 C 
BRANCH  10  11
ATOM     11  C   UNL     1     -10.255   8.950  16.334  0.00  0.00    -0.028 A 
ATOM     12  C   UNL     1     -11.406   8.973  15.533  0.00  0.00    +0.005 A 
ATOM     13  C   UNL     1      -9.940   7.771  17.027  0.00  0.00    +0.005 A 
ATOM     14  C   UNL     1     -12.208   7.835  15.411  0.00  0.00    +0.000 A 
ATOM     15  C   UNL     1     -10.743   6.638  16.902  0.00  0.00    +0.000 A 
ATOM     16  C   UNL     1     -11.875   6.669  16.092  0.00  0.00    +0.000 A 
ENDBRANCH  10  11
ENDBRANCH   1  10
TORSDOF 2
ENDMDL
MODEL 8
REMARK VINA RESULT:    -4.792     35.925     36.452
REMARK INTER + INTRA:          -5.484
REMARK INTER:                  -5.348
REMARK INTRA:                  -0.137
REMARK UNBOUND:                -0.133
REMARK  Name = 1550473
REMARK  2 active torsions:
REMARK  status: ('A' for Active; 'I' for Inactive)
REMARK    1  A    between atoms: N_1  and  C_4
REMARK    2  A    between atoms: C_4  and  C_5
REMARK                            x       y       z     vdW  Elec       q    Type
REMARK                         _______ _______ _______ _____ _____    ______ ____
ROOT
ATOM      1  N   UNL     1     -18.173   4.549 -12.967  0.00  0.00    -0.354 N 
ATOM      2  N   UNL     1     -17.525   6.411 -11.752  0.00  0.00    -0.372 N 
ATOM      3  N   UNL     1     -19.664   5.617 -11.508  0.00  0.00    -0.372 N 
ATOM      4  C   UNL     1     -18.461   5.513 -12.083  0.00  0.00    +0.166 C 
ATOM      5  H   UNL     1     -17.252   4.543 -13.390  0.00  0.00    +0.163 HD
ATOM      6  H   UNL     1     -17.712   7.148 -11.086  0.00  0.00    +0.159 HD
ATOM      7  H   UNL     1     -16.591   6.375 -12.142  0.00  0.00    +0.159 HD
ATOM      8  H   UNL     1     -20.416   4.974 -11.720  0.00  0.00    +0.159 HD
ATOM      9  H   UNL     1     -19.874   6.355 -10.848  0.00  0.00    +0.159 HD
ENDROOT
BRANCH   1  10
ATOM     10  C   UNL     1     -19.104   3.490 -13.354  0.00  0.00    +0.151 C 
BRANCH  10  11
ATOM     11  C   UNL     1     -18.451   2.155 -13.130  0.00  0.00    -0.028 A 
ATOM     12  C   UNL     1     -17.079   1.984 -13.368  0.00  0.00    +0.005 A 
ATOM     13  C   UNL     1     -19.197   1.057 -12.673  0.00  0.00    +0.005 A 
ATOM     14  C   UNL     1     -16.466   0.752 -13.131  0.00  0.00    +0.000 A 
ATOM     15  C   UNL     1     -18.580  -0.172 -12.438  0.00  0.00    +0.000 A 
ATOM     16  C   UNL     1     -17.215  -0.324 -12.665  0.00  0.00    +0.000 A 
ENDBRANCH  10  11
ENDBRANCH   1  10
TORSDOF 2
ENDMDL
MODEL 9
REMARK VINA RESULT:    -4.781     10.989     12.213
REMARK INTER + INTRA:          -5.472
REMARK INTER:                  -5.370
REMARK INTRA:                  -0.103
REMARK UNBOUND:                -0.133
REMARK  Name = 1550473
REMARK  2 active torsions:
REMARK  status: ('A' for Active; 'I' for Inactive)
REMARK    1  A    between atoms: N_1  and  C_4
REMARK    2  A    between atoms: C_4  and  C_5
REMARK                            x       y       z     vdW  Elec       q    Type
REMARK                         _______ _______ _______ _____ _____    ______ ____
ROOT
ATOM      1  N   UNL     1      15.582 -13.487  -8.003  0.00  0.00    -0.354 N 
ATOM      2  N   UNL     1      16.721 -11.512  -8.411  0.00  0.00    -0.372 N 
ATOM      3  N   UNL     1      16.823 -12.438  -6.314  0.00  0.00    -0.372 N 
ATOM      4  C   UNL     1      16.368 -12.492  -7.571  0.00  0.00    +0.166 C 
ATOM      5  H   UNL     1      15.246 -13.454  -8.959  0.00  0.00    +0.163 HD
ATOM      6  H   UNL     1      17.316 -10.750  -8.115  0.00  0.00    +0.159 HD
ATOM      7  H   UNL     1      16.421 -11.506  -9.379  0.00  0.00    +0.159 HD
ATOM      8  H   UNL     1      16.588 -13.144  -5.629  0.00  0.00    +0.159 HD
ATOM      9  H   UNL     1      17.410 -11.677  -5.995  0.00  0.00    +0.159 HD
ENDROOT
BRANCH   1  10
ATOM     10  C   UNL     1      15.184 -14.630  -7.183  0.00  0.00    +0.151 C 
BRANCH  10  11
ATOM     11  C   UNL     1      14.191 -15.461  -7.948  0.00  0.00    -0.028 A 
ATOM     12  C   UNL     1      14.493 -15.921  -9.238  0.00  0.00    +0.005 A 
ATOM     13  C   UNL     1      12.951 -15.798  -7.386  0.00  0.00    +0.005 A 
ATOM     14  C   UNL     1      13.583 -16.719  -9.937  0.00  0.00    +0.000 A 
ATOM     15  C   UNL     1      12.045 -16.594  -8.087  0.00  0.00    +0.000 A 
ATOM     16  C   UNL     1      12.363 -17.056  -9.362  0.00  0.00    +0.000 A 
ENDBRANCH  10  11
ENDBRANCH   1  10
TORSDOF 2
ENDMDL
