MODEL 1
REMARK VINA RESULT:    -5.296      0.000      0.000
REMARK INTER + INTRA:          -6.020
REMARK INTER:                  -5.915
REMARK INTRA:                  -0.105
REMARK UNBOUND:                -0.105
REMARK  Name = 1550473
REMARK  2 active torsions:
REMARK  status: ('A' for Active; 'I' for Inactive)
REMARK    1  A    between atoms: N_1  and  C_4
REMARK    2  A    between atoms: C_4  and  C_5
REMARK                            x       y       z     vdW  Elec       q    Type
REMARK                         _______ _______ _______ _____ _____    ______ ____
ROOT
ATOM      1  N   UNL     1      -9.254   2.129   6.784  0.00  0.00    -0.354 N 
ATOM      2  N   UNL     1      -6.981   2.489   6.526  0.00  0.00    -0.372 N 
ATOM      3  N   UNL     1      -8.448   4.098   5.803  0.00  0.00    -0.372 N 
ATOM      4  C   UNL     1      -8.243   2.905   6.371  0.00  0.00    +0.166 C 
ATOM      5  H   UNL     1      -9.034   1.222   7.179  0.00  0.00    +0.163 HD
ATOM      6  H   UNL     1      -6.198   3.055   6.228  0.00  0.00    +0.159 HD
ATOM      7  H   UNL     1      -6.762   1.602   6.963  0.00  0.00    +0.159 HD
ATOM      8  H   UNL     1      -9.377   4.468   5.653  0.00  0.00    +0.159 HD
ATOM      9  H   UNL     1      -7.677   4.674   5.488  0.00  0.00    +0.159 HD
ENDROOT
BRANCH   1  10
ATOM     10  C   UNL     1     -10.663   2.512   6.710  0.00  0.00    +0.151 C 
BRANCH  10  11
ATOM     11  C   UNL     1     -11.485   1.510   7.472  0.00  0.00    -0.028 A 
ATOM     12  C   UNL     1     -11.324   0.136   7.244  0.00  0.00    +0.005 A 
ATOM     13  C   UNL     1     -12.424   1.928   8.428  0.00  0.00    +0.005 A 
ATOM     14  C   UNL     1     -12.066  -0.797   7.972  0.00  0.00    +0.000 A 
ATOM     15  C   UNL     1     -13.164   0.994   9.153  0.00  0.00    +0.000 A 
ATOM     16  C   UNL     1     -12.983  -0.368   8.926  0.00  0.00    +0.000 A 
ENDBRANCH  10  11
ENDBRANCH   1  10
TORSDOF 2
ENDMDL
MODEL 2
REMARK VINA RESULT:    -5.175      8.635     10.170
REMARK INTER + INTRA:          -5.885
REMARK INTER:                  -5.707
REMARK INTRA:                  -0.178
REMARK UNBOUND:                -0.105
REMARK  Name = 1550473
REMARK  2 active torsions:
REMARK  status: ('A' for Active; 'I' for Inactive)
REMARK    1  A    between atoms: N_1  and  C_4
REMARK    2  A    between atoms: C_4  and  C_5
REMARK                            x       y       z     vdW  Elec       q    Type
REMARK                         _______ _______ _______ _____ _____    ______ ____
ROOT
ATOM      1  N   UNL     1      -0.408   2.298   2.789  0.00  0.00    -0.354 N 
ATOM      2  N   UNL     1       1.848   2.818   2.848  0.00  0.00    -0.372 N 
ATOM      3  N   UNL     1       1.192   0.832   1.903  0.00  0.00    -0.372 N 
ATOM      4  C   UNL     1       0.863   1.977   2.512  0.00  0.00    +0.166 C 
ATOM      5  H   UNL     1      -0.589   3.166   3.280  0.00  0.00    +0.163 HD
ATOM      6  H   UNL     1       2.816   2.604   2.648  0.00  0.00    +0.159 HD
ATOM      7  H   UNL     1       1.661   3.706   3.296  0.00  0.00    +0.159 HD
ATOM      8  H   UNL     1       0.495   0.152   1.629  0.00  0.00    +0.159 HD
ATOM      9  H   UNL     1       2.156   0.595   1.705  0.00  0.00    +0.159 HD
ENDROOT
BRANCH   1  10
ATOM     10  C   UNL     1      -1.559   1.477   2.418  0.00  0.00    +0.151 C 
BRANCH  10  11
ATOM     11  C   UNL     1      -2.092   0.794   3.647  0.00  0.00    -0.028 A 
ATOM     12  C   UNL     1      -1.645  -0.488   4.000  0.00  0.00    +0.005 A 
ATOM     13  C   UNL     1      -3.041   1.425   4.465  0.00  0.00    +0.005 A 
ATOM     14  C   UNL     1      -2.118  -1.110   5.157  0.00  0.00    +0.000 A 
ATOM     15  C   UNL     1      -3.511   0.800   5.620  0.00  0.00    +0.000 A 
ATOM     16  C   UNL     1      -3.048  -0.467   5.967  0.00  0.00    +0.000 A 
ENDBRANCH  10  11
ENDBRANCH   1  10
TORSDOF 2
ENDMDL
MODEL 3
REMARK VINA RESULT:    -5.110     37.975     39.119
REMARK INTER + INTRA:          -5.812
REMARK INTER:                  -5.684
REMARK INTRA:                  -0.129
REMARK UNBOUND:                -0.105
REMARK  Name = 1550473
REMARK  2 active torsions:
REMARK  status: ('A' for Active; 'I' for Inactive)
REMARK    1  A    between atoms: N_1  and  C_4
REMARK    2  A    between atoms: C_4  and  C_5
REMARK                            x       y       z     vdW  Elec       q    Type
REMARK                         _______ _______ _______ _____ _____    ______ ____
ROOT
ATOM      1  N   UNL     1      -1.575  -7.884 -28.283  0.00  0.00    -0.354 N 
ATOM      2  N   UNL     1      -0.035  -8.553 -26.688  0.00  0.00    -0.372 N 
ATOM      3  N   UNL     1       0.222  -9.277 -28.850  0.00  0.00    -0.372 N 
ATOM      4  C   UNL     1      -0.472  -8.569 -27.953  0.00  0.00    +0.166 C 
ATOM      5  H   UNL     1      -2.073  -7.392 -27.551  0.00  0.00    +0.163 HD
ATOM      6  H   UNL     1       0.796  -9.057 -26.410  0.00  0.00    +0.159 HD
ATOM      7  H   UNL     1      -0.509  -8.023 -25.967  0.00  0.00    +0.159 HD
ATOM      8  H   UNL     1      -0.058  -9.335 -29.820  0.00  0.00    +0.159 HD
ATOM      9  H   UNL     1       1.050  -9.798 -28.588  0.00  0.00    +0.159 HD
ENDROOT
BRANCH   1  10
ATOM     10  C   UNL     1      -2.104  -7.792 -29.643  0.00  0.00    +0.151 C 
BRANCH  10  11
ATOM     11  C   UNL     1      -2.032  -6.362 -30.102  0.00  0.00    -0.028 A 
ATOM     12  C   UNL     1      -2.493  -6.000 -31.376  0.00  0.00    +0.005 A 
ATOM     13  C   UNL     1      -1.510  -5.364 -29.266  0.00  0.00    +0.005 A 
ATOM     14  C   UNL     1      -2.454  -4.666 -31.792  0.00  0.00    +0.000 A 
ATOM     15  C   UNL     1      -1.472  -4.034 -29.685  0.00  0.00    +0.000 A 
ATOM     16  C   UNL     1      -1.947  -3.685 -30.947  0.00  0.00    +0.000 A 
ENDBRANCH  10  11
ENDBRANCH   1  10
TORSDOF 2
ENDMDL
MODEL 4
REMARK VINA RESULT:    -5.069      7.993      8.316
REMARK INTER + INTRA:          -5.766
REMARK INTER:                  -5.619
REMARK INTRA:                  -0.147
REMARK UNBOUND:                -0.105
REMARK  Name = 1550473
REMARK  2 active torsions:
REMARK  status: ('A' for Active; 'I' for Inactive)
REMARK    1  A    between atoms: N_1  and  C_4
REMARK    2  A    between atoms: C_4  and  C_5
REMARK                            x       y       z     vdW  Elec       q    Type
REMARK                         _______ _______ _______ _____ _____    ______ ____
ROOT
ATOM      1  N   UNL     1     -15.673   1.900  -0.187  0.00  0.00    -0.354 N 
ATOM      2  N   UNL     1     -14.319   3.727  -0.629  0.00  0.00    -0.372 N 
ATOM      3  N   UNL     1     -13.370   1.640  -0.534  0.00  0.00    -0.372 N 
ATOM      4  C   UNL     1     -14.461   2.408  -0.447  0.00  0.00    +0.166 C 
ATOM      5  H   UNL     1     -16.455   2.539  -0.104  0.00  0.00    +0.163 HD
ATOM      6  H   UNL     1     -13.418   4.139  -0.830  0.00  0.00    +0.159 HD
ATOM      7  H   UNL     1     -15.110   4.358  -0.591  0.00  0.00    +0.159 HD
ATOM      8  H   UNL     1     -13.408   0.638  -0.401  0.00  0.00    +0.159 HD
ATOM      9  H   UNL     1     -12.457   2.035  -0.723  0.00  0.00    +0.159 HD
ENDROOT
BRANCH   1  10
ATOM     10  C   UNL     1     -15.943   0.473  -0.026  0.00  0.00    +0.151 C 
BRANCH  10  11
ATOM     11  C   UNL     1     -16.525   0.234   1.340  0.00  0.00    -0.028 A 
ATOM     12  C   UNL     1     -16.398  -1.018   1.960  0.00  0.00    +0.005 A 
ATOM     13  C   UNL     1     -17.200   1.258   2.023  0.00  0.00    +0.005 A 
ATOM     14  C   UNL     1     -16.912  -1.231   3.241  0.00  0.00    +0.000 A 
ATOM     15  C   UNL     1     -17.712   1.041   3.302  0.00  0.00    +0.000 A 
ATOM     16  C   UNL     1     -17.566  -0.203   3.911  0.00  0.00    +0.000 A 
ENDBRANCH  10  11
ENDBRANCH   1  10
TORSDOF 2
ENDMDL
MODEL 5
REMARK VINA RESULT:    -4.976     26.398     27.860
REMARK INTER + INTRA:          -5.663
REMARK INTER:                  -5.549
REMARK INTRA:                  -0.114
REMARK UNBOUND:                -0.105
REMARK  Name = 1550473
REMARK  2 active torsions:
REMARK  status: ('A' for Active; 'I' for Inactive)
REMARK    1  A    between atoms: N_1  and  C_4
REMARK    2  A    between atoms: C_4  and  C_5
REMARK                            x       y       z     vdW  Elec       q    Type
REMARK                         _______ _______ _______ _____ _____    ______ ____
ROOT
ATOM      1  N   UNL     1       9.723  -2.726 -12.680  0.00  0.00    -0.354 N 
ATOM      2  N   UNL     1       9.760  -3.552 -14.844  0.00  0.00    -0.372 N 
ATOM      3  N   UNL     1      10.296  -1.349 -14.487  0.00  0.00    -0.372 N 
ATOM      4  C   UNL     1       9.927  -2.534 -13.990  0.00  0.00    +0.166 C 
ATOM      5  H   UNL     1       9.415  -3.641 -12.370  0.00  0.00    +0.163 HD
ATOM      6  H   UNL     1       9.910  -3.438 -15.837  0.00  0.00    +0.159 HD
ATOM      7  H   UNL     1       9.497  -4.476 -14.526  0.00  0.00    +0.159 HD
ATOM      8  H   UNL     1      10.433  -0.540 -13.897  0.00  0.00    +0.159 HD
ATOM      9  H   UNL     1      10.439  -1.212 -15.480  0.00  0.00    +0.159 HD
ENDROOT
BRANCH   1  10
ATOM     10  C   UNL     1       9.929  -1.699 -11.661  0.00  0.00    +0.151 C 
BRANCH  10  11
ATOM     11  C   UNL     1       9.617  -2.278 -10.309  0.00  0.00    -0.028 A 
ATOM     12  C   UNL     1      10.327  -1.860  -9.174  0.00  0.00    +0.005 A 
ATOM     13  C   UNL     1       8.609  -3.242 -10.155  0.00  0.00    +0.005 A 
ATOM     14  C   UNL     1      10.018  -2.376  -7.913  0.00  0.00    +0.000 A 
ATOM     15  C   UNL     1       8.304  -3.756  -8.895  0.00  0.00    +0.000 A 
ATOM     16  C   UNL     1       9.007  -3.320  -7.774  0.00  0.00    +0.000 A 
ENDBRANCH  10  11
ENDBRANCH   1  10
TORSDOF 2
ENDMDL
MODEL 6
REMARK VINA RESULT:    -4.893     30.849     32.486
REMARK INTER + INTRA:          -5.570
REMARK INTER:                  -5.410
REMARK INTRA:                  -0.160
REMARK UNBOUND:                -0.105
REMARK  Name = 1550473
REMARK  2 active torsions:
REMARK  status: ('A' for Active; 'I' for Inactive)
REMARK    1  A    between atoms: N_1  and  C_4
REMARK    2  A    between atoms: C_4  and  C_5
REMARK                            x       y       z     vdW  Elec       q    Type
REMARK                         _______ _______ _______ _____ _____    ______ ____
ROOT
ATOM      1  N   UNL     1      12.950   1.325  27.903  0.00  0.00    -0.354 N 
ATOM      2  N   UNL     1      10.872   2.201  27.375  0.00  0.00    -0.372 N 
ATOM      3  N   UNL     1      12.148   3.254  28.965  0.00  0.00    -0.372 N 
ATOM      4  C   UNL     1      12.004   2.256  28.086  0.00  0.00    +0.166 C 
ATOM      5  H   UNL     1      12.767   0.577  27.243  0.00  0.00    +0.163 HD
ATOM      6  H   UNL     1      10.142   2.891  27.490  0.00  0.00    +0.159 HD
ATOM      7  H   UNL     1      10.711   1.478  26.684  0.00  0.00    +0.159 HD
ATOM      8  H   UNL     1      12.977   3.349  29.537  0.00  0.00    +0.159 HD
ATOM      9  H   UNL     1      11.424   3.948  29.102  0.00  0.00    +0.159 HD
ENDROOT
BRANCH   1  10
ATOM     10  C   UNL     1      14.241   1.325  28.587  0.00  0.00    +0.151 C 
BRANCH  10  11
ATOM     11  C   UNL     1      15.328   1.605  27.586  0.00  0.00    -0.028 A 
ATOM     12  C   UNL     1      15.706   0.628  26.654  0.00  0.00    +0.005 A 
ATOM     13  C   UNL     1      15.980   2.847  27.562  0.00  0.00    +0.005 A 
ATOM     14  C   UNL     1      16.694   0.897  25.704  0.00  0.00    +0.000 A 
ATOM     15  C   UNL     1      16.968   3.112  26.613  0.00  0.00    +0.000 A 
ATOM     16  C   UNL     1      17.323   2.138  25.683  0.00  0.00    +0.000 A 
ENDBRANCH  10  11
ENDBRANCH   1  10
TORSDOF 2
ENDMDL
MODEL 7
REMARK VINA RESULT:    -4.863     14.934     16.110
REMARK INTER + INTRA:          -5.536
REMARK INTER:                  -5.444
REMARK INTRA:                  -0.093
REMARK UNBOUND:                -0.105
REMARK  Name = 1550473
REMARK  2 active torsions:
REMARK  status: ('A' for Active; 'I' for Inactive)
REMARK    1  A    between atoms: N_1  and  C_4
REMARK    2  A    between atoms: C_4  and  C_5
REMARK                            x       y       z     vdW  Elec       q    Type
REMARK                         _______ _______ _______ _____ _____    ______ ____
ROOT
ATOM      1  N   UNL     1      -4.643 -10.922   4.635  0.00  0.00    -0.354 N 
ATOM      2  N   UNL     1      -5.008  -9.379   6.323  0.00  0.00    -0.372 N 
ATOM      3  N   UNL     1      -5.601  -8.834   4.175  0.00  0.00    -0.372 N 
ATOM      4  C   UNL     1      -5.083  -9.720   5.031  0.00  0.00    +0.166 C 
ATOM      5  H   UNL     1      -4.233 -11.537   5.329  0.00  0.00    +0.163 HD
ATOM      6  H   UNL     1      -5.335  -8.480   6.652  0.00  0.00    +0.159 HD
ATOM      7  H   UNL     1      -4.639 -10.013   7.021  0.00  0.00    +0.159 HD
ATOM      8  H   UNL     1      -5.680  -9.029   3.185  0.00  0.00    +0.159 HD
ATOM      9  H   UNL     1      -5.923  -7.925   4.482  0.00  0.00    +0.159 HD
ENDROOT
BRANCH   1  10
ATOM     10  C   UNL     1      -4.728 -11.413   3.261  0.00  0.00    +0.151 C 
BRANCH  10  11
ATOM     11  C   UNL     1      -3.893 -12.656   3.130  0.00  0.00    -0.028 A 
ATOM     12  C   UNL     1      -2.531 -12.568   2.808  0.00  0.00    +0.005 A 
ATOM     13  C   UNL     1      -4.456 -13.925   3.333  0.00  0.00    +0.005 A 
ATOM     14  C   UNL     1      -1.747 -13.721   2.716  0.00  0.00    +0.000 A 
ATOM     15  C   UNL     1      -3.671 -15.074   3.239  0.00  0.00    +0.000 A 
ATOM     16  C   UNL     1      -2.316 -14.972   2.933  0.00  0.00    +0.000 A 
ENDBRANCH  10  11
ENDBRANCH   1  10
TORSDOF 2
ENDMDL
MODEL 8
REMARK VINA RESULT:    -4.752     29.592     30.901
REMARK INTER + INTRA:          -5.412
REMARK INTER:                  -5.291
REMARK INTRA:                  -0.121
REMARK UNBOUND:                -0.105
REMARK  Name = 1550473
REMARK  2 active torsions:
REMARK  status: ('A' for Active; 'I' for Inactive)
REMARK    1  A    between atoms: N_1  and  C_4
REMARK    2  A    between atoms: C_4  and  C_5
REMARK                            x       y       z     vdW  Elec       q    Type
REMARK                         _______ _______ _______ _____ _____    ______ ____
ROOT
ATOM      1  N   UNL     1       4.193  -7.462 -19.380  0.00  0.00    -0.354 N 
ATOM      2  N   UNL     1       6.002  -7.269 -20.813  0.00  0.00    -0.372 N 
ATOM      3  N   UNL     1       6.386  -7.729 -18.598  0.00  0.00    -0.372 N 
ATOM      4  C   UNL     1       5.516  -7.489 -19.585  0.00  0.00    +0.166 C 
ATOM      5  H   UNL     1       3.588  -7.244 -20.164  0.00  0.00    +0.163 HD
ATOM      6  H   UNL     1       6.996  -7.286 -20.999  0.00  0.00    +0.159 HD
ATOM      7  H   UNL     1       5.393  -7.097 -21.604  0.00  0.00    +0.159 HD
ATOM      8  H   UNL     1       6.084  -7.897 -17.648  0.00  0.00    +0.159 HD
ATOM      9  H   UNL     1       7.385  -7.739 -18.762  0.00  0.00    +0.159 HD
ENDROOT
BRANCH   1  10
ATOM     10  C   UNL     1       3.559  -7.741 -18.093  0.00  0.00    +0.151 C 
BRANCH  10  11
ATOM     11  C   UNL     1       2.066  -7.746 -18.271  0.00  0.00    -0.028 A 
ATOM     12  C   UNL     1       1.230  -8.253 -17.265  0.00  0.00    +0.005 A 
ATOM     13  C   UNL     1       1.480  -7.238 -19.441  0.00  0.00    +0.005 A 
ATOM     14  C   UNL     1      -0.158  -8.230 -17.418  0.00  0.00    +0.000 A 
ATOM     15  C   UNL     1       0.093  -7.217 -19.589  0.00  0.00    +0.000 A 
ATOM     16  C   UNL     1      -0.726  -7.711 -18.577  0.00  0.00    +0.000 A 
ENDBRANCH  10  11
ENDBRANCH   1  10
TORSDOF 2
ENDMDL
MODEL 9
REMARK VINA RESULT:    -4.734      9.231     10.468
REMARK INTER + INTRA:          -5.392
REMARK INTER:                  -5.251
REMARK INTRA:                  -0.141
REMARK UNBOUND:                -0.105
REMARK  Name = 1550473
REMARK  2 active torsions:
REMARK  status: ('A' for Active; 'I' for Inactive)
REMARK    1  A    between atoms: N_1  and  C_4
REMARK    2  A    between atoms: C_4  and  C_5
REMARK                            x       y       z     vdW  Elec       q    Type
REMARK                         _______ _______ _______ _____ _____    ______ ____
ROOT
ATOM      1  N   UNL     1      -0.361   3.347   4.480  0.00  0.00    -0.354 N 
ATOM      2  N   UNL     1      -0.303   5.309   3.252  0.00  0.00    -0.372 N 
ATOM      3  N   UNL     1       1.458   3.847   3.091  0.00  0.00    -0.372 N 
ATOM      4  C   UNL     1       0.267   4.154   3.615  0.00  0.00    +0.166 C 
ATOM      5  H   UNL     1      -1.249   3.651   4.865  0.00  0.00    +0.163 HD
ATOM      6  H   UNL     1       0.146   5.937   2.598  0.00  0.00    +0.159 HD
ATOM      7  H   UNL     1      -1.211   5.589   3.602  0.00  0.00    +0.159 HD
ATOM      8  H   UNL     1       1.944   2.992   3.329  0.00  0.00    +0.159 HD
ATOM      9  H   UNL     1       1.929   4.468   2.444  0.00  0.00    +0.159 HD
ENDROOT
BRANCH   1  10
ATOM     10  C   UNL     1       0.148   2.042   4.899  0.00  0.00    +0.151 C 
BRANCH  10  11
ATOM     11  C   UNL     1      -0.916   1.003   4.672  0.00  0.00    -0.028 A 
ATOM     12  C   UNL     1      -2.135   1.352   4.073  0.00  0.00    +0.005 A 
ATOM     13  C   UNL     1      -0.708  -0.332   5.049  0.00  0.00    +0.005 A 
ATOM     14  C   UNL     1      -3.112   0.382   3.835  0.00  0.00    +0.000 A 
ATOM     15  C   UNL     1      -1.686  -1.298   4.810  0.00  0.00    +0.000 A 
ATOM     16  C   UNL     1      -2.887  -0.941   4.201  0.00  0.00    +0.000 A 
ENDBRANCH  10  11
ENDBRANCH   1  10
TORSDOF 2
ENDMDL
