MODEL 1
REMARK VINA RESULT:    -5.569      0.000      0.000
REMARK INTER + INTRA:          -6.334
REMARK INTER:                  -6.221
REMARK INTRA:                  -0.113
REMARK UNBOUND:                -0.113
REMARK  Name = 1550473
REMARK  2 active torsions:
REMARK  status: ('A' for Active; 'I' for Inactive)
REMARK    1  A    between atoms: N_1  and  C_4
REMARK    2  A    between atoms: C_4  and  C_5
REMARK                            x       y       z     vdW  Elec       q    Type
REMARK                         _______ _______ _______ _____ _____    ______ ____
ROOT
ATOM      1  N   UNL     1      -4.841  18.347  29.039  0.00  0.00    -0.354 N 
ATOM      2  N   UNL     1      -4.099  20.222  27.900  0.00  0.00    -0.372 N 
ATOM      3  N   UNL     1      -5.431  20.501  29.748  0.00  0.00    -0.372 N 
ATOM      4  C   UNL     1      -4.797  19.679  28.905  0.00  0.00    +0.166 C 
ATOM      5  H   UNL     1      -4.364  17.778  28.349  0.00  0.00    +0.163 HD
ATOM      6  H   UNL     1      -4.044  21.224  27.776  0.00  0.00    +0.159 HD
ATOM      7  H   UNL     1      -3.585  19.653  27.239  0.00  0.00    +0.159 HD
ATOM      8  H   UNL     1      -5.980  20.154  30.523  0.00  0.00    +0.159 HD
ATOM      9  H   UNL     1      -5.398  21.506  29.633  0.00  0.00    +0.159 HD
ENDROOT
BRANCH   1  10
ATOM     10  C   UNL     1      -5.528  17.657  30.129  0.00  0.00    +0.151 C 
BRANCH  10  11
ATOM     11  C   UNL     1      -4.521  16.876  30.928  0.00  0.00    -0.028 A 
ATOM     12  C   UNL     1      -4.881  15.667  31.541  0.00  0.00    +0.005 A 
ATOM     13  C   UNL     1      -3.203  17.337  31.071  0.00  0.00    +0.005 A 
ATOM     14  C   UNL     1      -3.938  14.927  32.258  0.00  0.00    +0.000 A 
ATOM     15  C   UNL     1      -2.265  16.595  31.788  0.00  0.00    +0.000 A 
ATOM     16  C   UNL     1      -2.632  15.389  32.380  0.00  0.00    +0.000 A 
ENDBRANCH  10  11
ENDBRANCH   1  10
TORSDOF 2
ENDMDL
MODEL 2
REMARK VINA RESULT:    -5.403     15.944     17.240
REMARK INTER + INTRA:          -6.147
REMARK INTER:                  -6.049
REMARK INTRA:                  -0.099
REMARK UNBOUND:                -0.113
REMARK  Name = 1550473
REMARK  2 active torsions:
REMARK  status: ('A' for Active; 'I' for Inactive)
REMARK    1  A    between atoms: N_1  and  C_4
REMARK    2  A    between atoms: C_4  and  C_5
REMARK                            x       y       z     vdW  Elec       q    Type
REMARK                         _______ _______ _______ _____ _____    ______ ____
ROOT
ATOM      1  N   UNL     1       6.299  24.514  17.842  0.00  0.00    -0.354 N 
ATOM      2  N   UNL     1       8.381  25.527  17.910  0.00  0.00    -0.372 N 
ATOM      3  N   UNL     1       7.995  23.696  19.238  0.00  0.00    -0.372 N 
ATOM      4  C   UNL     1       7.545  24.570  18.332  0.00  0.00    +0.166 C 
ATOM      5  H   UNL     1       6.009  25.224  17.180  0.00  0.00    +0.163 HD
ATOM      6  H   UNL     1       9.327  25.593  18.259  0.00  0.00    +0.159 HD
ATOM      7  H   UNL     1       8.103  26.208  17.214  0.00  0.00    +0.159 HD
ATOM      8  H   UNL     1       7.412  22.953  19.601  0.00  0.00    +0.159 HD
ATOM      9  H   UNL     1       8.935  23.752  19.608  0.00  0.00    +0.159 HD
ENDROOT
BRANCH   1  10
ATOM     10  C   UNL     1       5.328  23.479  18.195  0.00  0.00    +0.151 C 
BRANCH  10  11
ATOM     11  C   UNL     1       3.941  24.052  18.092  0.00  0.00    -0.028 A 
ATOM     12  C   UNL     1       3.353  24.273  16.838  0.00  0.00    +0.005 A 
ATOM     13  C   UNL     1       3.208  24.371  19.246  0.00  0.00    +0.005 A 
ATOM     14  C   UNL     1       2.054  24.777  16.743  0.00  0.00    +0.000 A 
ATOM     15  C   UNL     1       1.911  24.874  19.146  0.00  0.00    +0.000 A 
ATOM     16  C   UNL     1       1.334  25.075  17.895  0.00  0.00    +0.000 A 
ENDBRANCH  10  11
ENDBRANCH   1  10
TORSDOF 2
ENDMDL
MODEL 3
REMARK VINA RESULT:    -5.307      3.171      4.177
REMARK INTER + INTRA:          -6.040
REMARK INTER:                  -5.903
REMARK INTRA:                  -0.138
REMARK UNBOUND:                -0.113
REMARK  Name = 1550473
REMARK  2 active torsions:
REMARK  status: ('A' for Active; 'I' for Inactive)
REMARK    1  A    between atoms: N_1  and  C_4
REMARK    2  A    between atoms: C_4  and  C_5
REMARK                            x       y       z     vdW  Elec       q    Type
REMARK                         _______ _______ _______ _____ _____    ______ ____
ROOT
ATOM      1  N   UNL     1      -7.169  15.508  32.223  0.00  0.00    -0.354 N 
ATOM      2  N   UNL     1      -8.837  15.780  33.806  0.00  0.00    -0.372 N 
ATOM      3  N   UNL     1      -8.522  17.421  32.234  0.00  0.00    -0.372 N 
ATOM      4  C   UNL     1      -8.165  16.237  32.742  0.00  0.00    +0.166 C 
ATOM      5  H   UNL     1      -6.927  14.633  32.674  0.00  0.00    +0.163 HD
ATOM      6  H   UNL     1      -9.596  16.306  34.217  0.00  0.00    +0.159 HD
ATOM      7  H   UNL     1      -8.624  14.883  34.226  0.00  0.00    +0.159 HD
ATOM      8  H   UNL     1      -8.051  17.825  31.435  0.00  0.00    +0.159 HD
ATOM      9  H   UNL     1      -9.271  17.968  32.639  0.00  0.00    +0.159 HD
ENDROOT
BRANCH   1  10
ATOM     10  C   UNL     1      -6.410  15.890  31.034  0.00  0.00    +0.151 C 
BRANCH  10  11
ATOM     11  C   UNL     1      -4.950  15.970  31.387  0.00  0.00    -0.028 A 
ATOM     12  C   UNL     1      -4.171  17.053  30.953  0.00  0.00    +0.005 A 
ATOM     13  C   UNL     1      -4.342  14.970  32.161  0.00  0.00    +0.005 A 
ATOM     14  C   UNL     1      -2.822  17.143  31.307  0.00  0.00    +0.000 A 
ATOM     15  C   UNL     1      -2.995  15.063  32.511  0.00  0.00    +0.000 A 
ATOM     16  C   UNL     1      -2.236  16.151  32.086  0.00  0.00    +0.000 A 
ENDBRANCH  10  11
ENDBRANCH   1  10
TORSDOF 2
ENDMDL
MODEL 4
REMARK VINA RESULT:    -5.266     43.470     44.279
REMARK INTER + INTRA:          -5.995
REMARK INTER:                  -5.862
REMARK INTRA:                  -0.133
REMARK UNBOUND:                -0.113
REMARK  Name = 1550473
REMARK  2 active torsions:
REMARK  status: ('A' for Active; 'I' for Inactive)
REMARK    1  A    between atoms: N_1  and  C_4
REMARK    2  A    between atoms: C_4  and  C_5
REMARK                            x       y       z     vdW  Elec       q    Type
REMARK                         _______ _______ _______ _____ _____    ______ ____
ROOT
ATOM      1  N   UNL     1      -9.241  -3.399  -8.985  0.00  0.00    -0.354 N 
ATOM      2  N   UNL     1      -7.879  -5.037  -8.076  0.00  0.00    -0.372 N 
ATOM      3  N   UNL     1      -6.910  -3.278  -9.186  0.00  0.00    -0.372 N 
ATOM      4  C   UNL     1      -8.017  -3.892  -8.756  0.00  0.00    +0.166 C 
ATOM      5  H   UNL     1     -10.042  -3.928  -8.659  0.00  0.00    +0.163 HD
ATOM      6  H   UNL     1      -6.968  -5.432  -7.885  0.00  0.00    +0.159 HD
ATOM      7  H   UNL     1      -8.679  -5.540  -7.712  0.00  0.00    +0.159 HD
ATOM      8  H   UNL     1      -6.946  -2.414  -9.710  0.00  0.00    +0.159 HD
ATOM      9  H   UNL     1      -5.989  -3.664  -9.015  0.00  0.00    +0.159 HD
ENDROOT
BRANCH   1  10
ATOM     10  C   UNL     1      -9.498  -2.132  -9.668  0.00  0.00    +0.151 C 
BRANCH  10  11
ATOM     11  C   UNL     1     -10.541  -1.365  -8.904  0.00  0.00    -0.028 A 
ATOM     12  C   UNL     1     -10.345  -1.048  -7.552  0.00  0.00    +0.005 A 
ATOM     13  C   UNL     1     -11.726  -0.946  -9.529  0.00  0.00    +0.005 A 
ATOM     14  C   UNL     1     -11.300  -0.309  -6.851  0.00  0.00    +0.000 A 
ATOM     15  C   UNL     1     -12.678  -0.209  -8.824  0.00  0.00    +0.000 A 
ATOM     16  C   UNL     1     -12.464   0.112  -7.486  0.00  0.00    +0.000 A 
ENDBRANCH  10  11
ENDBRANCH   1  10
TORSDOF 2
ENDMDL
MODEL 5
REMARK VINA RESULT:    -4.747     46.992     47.774
REMARK INTER + INTRA:          -5.415
REMARK INTER:                  -5.292
REMARK INTRA:                  -0.123
REMARK UNBOUND:                -0.113
REMARK  Name = 1550473
REMARK  2 active torsions:
REMARK  status: ('A' for Active; 'I' for Inactive)
REMARK    1  A    between atoms: N_1  and  C_4
REMARK    2  A    between atoms: C_4  and  C_5
REMARK                            x       y       z     vdW  Elec       q    Type
REMARK                         _______ _______ _______ _____ _____    ______ ____
ROOT
ATOM      1  N   UNL     1      -6.082  -2.505 -13.936  0.00  0.00    -0.354 N 
ATOM      2  N   UNL     1      -5.243  -2.817 -16.072  0.00  0.00    -0.372 N 
ATOM      3  N   UNL     1      -3.907  -1.831 -14.488  0.00  0.00    -0.372 N 
ATOM      4  C   UNL     1      -5.081  -2.381 -14.817  0.00  0.00    +0.166 C 
ATOM      5  H   UNL     1      -6.958  -2.903 -14.255  0.00  0.00    +0.163 HD
ATOM      6  H   UNL     1      -4.504  -2.740 -16.758  0.00  0.00    +0.159 HD
ATOM      7  H   UNL     1      -6.104  -3.256 -16.376  0.00  0.00    +0.159 HD
ATOM      8  H   UNL     1      -3.722  -1.477 -13.559  0.00  0.00    +0.159 HD
ATOM      9  H   UNL     1      -3.159  -1.735 -15.164  0.00  0.00    +0.159 HD
ENDROOT
BRANCH   1  10
ATOM     10  C   UNL     1      -5.989  -2.111 -12.531  0.00  0.00    +0.151 C 
BRANCH  10  11
ATOM     11  C   UNL     1      -7.370  -2.083 -11.936  0.00  0.00    -0.028 A 
ATOM     12  C   UNL     1      -8.495  -1.918 -12.756  0.00  0.00    +0.005 A 
ATOM     13  C   UNL     1      -7.560  -2.228 -10.553  0.00  0.00    +0.005 A 
ATOM     14  C   UNL     1      -9.780  -1.922 -12.207  0.00  0.00    +0.000 A 
ATOM     15  C   UNL     1      -8.844  -2.231 -10.009  0.00  0.00    +0.000 A 
ATOM     16  C   UNL     1      -9.954  -2.080 -10.837  0.00  0.00    +0.000 A 
ENDBRANCH  10  11
ENDBRANCH   1  10
TORSDOF 2
ENDMDL
MODEL 6
REMARK VINA RESULT:    -4.672     14.802     15.991
REMARK INTER + INTRA:          -5.331
REMARK INTER:                  -5.198
REMARK INTRA:                  -0.134
REMARK UNBOUND:                -0.113
REMARK  Name = 1550473
REMARK  2 active torsions:
REMARK  status: ('A' for Active; 'I' for Inactive)
REMARK    1  A    between atoms: N_1  and  C_4
REMARK    2  A    between atoms: C_4  and  C_5
REMARK                            x       y       z     vdW  Elec       q    Type
REMARK                         _______ _______ _______ _____ _____    ______ ____
ROOT
ATOM      1  N   UNL     1       0.460  27.083  19.378  0.00  0.00    -0.354 N 
ATOM      2  N   UNL     1       0.853  29.361  19.239  0.00  0.00    -0.372 N 
ATOM      3  N   UNL     1       2.292  28.060  20.464  0.00  0.00    -0.372 N 
ATOM      4  C   UNL     1       1.202  28.152  19.697  0.00  0.00    +0.166 C 
ATOM      5  H   UNL     1      -0.372  27.224  18.817  0.00  0.00    +0.163 HD
ATOM      6  H   UNL     1       1.395  30.186  19.460  0.00  0.00    +0.159 HD
ATOM      7  H   UNL     1       0.047  29.492  18.641  0.00  0.00    +0.159 HD
ATOM      8  H   UNL     1       2.605  27.177  20.846  0.00  0.00    +0.159 HD
ATOM      9  H   UNL     1       2.841  28.875  20.706  0.00  0.00    +0.159 HD
ENDROOT
BRANCH   1  10
ATOM     10  C   UNL     1       0.783  25.715  19.780  0.00  0.00    +0.151 C 
BRANCH  10  11
ATOM     11  C   UNL     1       1.751  25.127  18.790  0.00  0.00    -0.028 A 
ATOM     12  C   UNL     1       1.440  25.098  17.422  0.00  0.00    +0.005 A 
ATOM     13  C   UNL     1       2.982  24.603  19.212  0.00  0.00    +0.005 A 
ATOM     14  C   UNL     1       2.351  24.580  16.499  0.00  0.00    +0.000 A 
ATOM     15  C   UNL     1       3.888  24.085  18.287  0.00  0.00    +0.000 A 
ATOM     16  C   UNL     1       3.574  24.076  16.931  0.00  0.00    +0.000 A 
ENDBRANCH  10  11
ENDBRANCH   1  10
TORSDOF 2
ENDMDL
MODEL 7
REMARK VINA RESULT:    -4.520     15.614     16.948
REMARK INTER + INTRA:          -5.161
REMARK INTER:                  -5.056
REMARK INTRA:                  -0.105
REMARK UNBOUND:                -0.113
REMARK  Name = 1550473
REMARK  2 active torsions:
REMARK  status: ('A' for Active; 'I' for Inactive)
REMARK    1  A    between atoms: N_1  and  C_4
REMARK    2  A    between atoms: C_4  and  C_5
REMARK                            x       y       z     vdW  Elec       q    Type
REMARK                         _______ _______ _______ _____ _____    ______ ____
ROOT
ATOM      1  N   UNL     1       6.740  21.556  17.802  0.00  0.00    -0.354 N 
ATOM      2  N   UNL     1       7.573  19.567  16.955  0.00  0.00    -0.372 N 
ATOM      3  N   UNL     1       8.372  20.339  18.963  0.00  0.00    -0.372 N 
ATOM      4  C   UNL     1       7.558  20.501  17.915  0.00  0.00    +0.166 C 
ATOM      5  H   UNL     1       6.170  21.635  16.968  0.00  0.00    +0.163 HD
ATOM      6  H   UNL     1       8.177  18.759  17.015  0.00  0.00    +0.159 HD
ATOM      7  H   UNL     1       6.969  19.626  16.145  0.00  0.00    +0.159 HD
ATOM      8  H   UNL     1       8.413  21.011  19.718  0.00  0.00    +0.159 HD
ATOM      9  H   UNL     1       8.993  19.542  19.035  0.00  0.00    +0.159 HD
ENDROOT
BRANCH   1  10
ATOM     10  C   UNL     1       6.608  22.600  18.816  0.00  0.00    +0.151 C 
BRANCH  10  11
ATOM     11  C   UNL     1       5.248  23.229  18.700  0.00  0.00    -0.028 A 
ATOM     12  C   UNL     1       4.423  23.357  19.827  0.00  0.00    +0.005 A 
ATOM     13  C   UNL     1       4.779  23.705  17.465  0.00  0.00    +0.005 A 
ATOM     14  C   UNL     1       3.171  23.969  19.725  0.00  0.00    +0.000 A 
ATOM     15  C   UNL     1       3.528  24.314  17.367  0.00  0.00    +0.000 A 
ATOM     16  C   UNL     1       2.726  24.448  18.497  0.00  0.00    +0.000 A 
ENDBRANCH  10  11
ENDBRANCH   1  10
TORSDOF 2
ENDMDL
MODEL 8
REMARK VINA RESULT:    -4.482     48.227     49.042
REMARK INTER + INTRA:          -5.119
REMARK INTER:                  -4.984
REMARK INTRA:                  -0.135
REMARK UNBOUND:                -0.113
REMARK  Name = 1550473
REMARK  2 active torsions:
REMARK  status: ('A' for Active; 'I' for Inactive)
REMARK    1  A    between atoms: N_1  and  C_4
REMARK    2  A    between atoms: C_4  and  C_5
REMARK                            x       y       z     vdW  Elec       q    Type
REMARK                         _______ _______ _______ _____ _____    ______ ____
ROOT
ATOM      1  N   UNL     1      -4.690  -1.113 -15.692  0.00  0.00    -0.354 N 
ATOM      2  N   UNL     1      -2.448  -0.551 -15.824  0.00  0.00    -0.372 N 
ATOM      3  N   UNL     1      -3.051  -2.757 -16.011  0.00  0.00    -0.372 N 
ATOM      4  C   UNL     1      -3.411  -1.480 -15.842  0.00  0.00    +0.166 C 
ATOM      5  H   UNL     1      -4.895  -0.133 -15.538  0.00  0.00    +0.163 HD
ATOM      6  H   UNL     1      -1.473  -0.797 -15.938  0.00  0.00    +0.159 HD
ATOM      7  H   UNL     1      -2.659   0.434 -15.716  0.00  0.00    +0.159 HD
ATOM      8  H   UNL     1      -3.729  -3.507 -16.027  0.00  0.00    +0.159 HD
ATOM      9  H   UNL     1      -2.080  -3.025 -16.114  0.00  0.00    +0.159 HD
ENDROOT
BRANCH   1  10
ATOM     10  C   UNL     1      -5.819  -2.041 -15.750  0.00  0.00    +0.151 C 
BRANCH  10  11
ATOM     11  C   UNL     1      -6.540  -2.019 -14.431  0.00  0.00    -0.028 A 
ATOM     12  C   UNL     1      -7.939  -1.925 -14.386  0.00  0.00    +0.005 A 
ATOM     13  C   UNL     1      -5.831  -2.097 -13.222  0.00  0.00    +0.005 A 
ATOM     14  C   UNL     1      -8.612  -1.935 -13.161  0.00  0.00    +0.000 A 
ATOM     15  C   UNL     1      -6.507  -2.106 -12.002  0.00  0.00    +0.000 A 
ATOM     16  C   UNL     1      -7.897  -2.027 -11.972  0.00  0.00    +0.000 A 
ENDBRANCH  10  11
ENDBRANCH   1  10
TORSDOF 2
ENDMDL
MODEL 9
REMARK VINA RESULT:    -4.379     18.805     19.847
REMARK INTER + INTRA:          -5.004
REMARK INTER:                  -4.897
REMARK INTRA:                  -0.107
REMARK UNBOUND:                -0.113
REMARK  Name = 1550473
REMARK  2 active torsions:
REMARK  status: ('A' for Active; 'I' for Inactive)
REMARK    1  A    between atoms: N_1  and  C_4
REMARK    2  A    between atoms: C_4  and  C_5
REMARK                            x       y       z     vdW  Elec       q    Type
REMARK                         _______ _______ _______ _____ _____    ______ ____
ROOT
ATOM      1  N   UNL     1       1.595  19.977  11.610  0.00  0.00    -0.354 N 
ATOM      2  N   UNL     1       1.938  21.998  10.532  0.00  0.00    -0.372 N 
ATOM      3  N   UNL     1       3.201  21.499  12.382  0.00  0.00    -0.372 N 
ATOM      4  C   UNL     1       2.244  21.145  11.517  0.00  0.00    +0.166 C 
ATOM      5  H   UNL     1       0.859  19.781  10.941  0.00  0.00    +0.163 HD
ATOM      6  H   UNL     1       2.413  22.886  10.435  0.00  0.00    +0.159 HD
ATOM      7  H   UNL     1       1.233  21.780   9.838  0.00  0.00    +0.159 HD
ATOM      8  H   UNL     1       3.475  20.903  13.151  0.00  0.00    +0.159 HD
ATOM      9  H   UNL     1       3.679  22.388  12.308  0.00  0.00    +0.159 HD
ENDROOT
BRANCH   1  10
ATOM     10  C   UNL     1       1.890  18.955  12.612  0.00  0.00    +0.151 C 
BRANCH  10  11
ATOM     11  C   UNL     1       1.387  17.626  12.122  0.00  0.00    -0.028 A 
ATOM     12  C   UNL     1       1.925  17.043  10.965  0.00  0.00    +0.005 A 
ATOM     13  C   UNL     1       0.376  16.940  12.813  0.00  0.00    +0.005 A 
ATOM     14  C   UNL     1       1.479  15.795  10.525  0.00  0.00    +0.000 A 
ATOM     15  C   UNL     1      -0.068  15.694  12.370  0.00  0.00    +0.000 A 
ATOM     16  C   UNL     1       0.486  15.120  11.228  0.00  0.00    +0.000 A 
ENDBRANCH  10  11
ENDBRANCH   1  10
TORSDOF 2
ENDMDL
