MODEL 1
REMARK VINA RESULT:    -5.088      0.000      0.000
REMARK INTER + INTRA:          -5.810
REMARK INTER:                  -5.682
REMARK INTRA:                  -0.127
REMARK UNBOUND:                -0.127
REMARK  Name = 1550473
REMARK  2 active torsions:
REMARK  status: ('A' for Active; 'I' for Inactive)
REMARK    1  A    between atoms: N_1  and  C_4
REMARK    2  A    between atoms: C_4  and  C_5
REMARK                            x       y       z     vdW  Elec       q    Type
REMARK                         _______ _______ _______ _____ _____    ______ ____
ROOT
ATOM      1  N   UNL     1       3.239   7.017  22.282  0.00  0.00    -0.354 N 
ATOM      2  N   UNL     1       4.231   4.976  21.820  0.00  0.00    -0.372 N 
ATOM      3  N   UNL     1       4.090   5.672  24.002  0.00  0.00    -0.372 N 
ATOM      4  C   UNL     1       3.847   5.902  22.707  0.00  0.00    +0.166 C 
ATOM      5  H   UNL     1       3.112   7.146  21.285  0.00  0.00    +0.163 HD
ATOM      6  H   UNL     1       4.689   4.123  22.111  0.00  0.00    +0.159 HD
ATOM      7  H   UNL     1       4.061   5.086  20.827  0.00  0.00    +0.159 HD
ATOM      8  H   UNL     1       3.830   6.334  24.721  0.00  0.00    +0.159 HD
ATOM      9  H   UNL     1       4.557   4.829  24.312  0.00  0.00    +0.159 HD
ENDROOT
BRANCH   1  10
ATOM     10  C   UNL     1       2.734   8.063  23.170  0.00  0.00    +0.151 C 
BRANCH  10  11
ATOM     11  C   UNL     1       1.651   8.829  22.462  0.00  0.00    -0.028 A 
ATOM     12  C   UNL     1       1.254  10.092  22.923  0.00  0.00    +0.005 A 
ATOM     13  C   UNL     1       1.022   8.299  21.325  0.00  0.00    +0.005 A 
ATOM     14  C   UNL     1       0.269  10.817  22.248  0.00  0.00    +0.000 A 
ATOM     15  C   UNL     1       0.039   9.025  20.654  0.00  0.00    +0.000 A 
ATOM     16  C   UNL     1      -0.336  10.285  21.114  0.00  0.00    +0.000 A 
ENDBRANCH  10  11
ENDBRANCH   1  10
TORSDOF 2
ENDMDL
MODEL 2
REMARK VINA RESULT:    -4.883      1.147      2.049
REMARK INTER + INTRA:          -5.581
REMARK INTER:                  -5.488
REMARK INTRA:                  -0.093
REMARK UNBOUND:                -0.127
REMARK  Name = 1550473
REMARK  2 active torsions:
REMARK  status: ('A' for Active; 'I' for Inactive)
REMARK    1  A    between atoms: N_1  and  C_4
REMARK    2  A    between atoms: C_4  and  C_5
REMARK                            x       y       z     vdW  Elec       q    Type
REMARK                         _______ _______ _______ _____ _____    ______ ____
ROOT
ATOM      1  N   UNL     1       4.082   6.340  22.194  0.00  0.00    -0.354 N 
ATOM      2  N   UNL     1       6.153   5.446  21.669  0.00  0.00    -0.372 N 
ATOM      3  N   UNL     1       4.636   4.143  22.795  0.00  0.00    -0.372 N 
ATOM      4  C   UNL     1       4.943   5.313  22.224  0.00  0.00    +0.166 C 
ATOM      5  H   UNL     1       4.386   7.210  21.773  0.00  0.00    +0.163 HD
ATOM      6  H   UNL     1       6.822   4.687  21.673  0.00  0.00    +0.159 HD
ATOM      7  H   UNL     1       6.437   6.302  21.208  0.00  0.00    +0.159 HD
ATOM      8  H   UNL     1       3.741   3.981  23.236  0.00  0.00    +0.159 HD
ATOM      9  H   UNL     1       5.297   3.377  22.819  0.00  0.00    +0.159 HD
ENDROOT
BRANCH   1  10
ATOM     10  C   UNL     1       2.720   6.281  22.722  0.00  0.00    +0.151 C 
BRANCH  10  11
ATOM     11  C   UNL     1       2.064   7.621  22.537  0.00  0.00    -0.028 A 
ATOM     12  C   UNL     1       1.110   7.813  21.526  0.00  0.00    +0.005 A 
ATOM     13  C   UNL     1       2.386   8.702  23.372  0.00  0.00    +0.005 A 
ATOM     14  C   UNL     1       0.478   9.049  21.373  0.00  0.00    +0.000 A 
ATOM     15  C   UNL     1       1.753   9.934  23.215  0.00  0.00    +0.000 A 
ATOM     16  C   UNL     1       0.797  10.107  22.217  0.00  0.00    +0.000 A 
ENDBRANCH  10  11
ENDBRANCH   1  10
TORSDOF 2
ENDMDL
MODEL 3
REMARK VINA RESULT:    -4.872      1.134      1.455
REMARK INTER + INTRA:          -5.569
REMARK INTER:                  -5.478
REMARK INTRA:                  -0.091
REMARK UNBOUND:                -0.127
REMARK  Name = 1550473
REMARK  2 active torsions:
REMARK  status: ('A' for Active; 'I' for Inactive)
REMARK    1  A    between atoms: N_1  and  C_4
REMARK    2  A    between atoms: C_4  and  C_5
REMARK                            x       y       z     vdW  Elec       q    Type
REMARK                         _______ _______ _______ _____ _____    ______ ____
ROOT
ATOM      1  N   UNL     1       4.086   6.398  22.223  0.00  0.00    -0.354 N 
ATOM      2  N   UNL     1       6.082   5.448  21.532  0.00  0.00    -0.372 N 
ATOM      3  N   UNL     1       4.804   4.339  23.082  0.00  0.00    -0.372 N 
ATOM      4  C   UNL     1       4.977   5.399  22.286  0.00  0.00    +0.166 C 
ATOM      5  H   UNL     1       4.290   7.188  21.622  0.00  0.00    +0.163 HD
ATOM      6  H   UNL     1       6.770   4.707  21.555  0.00  0.00    +0.159 HD
ATOM      7  H   UNL     1       6.260   6.217  20.897  0.00  0.00    +0.159 HD
ATOM      8  H   UNL     1       3.994   4.245  23.681  0.00  0.00    +0.159 HD
ATOM      9  H   UNL     1       5.488   3.594  23.128  0.00  0.00    +0.159 HD
ENDROOT
BRANCH   1  10
ATOM     10  C   UNL     1       2.825   6.416  22.963  0.00  0.00    +0.151 C 
BRANCH  10  11
ATOM     11  C   UNL     1       2.091   7.691  22.651  0.00  0.00    -0.028 A 
ATOM     12  C   UNL     1       2.326   8.851  23.405  0.00  0.00    +0.005 A 
ATOM     13  C   UNL     1       1.164   7.749  21.600  0.00  0.00    +0.005 A 
ATOM     14  C   UNL     1       1.667  10.043  23.097  0.00  0.00    +0.000 A 
ATOM     15  C   UNL     1       0.507   8.941  21.296  0.00  0.00    +0.000 A 
ATOM     16  C   UNL     1       0.761  10.089  22.043  0.00  0.00    +0.000 A 
ENDBRANCH  10  11
ENDBRANCH   1  10
TORSDOF 2
ENDMDL
MODEL 4
REMARK VINA RESULT:    -4.794     27.995     29.359
REMARK INTER + INTRA:          -5.481
REMARK INTER:                  -5.341
REMARK INTRA:                  -0.140
REMARK UNBOUND:                -0.127
REMARK  Name = 1550473
REMARK  2 active torsions:
REMARK  status: ('A' for Active; 'I' for Inactive)
REMARK    1  A    between atoms: N_1  and  C_4
REMARK    2  A    between atoms: C_4  and  C_5
REMARK                            x       y       z     vdW  Elec       q    Type
REMARK                         _______ _______ _______ _____ _____    ______ ____
ROOT
ATOM      1  N   UNL     1      -6.949  -6.831  -3.181  0.00  0.00    -0.354 N 
ATOM      2  N   UNL     1      -6.481  -8.679  -4.496  0.00  0.00    -0.372 N 
ATOM      3  N   UNL     1      -8.449  -8.626  -3.318  0.00  0.00    -0.372 N 
ATOM      4  C   UNL     1      -7.299  -8.034  -3.655  0.00  0.00    +0.166 C 
ATOM      5  H   UNL     1      -6.049  -6.450  -3.451  0.00  0.00    +0.163 HD
ATOM      6  H   UNL     1      -6.720  -9.586  -4.873  0.00  0.00    +0.159 HD
ATOM      7  H   UNL     1      -5.604  -8.275  -4.801  0.00  0.00    +0.159 HD
ATOM      8  H   UNL     1      -9.107  -8.194  -2.682  0.00  0.00    +0.159 HD
ATOM      9  H   UNL     1      -8.701  -9.539  -3.675  0.00  0.00    +0.159 HD
ENDROOT
BRANCH   1  10
ATOM     10  C   UNL     1      -7.791  -6.022  -2.302  0.00  0.00    +0.151 C 
BRANCH  10  11
ATOM     11  C   UNL     1      -6.953  -5.487  -1.174  0.00  0.00    -0.028 A 
ATOM     12  C   UNL     1      -5.827  -6.194  -0.726  0.00  0.00    +0.005 A 
ATOM     13  C   UNL     1      -7.276  -4.271  -0.552  0.00  0.00    +0.005 A 
ATOM     14  C   UNL     1      -5.031  -5.683   0.302  0.00  0.00    +0.000 A 
ATOM     15  C   UNL     1      -6.479  -3.764   0.474  0.00  0.00    +0.000 A 
ATOM     16  C   UNL     1      -5.355  -4.469   0.899  0.00  0.00    +0.000 A 
ENDBRANCH  10  11
ENDBRANCH   1  10
TORSDOF 2
ENDMDL
MODEL 5
REMARK VINA RESULT:    -4.739     23.291     24.293
REMARK INTER + INTRA:          -5.420
REMARK INTER:                  -5.316
REMARK INTRA:                  -0.104
REMARK UNBOUND:                -0.127
REMARK  Name = 1550473
REMARK  2 active torsions:
REMARK  status: ('A' for Active; 'I' for Inactive)
REMARK    1  A    between atoms: N_1  and  C_4
REMARK    2  A    between atoms: C_4  and  C_5
REMARK                            x       y       z     vdW  Elec       q    Type
REMARK                         _______ _______ _______ _____ _____    ______ ____
ROOT
ATOM      1  N   UNL     1      10.520  23.247  38.378  0.00  0.00    -0.354 N 
ATOM      2  N   UNL     1      11.995  21.547  37.832  0.00  0.00    -0.372 N 
ATOM      3  N   UNL     1      12.204  22.586  39.868  0.00  0.00    -0.372 N 
ATOM      4  C   UNL     1      11.565  22.472  38.698  0.00  0.00    +0.166 C 
ATOM      5  H   UNL     1      10.098  23.132  37.463  0.00  0.00    +0.163 HD
ATOM      6  H   UNL     1      12.779  20.945  38.048  0.00  0.00    +0.159 HD
ATOM      7  H   UNL     1      11.543  21.403  36.938  0.00  0.00    +0.159 HD
ATOM      8  H   UNL     1      11.931  23.268  40.562  0.00  0.00    +0.159 HD
ATOM      9  H   UNL     1      12.997  22.000  40.097  0.00  0.00    +0.159 HD
ENDROOT
BRANCH   1  10
ATOM     10  C   UNL     1       9.939  24.247  39.271  0.00  0.00    +0.151 C 
BRANCH  10  11
ATOM     11  C   UNL     1       9.210  25.275  38.451  0.00  0.00    -0.028 A 
ATOM     12  C   UNL     1       9.491  26.640  38.605  0.00  0.00    +0.005 A 
ATOM     13  C   UNL     1       8.240  24.889  37.512  0.00  0.00    +0.005 A 
ATOM     14  C   UNL     1       8.835  27.593  37.822  0.00  0.00    +0.000 A 
ATOM     15  C   UNL     1       7.587  25.843  36.733  0.00  0.00    +0.000 A 
ATOM     16  C   UNL     1       7.886  27.195  36.886  0.00  0.00    +0.000 A 
ENDBRANCH  10  11
ENDBRANCH   1  10
TORSDOF 2
ENDMDL
MODEL 6
REMARK VINA RESULT:    -4.274     25.849     26.960
REMARK INTER + INTRA:          -4.901
REMARK INTER:                  -4.797
REMARK INTRA:                  -0.104
REMARK UNBOUND:                -0.127
REMARK  Name = 1550473
REMARK  2 active torsions:
REMARK  status: ('A' for Active; 'I' for Inactive)
REMARK    1  A    between atoms: N_1  and  C_4
REMARK    2  A    between atoms: C_4  and  C_5
REMARK                            x       y       z     vdW  Elec       q    Type
REMARK                         _______ _______ _______ _____ _____    ______ ____
ROOT
ATOM      1  N   UNL     1      -8.673  -3.022   1.013  0.00  0.00    -0.354 N 
ATOM      2  N   UNL     1     -10.855  -2.429   1.517  0.00  0.00    -0.372 N 
ATOM      3  N   UNL     1      -9.269  -0.780   1.346  0.00  0.00    -0.372 N 
ATOM      4  C   UNL     1      -9.583  -2.078   1.289  0.00  0.00    +0.166 C 
ATOM      5  H   UNL     1      -8.969  -3.991   1.014  0.00  0.00    +0.163 HD
ATOM      6  H   UNL     1     -11.564  -1.739   1.724  0.00  0.00    +0.159 HD
ATOM      7  H   UNL     1     -11.157  -3.395   1.472  0.00  0.00    +0.159 HD
ATOM      8  H   UNL     1      -8.325  -0.450   1.190  0.00  0.00    +0.159 HD
ATOM      9  H   UNL     1      -9.962  -0.075   1.564  0.00  0.00    +0.159 HD
ENDROOT
BRANCH   1  10
ATOM     10  C   UNL     1      -7.274  -2.740   0.697  0.00  0.00    +0.151 C 
BRANCH  10  11
ATOM     11  C   UNL     1      -6.576  -4.031   0.366  0.00  0.00    -0.028 A 
ATOM     12  C   UNL     1      -7.085  -4.882  -0.625  0.00  0.00    +0.005 A 
ATOM     13  C   UNL     1      -5.402  -4.406   1.037  0.00  0.00    +0.005 A 
ATOM     14  C   UNL     1      -6.421  -6.066  -0.954  0.00  0.00    +0.000 A 
ATOM     15  C   UNL     1      -4.742  -5.589   0.707  0.00  0.00    +0.000 A 
ATOM     16  C   UNL     1      -5.250  -6.418  -0.290  0.00  0.00    +0.000 A 
ENDBRANCH  10  11
ENDBRANCH   1  10
TORSDOF 2
ENDMDL
MODEL 7
REMARK VINA RESULT:    -4.224      3.767      5.139
REMARK INTER + INTRA:          -4.845
REMARK INTER:                  -4.718
REMARK INTRA:                  -0.127
REMARK UNBOUND:                -0.127
REMARK  Name = 1550473
REMARK  2 active torsions:
REMARK  status: ('A' for Active; 'I' for Inactive)
REMARK    1  A    between atoms: N_1  and  C_4
REMARK    2  A    between atoms: C_4  and  C_5
REMARK                            x       y       z     vdW  Elec       q    Type
REMARK                         _______ _______ _______ _____ _____    ______ ____
ROOT
ATOM      1  N   UNL     1      -2.150   7.966  20.773  0.00  0.00    -0.354 N 
ATOM      2  N   UNL     1      -3.270   6.169  19.835  0.00  0.00    -0.372 N 
ATOM      3  N   UNL     1      -3.373   8.208  18.789  0.00  0.00    -0.372 N 
ATOM      4  C   UNL     1      -2.925   7.461  19.803  0.00  0.00    +0.166 C 
ATOM      5  H   UNL     1      -1.868   7.354  21.530  0.00  0.00    +0.163 HD
ATOM      6  H   UNL     1      -3.850   5.759  19.115  0.00  0.00    +0.159 HD
ATOM      7  H   UNL     1      -2.948   5.549  20.568  0.00  0.00    +0.159 HD
ATOM      8  H   UNL     1      -3.154   9.192  18.710  0.00  0.00    +0.159 HD
ATOM      9  H   UNL     1      -3.965   7.819  18.065  0.00  0.00    +0.159 HD
ENDROOT
BRANCH   1  10
ATOM     10  C   UNL     1      -1.673   9.347  20.803  0.00  0.00    +0.151 C 
BRANCH  10  11
ATOM     11  C   UNL     1      -0.325   9.387  21.468  0.00  0.00    -0.028 A 
ATOM     12  C   UNL     1       0.032  10.466  22.290  0.00  0.00    +0.005 A 
ATOM     13  C   UNL     1       0.598   8.346  21.284  0.00  0.00    +0.005 A 
ATOM     14  C   UNL     1       1.272  10.489  22.932  0.00  0.00    +0.000 A 
ATOM     15  C   UNL     1       1.836   8.374  21.926  0.00  0.00    +0.000 A 
ATOM     16  C   UNL     1       2.172   9.444  22.752  0.00  0.00    +0.000 A 
ENDBRANCH  10  11
ENDBRANCH   1  10
TORSDOF 2
ENDMDL
MODEL 8
REMARK VINA RESULT:    -4.195     36.257     37.057
REMARK INTER + INTRA:          -4.813
REMARK INTER:                  -4.658
REMARK INTRA:                  -0.155
REMARK UNBOUND:                -0.127
REMARK  Name = 1550473
REMARK  2 active torsions:
REMARK  status: ('A' for Active; 'I' for Inactive)
REMARK    1  A    between atoms: N_1  and  C_4
REMARK    2  A    between atoms: C_4  and  C_5
REMARK                            x       y       z     vdW  Elec       q    Type
REMARK                         _______ _______ _______ _____ _____    ______ ____
ROOT
ATOM      1  N   UNL     1      12.992 -21.965   3.084  0.00  0.00    -0.354 N 
ATOM      2  N   UNL     1      11.148 -21.564   4.426  0.00  0.00    -0.372 N 
ATOM      3  N   UNL     1      13.112 -22.225   5.410  0.00  0.00    -0.372 N 
ATOM      4  C   UNL     1      12.431 -21.922   4.300  0.00  0.00    +0.166 C 
ATOM      5  H   UNL     1      12.414 -21.753   2.279  0.00  0.00    +0.163 HD
ATOM      6  H   UNL     1      10.698 -21.519   5.330  0.00  0.00    +0.159 HD
ATOM      7  H   UNL     1      10.585 -21.308   3.624  0.00  0.00    +0.159 HD
ATOM      8  H   UNL     1      14.083 -22.509   5.382  0.00  0.00    +0.159 HD
ATOM      9  H   UNL     1      12.677 -22.197   6.323  0.00  0.00    +0.159 HD
ENDROOT
BRANCH   1  10
ATOM     10  C   UNL     1      14.397 -22.290   2.843  0.00  0.00    +0.151 C 
BRANCH  10  11
ATOM     11  C   UNL     1      15.152 -21.023   2.552  0.00  0.00    -0.028 A 
ATOM     12  C   UNL     1      16.521 -20.927   2.840  0.00  0.00    +0.005 A 
ATOM     13  C   UNL     1      14.504 -19.915   1.983  0.00  0.00    +0.005 A 
ATOM     14  C   UNL     1      17.229 -19.760   2.542  0.00  0.00    +0.000 A 
ATOM     15  C   UNL     1      15.215 -18.752   1.688  0.00  0.00    +0.000 A 
ATOM     16  C   UNL     1      16.577 -18.675   1.965  0.00  0.00    +0.000 A 
ENDBRANCH  10  11
ENDBRANCH   1  10
TORSDOF 2
ENDMDL
MODEL 9
REMARK VINA RESULT:    -4.080     25.964     27.179
REMARK INTER + INTRA:          -4.684
REMARK INTER:                  -4.530
REMARK INTRA:                  -0.154
REMARK UNBOUND:                -0.127
REMARK  Name = 1550473
REMARK  2 active torsions:
REMARK  status: ('A' for Active; 'I' for Inactive)
REMARK    1  A    between atoms: N_1  and  C_4
REMARK    2  A    between atoms: C_4  and  C_5
REMARK                            x       y       z     vdW  Elec       q    Type
REMARK                         _______ _______ _______ _____ _____    ______ ____
ROOT
ATOM      1  N   UNL     1      -4.010  -9.653   1.399  0.00  0.00    -0.354 N 
ATOM      2  N   UNL     1      -4.348 -11.350  -0.141  0.00  0.00    -0.372 N 
ATOM      3  N   UNL     1      -2.496 -10.012  -0.354  0.00  0.00    -0.372 N 
ATOM      4  C   UNL     1      -3.613 -10.326   0.310  0.00  0.00    +0.166 C 
ATOM      5  H   UNL     1      -4.882  -9.922   1.839  0.00  0.00    +0.163 HD
ATOM      6  H   UNL     1      -4.073 -11.878  -0.958  0.00  0.00    +0.159 HD
ATOM      7  H   UNL     1      -5.196 -11.645   0.328  0.00  0.00    +0.159 HD
ATOM      8  H   UNL     1      -1.900  -9.247  -0.068  0.00  0.00    +0.159 HD
ATOM      9  H   UNL     1      -2.210 -10.522  -1.180  0.00  0.00    +0.159 HD
ENDROOT
BRANCH   1  10
ATOM     10  C   UNL     1      -3.254  -8.558   2.003  0.00  0.00    +0.151 C 
BRANCH  10  11
ATOM     11  C   UNL     1      -4.055  -7.290   1.896  0.00  0.00    -0.028 A 
ATOM     12  C   UNL     1      -4.354  -6.741   0.640  0.00  0.00    +0.005 A 
ATOM     13  C   UNL     1      -4.523  -6.635   3.045  0.00  0.00    +0.005 A 
ATOM     14  C   UNL     1      -5.124  -5.580   0.538  0.00  0.00    +0.000 A 
ATOM     15  C   UNL     1      -5.291  -5.476   2.940  0.00  0.00    +0.000 A 
ATOM     16  C   UNL     1      -5.593  -4.950   1.686  0.00  0.00    +0.000 A 
ENDBRANCH  10  11
ENDBRANCH   1  10
TORSDOF 2
ENDMDL
