MODEL 1
REMARK VINA RESULT:    -6.108      0.000      0.000
REMARK INTER + INTRA:          -6.928
REMARK INTER:                  -6.822
REMARK INTRA:                  -0.107
REMARK UNBOUND:                -0.107
REMARK  Name = 1550473
REMARK  2 active torsions:
REMARK  status: ('A' for Active; 'I' for Inactive)
REMARK    1  A    between atoms: N_1  and  C_4
REMARK    2  A    between atoms: C_4  and  C_5
REMARK                            x       y       z     vdW  Elec       q    Type
REMARK                         _______ _______ _______ _____ _____    ______ ____
ROOT
ATOM      1  N   UNL     1      -0.604   4.733  -8.336  0.00  0.00    -0.354 N 
ATOM      2  N   UNL     1       0.519   5.878 -10.007  0.00  0.00    -0.372 N 
ATOM      3  N   UNL     1       1.413   5.842  -7.894  0.00  0.00    -0.372 N 
ATOM      4  C   UNL     1       0.437   5.478  -8.732  0.00  0.00    +0.166 C 
ATOM      5  H   UNL     1      -1.326   4.516  -9.013  0.00  0.00    +0.163 HD
ATOM      6  H   UNL     1       1.295   6.438 -10.336  0.00  0.00    +0.159 HD
ATOM      7  H   UNL     1      -0.181   5.621 -10.692  0.00  0.00    +0.159 HD
ATOM      8  H   UNL     1       1.407   5.577  -6.918  0.00  0.00    +0.159 HD
ATOM      9  H   UNL     1       2.191   6.411  -8.202  0.00  0.00    +0.159 HD
ENDROOT
BRANCH   1  10
ATOM     10  C   UNL     1      -0.760   4.201  -6.984  0.00  0.00    +0.151 C 
BRANCH  10  11
ATOM     11  C   UNL     1      -1.784   3.100  -7.005  0.00  0.00    -0.028 A 
ATOM     12  C   UNL     1      -1.548   1.894  -6.328  0.00  0.00    +0.005 A 
ATOM     13  C   UNL     1      -2.996   3.258  -7.696  0.00  0.00    +0.005 A 
ATOM     14  C   UNL     1      -2.512   0.883  -6.322  0.00  0.00    +0.000 A 
ATOM     15  C   UNL     1      -3.955   2.245  -7.688  0.00  0.00    +0.000 A 
ATOM     16  C   UNL     1      -3.713   1.059  -6.999  0.00  0.00    +0.000 A 
ENDBRANCH  10  11
ENDBRANCH   1  10
TORSDOF 2
ENDMDL
MODEL 2
REMARK VINA RESULT:    -5.830      2.749      4.998
REMARK INTER + INTRA:          -6.618
REMARK INTER:                  -6.459
REMARK INTRA:                  -0.160
REMARK UNBOUND:                -0.107
REMARK  Name = 1550473
REMARK  2 active torsions:
REMARK  status: ('A' for Active; 'I' for Inactive)
REMARK    1  A    between atoms: N_1  and  C_4
REMARK    2  A    between atoms: C_4  and  C_5
REMARK                            x       y       z     vdW  Elec       q    Type
REMARK                         _______ _______ _______ _____ _____    ______ ____
ROOT
ATOM      1  N   UNL     1      -1.467   2.230  -6.137  0.00  0.00    -0.354 N 
ATOM      2  N   UNL     1      -1.559  -0.080  -6.274  0.00  0.00    -0.372 N 
ATOM      3  N   UNL     1      -3.414   1.140  -6.852  0.00  0.00    -0.372 N 
ATOM      4  C   UNL     1      -2.149   1.113  -6.421  0.00  0.00    +0.166 C 
ATOM      5  H   UNL     1      -0.520   2.140  -5.785  0.00  0.00    +0.163 HD
ATOM      6  H   UNL     1      -2.047  -0.940  -6.484  0.00  0.00    +0.159 HD
ATOM      7  H   UNL     1      -0.598  -0.165  -5.966  0.00  0.00    +0.159 HD
ATOM      8  H   UNL     1      -3.918   2.008  -6.978  0.00  0.00    +0.159 HD
ATOM      9  H   UNL     1      -3.923   0.289  -7.056  0.00  0.00    +0.159 HD
ENDROOT
BRANCH   1  10
ATOM     10  C   UNL     1      -1.999   3.580  -6.314  0.00  0.00    +0.151 C 
BRANCH  10  11
ATOM     11  C   UNL     1      -1.285   4.244  -7.459  0.00  0.00    -0.028 A 
ATOM     12  C   UNL     1      -1.983   4.607  -8.620  0.00  0.00    +0.005 A 
ATOM     13  C   UNL     1       0.090   4.517  -7.387  0.00  0.00    +0.005 A 
ATOM     14  C   UNL     1      -1.326   5.250  -9.671  0.00  0.00    +0.000 A 
ATOM     15  C   UNL     1       0.742   5.159  -8.439  0.00  0.00    +0.000 A 
ATOM     16  C   UNL     1       0.034   5.528  -9.580  0.00  0.00    +0.000 A 
ENDBRANCH  10  11
ENDBRANCH   1  10
TORSDOF 2
ENDMDL
MODEL 3
REMARK VINA RESULT:    -5.714      9.122     10.201
REMARK INTER + INTRA:          -6.489
REMARK INTER:                  -6.371
REMARK INTRA:                  -0.118
REMARK UNBOUND:                -0.107
REMARK  Name = 1550473
REMARK  2 active torsions:
REMARK  status: ('A' for Active; 'I' for Inactive)
REMARK    1  A    between atoms: N_1  and  C_4
REMARK    2  A    between atoms: C_4  and  C_5
REMARK                            x       y       z     vdW  Elec       q    Type
REMARK                         _______ _______ _______ _____ _____    ______ ____
ROOT
ATOM      1  N   UNL     1      -7.636   4.597  -0.909  0.00  0.00    -0.354 N 
ATOM      2  N   UNL     1      -9.640   4.011  -1.912  0.00  0.00    -0.372 N 
ATOM      3  N   UNL     1      -7.880   2.542  -2.010  0.00  0.00    -0.372 N 
ATOM      4  C   UNL     1      -8.371   3.718  -1.605  0.00  0.00    +0.166 C 
ATOM      5  H   UNL     1      -8.058   5.484  -0.658  0.00  0.00    +0.163 HD
ATOM      6  H   UNL     1     -10.220   3.367  -2.433  0.00  0.00    +0.159 HD
ATOM      7  H   UNL     1     -10.073   4.879  -1.620  0.00  0.00    +0.159 HD
ATOM      8  H   UNL     1      -6.927   2.264  -1.815  0.00  0.00    +0.159 HD
ATOM      9  H   UNL     1      -8.441   1.889  -2.542  0.00  0.00    +0.159 HD
ENDROOT
BRANCH   1  10
ATOM     10  C   UNL     1      -6.261   4.353  -0.477  0.00  0.00    +0.151 C 
BRANCH  10  11
ATOM     11  C   UNL     1      -5.622   5.663  -0.109  0.00  0.00    -0.028 A 
ATOM     12  C   UNL     1      -5.844   6.808  -0.888  0.00  0.00    +0.005 A 
ATOM     13  C   UNL     1      -4.797   5.768   1.021  0.00  0.00    +0.005 A 
ATOM     14  C   UNL     1      -5.275   8.032  -0.530  0.00  0.00    +0.000 A 
ATOM     15  C   UNL     1      -4.229   6.992   1.375  0.00  0.00    +0.000 A 
ATOM     16  C   UNL     1      -4.471   8.124   0.601  0.00  0.00    +0.000 A 
ENDBRANCH  10  11
ENDBRANCH   1  10
TORSDOF 2
ENDMDL
MODEL 4
REMARK VINA RESULT:    -5.240     24.528     26.191
REMARK INTER + INTRA:          -5.960
REMARK INTER:                  -5.864
REMARK INTRA:                  -0.096
REMARK UNBOUND:                -0.107
REMARK  Name = 1550473
REMARK  2 active torsions:
REMARK  status: ('A' for Active; 'I' for Inactive)
REMARK    1  A    between atoms: N_1  and  C_4
REMARK    2  A    between atoms: C_4  and  C_5
REMARK                            x       y       z     vdW  Elec       q    Type
REMARK                         _______ _______ _______ _____ _____    ______ ____
ROOT
ATOM      1  N   UNL     1       2.127 -17.959   7.430  0.00  0.00    -0.354 N 
ATOM      2  N   UNL     1       0.272 -19.324   7.667  0.00  0.00    -0.372 N 
ATOM      3  N   UNL     1       1.970 -19.485   9.202  0.00  0.00    -0.372 N 
ATOM      4  C   UNL     1       1.470 -18.915   8.100  0.00  0.00    +0.166 C 
ATOM      5  H   UNL     1       1.708 -17.588   6.585  0.00  0.00    +0.163 HD
ATOM      6  H   UNL     1      -0.249 -20.041   8.154  0.00  0.00    +0.159 HD
ATOM      7  H   UNL     1      -0.166 -18.920   6.848  0.00  0.00    +0.159 HD
ATOM      8  H   UNL     1       2.872 -19.224   9.577  0.00  0.00    +0.159 HD
ATOM      9  H   UNL     1       1.469 -20.212   9.696  0.00  0.00    +0.159 HD
ENDROOT
BRANCH   1  10
ATOM     10  C   UNL     1       3.413 -17.404   7.848  0.00  0.00    +0.151 C 
BRANCH  10  11
ATOM     11  C   UNL     1       4.096 -16.792   6.656  0.00  0.00    -0.028 A 
ATOM     12  C   UNL     1       5.000 -17.543   5.891  0.00  0.00    +0.005 A 
ATOM     13  C   UNL     1       3.837 -15.465   6.283  0.00  0.00    +0.005 A 
ATOM     14  C   UNL     1       5.612 -16.984   4.765  0.00  0.00    +0.000 A 
ATOM     15  C   UNL     1       4.450 -14.910   5.159  0.00  0.00    +0.000 A 
ATOM     16  C   UNL     1       5.335 -15.671   4.399  0.00  0.00    +0.000 A 
ENDBRANCH  10  11
ENDBRANCH   1  10
TORSDOF 2
ENDMDL
MODEL 5
REMARK VINA RESULT:    -5.182      8.457      9.377
REMARK INTER + INTRA:          -5.895
REMARK INTER:                  -5.752
REMARK INTRA:                  -0.143
REMARK UNBOUND:                -0.107
REMARK  Name = 1550473
REMARK  2 active torsions:
REMARK  status: ('A' for Active; 'I' for Inactive)
REMARK    1  A    between atoms: N_1  and  C_4
REMARK    2  A    between atoms: C_4  and  C_5
REMARK                            x       y       z     vdW  Elec       q    Type
REMARK                         _______ _______ _______ _____ _____    ______ ____
ROOT
ATOM      1  N   UNL     1      -6.560   5.626  -2.940  0.00  0.00    -0.354 N 
ATOM      2  N   UNL     1      -7.962   3.970  -3.750  0.00  0.00    -0.372 N 
ATOM      3  N   UNL     1      -8.854   6.016  -3.219  0.00  0.00    -0.372 N 
ATOM      4  C   UNL     1      -7.785   5.217  -3.297  0.00  0.00    +0.166 C 
ATOM      5  H   UNL     1      -5.796   4.962  -2.994  0.00  0.00    +0.163 HD
ATOM      6  H   UNL     1      -8.874   3.634  -4.031  0.00  0.00    +0.159 HD
ATOM      7  H   UNL     1      -7.189   3.323  -3.847  0.00  0.00    +0.159 HD
ATOM      8  H   UNL     1      -8.788   6.967  -2.880  0.00  0.00    +0.159 HD
ATOM      9  H   UNL     1      -9.777   5.695  -3.484  0.00  0.00    +0.159 HD
ENDROOT
BRANCH   1  10
ATOM     10  C   UNL     1      -6.251   6.980  -2.485  0.00  0.00    +0.151 C 
BRANCH  10  11
ATOM     11  C   UNL     1      -5.586   6.906  -1.138  0.00  0.00    -0.028 A 
ATOM     12  C   UNL     1      -5.173   8.075  -0.483  0.00  0.00    +0.005 A 
ATOM     13  C   UNL     1      -5.372   5.670  -0.509  0.00  0.00    +0.005 A 
ATOM     14  C   UNL     1      -4.582   8.009   0.782  0.00  0.00    +0.000 A 
ATOM     15  C   UNL     1      -4.781   5.608   0.753  0.00  0.00    +0.000 A 
ATOM     16  C   UNL     1      -4.389   6.777   1.399  0.00  0.00    +0.000 A 
ENDBRANCH  10  11
ENDBRANCH   1  10
TORSDOF 2
ENDMDL
MODEL 6
REMARK VINA RESULT:    -5.161      8.269      8.956
REMARK INTER + INTRA:          -5.871
REMARK INTER:                  -5.768
REMARK INTRA:                  -0.103
REMARK UNBOUND:                -0.107
REMARK  Name = 1550473
REMARK  2 active torsions:
REMARK  status: ('A' for Active; 'I' for Inactive)
REMARK    1  A    between atoms: N_1  and  C_4
REMARK    2  A    between atoms: C_4  and  C_5
REMARK                            x       y       z     vdW  Elec       q    Type
REMARK                         _______ _______ _______ _____ _____    ______ ____
ROOT
ATOM      1  N   UNL     1      -5.663   5.415   0.595  0.00  0.00    -0.354 N 
ATOM      2  N   UNL     1      -4.476   5.575   2.578  0.00  0.00    -0.372 N 
ATOM      3  N   UNL     1      -4.264   7.247   1.020  0.00  0.00    -0.372 N 
ATOM      4  C   UNL     1      -4.808   6.080   1.383  0.00  0.00    +0.166 C 
ATOM      5  H   UNL     1      -6.016   4.521   0.915  0.00  0.00    +0.163 HD
ATOM      6  H   UNL     1      -3.836   6.056   3.195  0.00  0.00    +0.159 HD
ATOM      7  H   UNL     1      -4.866   4.704   2.915  0.00  0.00    +0.159 HD
ATOM      8  H   UNL     1      -4.469   7.679   0.129  0.00  0.00    +0.159 HD
ATOM      9  H   UNL     1      -3.613   7.738   1.620  0.00  0.00    +0.159 HD
ENDROOT
BRANCH   1  10
ATOM     10  C   UNL     1      -6.130   5.905  -0.700  0.00  0.00    +0.151 C 
BRANCH  10  11
ATOM     11  C   UNL     1      -6.626   4.742  -1.515  0.00  0.00    -0.028 A 
ATOM     12  C   UNL     1      -6.128   4.513  -2.806  0.00  0.00    +0.005 A 
ATOM     13  C   UNL     1      -7.590   3.862  -0.999  0.00  0.00    +0.005 A 
ATOM     14  C   UNL     1      -6.566   3.416  -3.552  0.00  0.00    +0.000 A 
ATOM     15  C   UNL     1      -8.025   2.768  -1.747  0.00  0.00    +0.000 A 
ATOM     16  C   UNL     1      -7.511   2.544  -3.022  0.00  0.00    +0.000 A 
ENDBRANCH  10  11
ENDBRANCH   1  10
TORSDOF 2
ENDMDL
MODEL 7
REMARK VINA RESULT:    -5.075     22.905     24.172
REMARK INTER + INTRA:          -5.774
REMARK INTER:                  -5.632
REMARK INTRA:                  -0.143
REMARK UNBOUND:                -0.107
REMARK  Name = 1550473
REMARK  2 active torsions:
REMARK  status: ('A' for Active; 'I' for Inactive)
REMARK    1  A    between atoms: N_1  and  C_4
REMARK    2  A    between atoms: C_4  and  C_5
REMARK                            x       y       z     vdW  Elec       q    Type
REMARK                         _______ _______ _______ _____ _____    ______ ____
ROOT
ATOM      1  N   UNL     1      -3.240 -19.068   2.012  0.00  0.00    -0.354 N 
ATOM      2  N   UNL     1      -3.461 -19.601   4.255  0.00  0.00    -0.372 N 
ATOM      3  N   UNL     1      -3.395 -17.391   3.642  0.00  0.00    -0.372 N 
ATOM      4  C   UNL     1      -3.364 -18.680   3.288  0.00  0.00    +0.166 C 
ATOM      5  H   UNL     1      -3.192 -20.060   1.812  0.00  0.00    +0.163 HD
ATOM      6  H   UNL     1      -3.559 -19.340   5.226  0.00  0.00    +0.159 HD
ATOM      7  H   UNL     1      -3.460 -20.593   4.048  0.00  0.00    +0.159 HD
ATOM      8  H   UNL     1      -3.320 -16.647   2.961  0.00  0.00    +0.159 HD
ATOM      9  H   UNL     1      -3.480 -17.109   4.610  0.00  0.00    +0.159 HD
ENDROOT
BRANCH   1  10
ATOM     10  C   UNL     1      -3.180 -18.145   0.880  0.00  0.00    +0.151 C 
BRANCH  10  11
ATOM     11  C   UNL     1      -1.940 -18.429   0.079  0.00  0.00    -0.028 A 
ATOM     12  C   UNL     1      -1.043 -19.428   0.486  0.00  0.00    +0.005 A 
ATOM     13  C   UNL     1      -1.658 -17.708  -1.092  0.00  0.00    +0.005 A 
ATOM     14  C   UNL     1       0.095 -19.713  -0.274  0.00  0.00    +0.000 A 
ATOM     15  C   UNL     1      -0.521 -17.995  -1.847  0.00  0.00    +0.000 A 
ATOM     16  C   UNL     1       0.353 -18.999  -1.439  0.00  0.00    +0.000 A 
ENDBRANCH  10  11
ENDBRANCH   1  10
TORSDOF 2
ENDMDL
MODEL 8
REMARK VINA RESULT:    -5.062     23.738     25.288
REMARK INTER + INTRA:          -5.761
REMARK INTER:                  -5.647
REMARK INTRA:                  -0.114
REMARK UNBOUND:                -0.107
REMARK  Name = 1550473
REMARK  2 active torsions:
REMARK  status: ('A' for Active; 'I' for Inactive)
REMARK    1  A    between atoms: N_1  and  C_4
REMARK    2  A    between atoms: C_4  and  C_5
REMARK                            x       y       z     vdW  Elec       q    Type
REMARK                         _______ _______ _______ _____ _____    ______ ____
ROOT
ATOM      1  N   UNL     1       4.501 -16.144   8.121  0.00  0.00    -0.354 N 
ATOM      2  N   UNL     1       2.739 -17.627   8.365  0.00  0.00    -0.372 N 
ATOM      3  N   UNL     1       4.809 -18.446   7.809  0.00  0.00    -0.372 N 
ATOM      4  C   UNL     1       4.030 -17.398   8.096  0.00  0.00    +0.166 C 
ATOM      5  H   UNL     1       3.852 -15.390   8.315  0.00  0.00    +0.163 HD
ATOM      6  H   UNL     1       2.356 -18.563   8.357  0.00  0.00    +0.159 HD
ATOM      7  H   UNL     1       2.103 -16.876   8.604  0.00  0.00    +0.159 HD
ATOM      8  H   UNL     1       5.791 -18.340   7.591  0.00  0.00    +0.159 HD
ATOM      9  H   UNL     1       4.442 -19.389   7.785  0.00  0.00    +0.159 HD
ENDROOT
BRANCH   1  10
ATOM     10  C   UNL     1       5.902 -15.792   7.895  0.00  0.00    +0.151 C 
BRANCH  10  11
ATOM     11  C   UNL     1       6.043 -15.191   6.524  0.00  0.00    -0.028 A 
ATOM     12  C   UNL     1       7.313 -14.945   5.982  0.00  0.00    +0.005 A 
ATOM     13  C   UNL     1       4.910 -14.872   5.759  0.00  0.00    +0.005 A 
ATOM     14  C   UNL     1       7.444 -14.414   4.696  0.00  0.00    +0.000 A 
ATOM     15  C   UNL     1       5.046 -14.342   4.476  0.00  0.00    +0.000 A 
ATOM     16  C   UNL     1       6.313 -14.116   3.944  0.00  0.00    +0.000 A 
ENDBRANCH  10  11
ENDBRANCH   1  10
TORSDOF 2
ENDMDL
MODEL 9
REMARK VINA RESULT:    -4.940      7.815      8.458
REMARK INTER + INTRA:          -5.624
REMARK INTER:                  -5.500
REMARK INTRA:                  -0.124
REMARK UNBOUND:                -0.107
REMARK  Name = 1550473
REMARK  2 active torsions:
REMARK  status: ('A' for Active; 'I' for Inactive)
REMARK    1  A    between atoms: N_1  and  C_4
REMARK    2  A    between atoms: C_4  and  C_5
REMARK                            x       y       z     vdW  Elec       q    Type
REMARK                         _______ _______ _______ _____ _____    ______ ____
ROOT
ATOM      1  N   UNL     1      -5.663   5.713   0.309  0.00  0.00    -0.354 N 
ATOM      2  N   UNL     1      -4.504   5.529   2.306  0.00  0.00    -0.372 N 
ATOM      3  N   UNL     1      -4.260   7.437   1.053  0.00  0.00    -0.372 N 
ATOM      4  C   UNL     1      -4.815   6.230   1.208  0.00  0.00    +0.166 C 
ATOM      5  H   UNL     1      -6.026   4.781   0.470  0.00  0.00    +0.163 HD
ATOM      6  H   UNL     1      -3.870   5.895   3.004  0.00  0.00    +0.159 HD
ATOM      7  H   UNL     1      -4.904   4.617   2.487  0.00  0.00    +0.159 HD
ATOM      8  H   UNL     1      -4.450   8.013   0.244  0.00  0.00    +0.159 HD
ATOM      9  H   UNL     1      -3.614   7.815   1.735  0.00  0.00    +0.159 HD
ENDROOT
BRANCH   1  10
ATOM     10  C   UNL     1      -6.109   6.416  -0.893  0.00  0.00    +0.151 C 
BRANCH  10  11
ATOM     11  C   UNL     1      -5.900   5.528  -2.088  0.00  0.00    -0.028 A 
ATOM     12  C   UNL     1      -6.470   4.247  -2.131  0.00  0.00    +0.005 A 
ATOM     13  C   UNL     1      -5.139   5.963  -3.183  0.00  0.00    +0.005 A 
ATOM     14  C   UNL     1      -6.302   3.433  -3.254  0.00  0.00    +0.000 A 
ATOM     15  C   UNL     1      -4.972   5.147  -4.302  0.00  0.00    +0.000 A 
ATOM     16  C   UNL     1      -5.556   3.883  -4.338  0.00  0.00    +0.000 A 
ENDBRANCH  10  11
ENDBRANCH   1  10
TORSDOF 2
ENDMDL
