MODEL 1
REMARK VINA RESULT:    -5.980      0.000      0.000
REMARK INTER + INTRA:          -6.803
REMARK INTER:                  -6.679
REMARK INTRA:                  -0.124
REMARK UNBOUND:                -0.124
REMARK  Name = 1550473
REMARK  2 active torsions:
REMARK  status: ('A' for Active; 'I' for Inactive)
REMARK    1  A    between atoms: N_1  and  C_4
REMARK    2  A    between atoms: C_4  and  C_5
REMARK                            x       y       z     vdW  Elec       q    Type
REMARK                         _______ _______ _______ _____ _____    ______ ____
ROOT
ATOM      1  N   UNL     1      -4.152  -6.487   4.242  0.00  0.00    -0.354 N 
ATOM      2  N   UNL     1      -2.877  -5.798   6.049  0.00  0.00    -0.372 N 
ATOM      3  N   UNL     1      -3.001  -8.039   5.569  0.00  0.00    -0.372 N 
ATOM      4  C   UNL     1      -3.351  -6.782   5.275  0.00  0.00    +0.166 C 
ATOM      5  H   UNL     1      -4.404  -5.517   4.090  0.00  0.00    +0.163 HD
ATOM      6  H   UNL     1      -2.268  -5.990   6.833  0.00  0.00    +0.159 HD
ATOM      7  H   UNL     1      -3.094  -4.826   5.867  0.00  0.00    +0.159 HD
ATOM      8  H   UNL     1      -3.330  -8.827   5.028  0.00  0.00    +0.159 HD
ATOM      9  H   UNL     1      -2.402  -8.251   6.357  0.00  0.00    +0.159 HD
ENDROOT
BRANCH   1  10
ATOM     10  C   UNL     1      -4.678  -7.479   3.307  0.00  0.00    +0.151 C 
BRANCH  10  11
ATOM     11  C   UNL     1      -4.671  -6.899   1.919  0.00  0.00    -0.028 A 
ATOM     12  C   UNL     1      -4.501  -7.729   0.801  0.00  0.00    +0.005 A 
ATOM     13  C   UNL     1      -4.839  -5.521   1.716  0.00  0.00    +0.005 A 
ATOM     14  C   UNL     1      -4.524  -7.194  -0.489  0.00  0.00    +0.000 A 
ATOM     15  C   UNL     1      -4.861  -4.991   0.426  0.00  0.00    +0.000 A 
ATOM     16  C   UNL     1      -4.705  -5.828  -0.676  0.00  0.00    +0.000 A 
ENDBRANCH  10  11
ENDBRANCH   1  10
TORSDOF 2
ENDMDL
MODEL 2
REMARK VINA RESULT:    -5.685      0.952      1.704
REMARK INTER + INTRA:          -6.474
REMARK INTER:                  -6.333
REMARK INTRA:                  -0.141
REMARK UNBOUND:                -0.124
REMARK  Name = 1550473
REMARK  2 active torsions:
REMARK  status: ('A' for Active; 'I' for Inactive)
REMARK    1  A    between atoms: N_1  and  C_4
REMARK    2  A    between atoms: C_4  and  C_5
REMARK                            x       y       z     vdW  Elec       q    Type
REMARK                         _______ _______ _______ _____ _____    ______ ____
ROOT
ATOM      1  N   UNL     1      -2.652  -6.716   3.950  0.00  0.00    -0.354 N 
ATOM      2  N   UNL     1      -2.525  -6.147   6.191  0.00  0.00    -0.372 N 
ATOM      3  N   UNL     1      -3.079  -8.300   5.623  0.00  0.00    -0.372 N 
ATOM      4  C   UNL     1      -2.754  -7.061   5.240  0.00  0.00    +0.166 C 
ATOM      5  H   UNL     1      -2.431  -5.753   3.725  0.00  0.00    +0.163 HD
ATOM      6  H   UNL     1      -2.590  -6.378   7.173  0.00  0.00    +0.159 HD
ATOM      7  H   UNL     1      -2.259  -5.196   5.964  0.00  0.00    +0.159 HD
ATOM      8  H   UNL     1      -3.270  -9.034   4.955  0.00  0.00    +0.159 HD
ATOM      9  H   UNL     1      -3.161  -8.548   6.602  0.00  0.00    +0.159 HD
ENDROOT
BRANCH   1  10
ATOM     10  C   UNL     1      -2.828  -7.649   2.838  0.00  0.00    +0.151 C 
BRANCH  10  11
ATOM     11  C   UNL     1      -3.678  -6.999   1.782  0.00  0.00    -0.028 A 
ATOM     12  C   UNL     1      -4.363  -5.805   2.054  0.00  0.00    +0.005 A 
ATOM     13  C   UNL     1      -3.799  -7.568   0.505  0.00  0.00    +0.005 A 
ATOM     14  C   UNL     1      -5.129  -5.185   1.063  0.00  0.00    +0.000 A 
ATOM     15  C   UNL     1      -4.566  -6.947  -0.481  0.00  0.00    +0.000 A 
ATOM     16  C   UNL     1      -5.228  -5.754  -0.202  0.00  0.00    +0.000 A 
ENDBRANCH  10  11
ENDBRANCH   1  10
TORSDOF 2
ENDMDL
MODEL 3
REMARK VINA RESULT:    -5.486      8.667      9.301
REMARK INTER + INTRA:          -6.252
REMARK INTER:                  -6.128
REMARK INTRA:                  -0.124
REMARK UNBOUND:                -0.124
REMARK  Name = 1550473
REMARK  2 active torsions:
REMARK  status: ('A' for Active; 'I' for Inactive)
REMARK    1  A    between atoms: N_1  and  C_4
REMARK    2  A    between atoms: C_4  and  C_5
REMARK                            x       y       z     vdW  Elec       q    Type
REMARK                         _______ _______ _______ _____ _____    ______ ____
ROOT
ATOM      1  N   UNL     1       4.628  -9.458  -1.923  0.00  0.00    -0.354 N 
ATOM      2  N   UNL     1       6.939  -9.588  -2.013  0.00  0.00    -0.372 N 
ATOM      3  N   UNL     1       5.761 -11.358  -1.149  0.00  0.00    -0.372 N 
ATOM      4  C   UNL     1       5.761 -10.136  -1.693  0.00  0.00    +0.166 C 
ATOM      5  H   UNL     1       4.697  -8.524  -2.310  0.00  0.00    +0.163 HD
ATOM      6  H   UNL     1       7.810 -10.078  -1.854  0.00  0.00    +0.159 HD
ATOM      7  H   UNL     1       7.002  -8.673  -2.442  0.00  0.00    +0.159 HD
ATOM      8  H   UNL     1       4.905 -11.824  -0.879  0.00  0.00    +0.159 HD
ATOM      9  H   UNL     1       6.623 -11.859  -0.971  0.00  0.00    +0.159 HD
ENDROOT
BRANCH   1  10
ATOM     10  C   UNL     1       3.291  -9.986  -1.661  0.00  0.00    +0.151 C 
BRANCH  10  11
ATOM     11  C   UNL     1       2.291  -8.868  -1.770  0.00  0.00    -0.028 A 
ATOM     12  C   UNL     1       0.915  -9.137  -1.730  0.00  0.00    +0.005 A 
ATOM     13  C   UNL     1       2.713  -7.537  -1.908  0.00  0.00    +0.005 A 
ATOM     14  C   UNL     1      -0.014  -8.096  -1.801  0.00  0.00    +0.000 A 
ATOM     15  C   UNL     1       1.782  -6.501  -1.980  0.00  0.00    +0.000 A 
ATOM     16  C   UNL     1       0.419  -6.781  -1.924  0.00  0.00    +0.000 A 
ENDBRANCH  10  11
ENDBRANCH   1  10
TORSDOF 2
ENDMDL
MODEL 4
REMARK VINA RESULT:    -5.374      3.383      4.993
REMARK INTER + INTRA:          -6.127
REMARK INTER:                  -5.951
REMARK INTRA:                  -0.176
REMARK UNBOUND:                -0.124
REMARK  Name = 1550473
REMARK  2 active torsions:
REMARK  status: ('A' for Active; 'I' for Inactive)
REMARK    1  A    between atoms: N_1  and  C_4
REMARK    2  A    between atoms: C_4  and  C_5
REMARK                            x       y       z     vdW  Elec       q    Type
REMARK                         _______ _______ _______ _____ _____    ______ ____
ROOT
ATOM      1  N   UNL     1      -4.475  -6.970  -0.394  0.00  0.00    -0.354 N 
ATOM      2  N   UNL     1      -3.719  -5.692  -2.171  0.00  0.00    -0.372 N 
ATOM      3  N   UNL     1      -2.593  -7.617  -1.631  0.00  0.00    -0.372 N 
ATOM      4  C   UNL     1      -3.599  -6.770  -1.387  0.00  0.00    +0.166 C 
ATOM      5  H   UNL     1      -5.197  -6.274  -0.242  0.00  0.00    +0.163 HD
ATOM      6  H   UNL     1      -3.074  -5.516  -2.930  0.00  0.00    +0.159 HD
ATOM      7  H   UNL     1      -4.468  -5.023  -2.046  0.00  0.00    +0.159 HD
ATOM      8  H   UNL     1      -2.444  -8.446  -1.071  0.00  0.00    +0.159 HD
ATOM      9  H   UNL     1      -1.931  -7.452  -2.378  0.00  0.00    +0.159 HD
ENDROOT
BRANCH   1  10
ATOM     10  C   UNL     1      -4.465  -8.139   0.483  0.00  0.00    +0.151 C 
BRANCH  10  11
ATOM     11  C   UNL     1      -3.877  -7.752   1.812  0.00  0.00    -0.028 A 
ATOM     12  C   UNL     1      -2.497  -7.862   2.039  0.00  0.00    +0.005 A 
ATOM     13  C   UNL     1      -4.693  -7.268   2.846  0.00  0.00    +0.005 A 
ATOM     14  C   UNL     1      -1.947  -7.473   3.263  0.00  0.00    +0.000 A 
ATOM     15  C   UNL     1      -4.140  -6.882   4.067  0.00  0.00    +0.000 A 
ATOM     16  C   UNL     1      -2.766  -6.983   4.274  0.00  0.00    +0.000 A 
ENDBRANCH  10  11
ENDBRANCH   1  10
TORSDOF 2
ENDMDL
MODEL 5
REMARK VINA RESULT:    -5.355      9.338     10.220
REMARK INTER + INTRA:          -6.105
REMARK INTER:                  -5.985
REMARK INTRA:                  -0.120
REMARK UNBOUND:                -0.124
REMARK  Name = 1550473
REMARK  2 active torsions:
REMARK  status: ('A' for Active; 'I' for Inactive)
REMARK    1  A    between atoms: N_1  and  C_4
REMARK    2  A    between atoms: C_4  and  C_5
REMARK                            x       y       z     vdW  Elec       q    Type
REMARK                         _______ _______ _______ _____ _____    ______ ____
ROOT
ATOM      1  N   UNL     1       2.023  -8.114  -3.091  0.00  0.00    -0.354 N 
ATOM      2  N   UNL     1       1.100  -6.787  -4.751  0.00  0.00    -0.372 N 
ATOM      3  N   UNL     1       0.905  -6.123  -2.563  0.00  0.00    -0.372 N 
ATOM      4  C   UNL     1       1.348  -7.015  -3.455  0.00  0.00    +0.166 C 
ATOM      5  H   UNL     1       2.305  -8.767  -3.813  0.00  0.00    +0.163 HD
ATOM      6  H   UNL     1       0.596  -5.965  -5.056  0.00  0.00    +0.159 HD
ATOM      7  H   UNL     1       1.423  -7.418  -5.474  0.00  0.00    +0.159 HD
ATOM      8  H   UNL     1       1.054  -6.239  -1.570  0.00  0.00    +0.159 HD
ATOM      9  H   UNL     1       0.389  -5.300  -2.848  0.00  0.00    +0.159 HD
ENDROOT
BRANCH   1  10
ATOM     10  C   UNL     1       2.391  -8.427  -1.712  0.00  0.00    +0.151 C 
BRANCH  10  11
ATOM     11  C   UNL     1       3.859  -8.161  -1.522  0.00  0.00    -0.028 A 
ATOM     12  C   UNL     1       4.354  -6.849  -1.553  0.00  0.00    +0.005 A 
ATOM     13  C   UNL     1       4.759  -9.216  -1.306  0.00  0.00    +0.005 A 
ATOM     14  C   UNL     1       5.713  -6.599  -1.348  0.00  0.00    +0.000 A 
ATOM     15  C   UNL     1       6.115  -8.962  -1.102  0.00  0.00    +0.000 A 
ATOM     16  C   UNL     1       6.591  -7.653  -1.120  0.00  0.00    +0.000 A 
ENDBRANCH  10  11
ENDBRANCH   1  10
TORSDOF 2
ENDMDL
MODEL 6
REMARK VINA RESULT:    -5.338      3.702      4.830
REMARK INTER + INTRA:          -6.087
REMARK INTER:                  -5.913
REMARK INTRA:                  -0.173
REMARK UNBOUND:                -0.124
REMARK  Name = 1550473
REMARK  2 active torsions:
REMARK  status: ('A' for Active; 'I' for Inactive)
REMARK    1  A    between atoms: N_1  and  C_4
REMARK    2  A    between atoms: C_4  and  C_5
REMARK                            x       y       z     vdW  Elec       q    Type
REMARK                         _______ _______ _______ _____ _____    ______ ____
ROOT
ATOM      1  N   UNL     1      -2.447  -7.499  -1.899  0.00  0.00    -0.354 N 
ATOM      2  N   UNL     1      -0.160  -7.222  -2.138  0.00  0.00    -0.372 N 
ATOM      3  N   UNL     1      -0.943  -8.569  -0.454  0.00  0.00    -0.372 N 
ATOM      4  C   UNL     1      -1.198  -7.767  -1.493  0.00  0.00    +0.166 C 
ATOM      5  H   UNL     1      -2.574  -6.859  -2.674  0.00  0.00    +0.163 HD
ATOM      6  H   UNL     1       0.793  -7.408  -1.858  0.00  0.00    +0.159 HD
ATOM      7  H   UNL     1      -0.289  -6.619  -2.942  0.00  0.00    +0.159 HD
ATOM      8  H   UNL     1      -1.683  -9.006   0.079  0.00  0.00    +0.159 HD
ATOM      9  H   UNL     1       0.004  -8.758  -0.150  0.00  0.00    +0.159 HD
ENDROOT
BRANCH   1  10
ATOM     10  C   UNL     1      -3.644  -8.084  -1.298  0.00  0.00    +0.151 C 
BRANCH  10  11
ATOM     11  C   UNL     1      -4.190  -7.136  -0.266  0.00  0.00    -0.028 A 
ATOM     12  C   UNL     1      -4.272  -7.519   1.080  0.00  0.00    +0.005 A 
ATOM     13  C   UNL     1      -4.621  -5.850  -0.628  0.00  0.00    +0.005 A 
ATOM     14  C   UNL     1      -4.750  -6.628   2.044  0.00  0.00    +0.000 A 
ATOM     15  C   UNL     1      -5.099  -4.964   0.337  0.00  0.00    +0.000 A 
ATOM     16  C   UNL     1      -5.161  -5.352   1.673  0.00  0.00    +0.000 A 
ENDBRANCH  10  11
ENDBRANCH   1  10
TORSDOF 2
ENDMDL
MODEL 7
REMARK VINA RESULT:    -5.150      8.642      9.372
REMARK INTER + INTRA:          -5.876
REMARK INTER:                  -5.753
REMARK INTRA:                  -0.123
REMARK UNBOUND:                -0.124
REMARK  Name = 1550473
REMARK  2 active torsions:
REMARK  status: ('A' for Active; 'I' for Inactive)
REMARK    1  A    between atoms: N_1  and  C_4
REMARK    2  A    between atoms: C_4  and  C_5
REMARK                            x       y       z     vdW  Elec       q    Type
REMARK                         _______ _______ _______ _____ _____    ______ ____
ROOT
ATOM      1  N   UNL     1       4.792  -8.630  -1.748  0.00  0.00    -0.354 N 
ATOM      2  N   UNL     1       6.782  -9.810  -1.647  0.00  0.00    -0.372 N 
ATOM      3  N   UNL     1       6.830  -7.532  -1.381  0.00  0.00    -0.372 N 
ATOM      4  C   UNL     1       6.123  -8.647  -1.592  0.00  0.00    +0.166 C 
ATOM      5  H   UNL     1       4.318  -9.506  -1.935  0.00  0.00    +0.163 HD
ATOM      6  H   UNL     1       7.786  -9.855  -1.529  0.00  0.00    +0.159 HD
ATOM      7  H   UNL     1       6.301 -10.690  -1.788  0.00  0.00    +0.159 HD
ATOM      8  H   UNL     1       6.392  -6.621  -1.335  0.00  0.00    +0.159 HD
ATOM      9  H   UNL     1       7.836  -7.554  -1.273  0.00  0.00    +0.159 HD
ENDROOT
BRANCH   1  10
ATOM     10  C   UNL     1       3.973  -7.423  -1.653  0.00  0.00    +0.151 C 
BRANCH  10  11
ATOM     11  C   UNL     1       2.521  -7.811  -1.687  0.00  0.00    -0.028 A 
ATOM     12  C   UNL     1       1.523  -6.829  -1.779  0.00  0.00    +0.005 A 
ATOM     13  C   UNL     1       2.135  -9.159  -1.632  0.00  0.00    +0.005 A 
ATOM     14  C   UNL     1       0.175  -7.191  -1.841  0.00  0.00    +0.000 A 
ATOM     15  C   UNL     1       0.788  -9.516  -1.694  0.00  0.00    +0.000 A 
ATOM     16  C   UNL     1      -0.191  -8.532  -1.801  0.00  0.00    +0.000 A 
ENDBRANCH  10  11
ENDBRANCH   1  10
TORSDOF 2
ENDMDL
MODEL 8
REMARK VINA RESULT:    -4.840      2.450      3.391
REMARK INTER + INTRA:          -5.530
REMARK INTER:                  -5.399
REMARK INTRA:                  -0.131
REMARK UNBOUND:                -0.124
REMARK  Name = 1550473
REMARK  2 active torsions:
REMARK  status: ('A' for Active; 'I' for Inactive)
REMARK    1  A    between atoms: N_1  and  C_4
REMARK    2  A    between atoms: C_4  and  C_5
REMARK                            x       y       z     vdW  Elec       q    Type
REMARK                         _______ _______ _______ _____ _____    ______ ____
ROOT
ATOM      1  N   UNL     1      -2.211  -9.810   4.554  0.00  0.00    -0.354 N 
ATOM      2  N   UNL     1      -0.655 -11.523   4.473  0.00  0.00    -0.372 N 
ATOM      3  N   UNL     1      -0.044  -9.513   5.394  0.00  0.00    -0.372 N 
ATOM      4  C   UNL     1      -0.978 -10.269   4.809  0.00  0.00    +0.166 C 
ATOM      5  H   UNL     1      -2.865 -10.423   4.081  0.00  0.00    +0.163 HD
ATOM      6  H   UNL     1       0.266 -11.898   4.656  0.00  0.00    +0.159 HD
ATOM      7  H   UNL     1      -1.324 -12.149   4.042  0.00  0.00    +0.159 HD
ATOM      8  H   UNL     1      -0.223  -8.556   5.667  0.00  0.00    +0.159 HD
ATOM      9  H   UNL     1       0.888  -9.866   5.575  0.00  0.00    +0.159 HD
ENDROOT
BRANCH   1  10
ATOM     10  C   UNL     1      -2.681  -8.477   4.928  0.00  0.00    +0.151 C 
BRANCH  10  11
ATOM     11  C   UNL     1      -3.341  -7.837   3.738  0.00  0.00    -0.028 A 
ATOM     12  C   UNL     1      -4.096  -8.608   2.842  0.00  0.00    +0.005 A 
ATOM     13  C   UNL     1      -3.220  -6.459   3.504  0.00  0.00    +0.005 A 
ATOM     14  C   UNL     1      -4.734  -8.009   1.754  0.00  0.00    +0.000 A 
ATOM     15  C   UNL     1      -3.858  -5.865   2.415  0.00  0.00    +0.000 A 
ATOM     16  C   UNL     1      -4.617  -6.640   1.542  0.00  0.00    +0.000 A 
ENDBRANCH  10  11
ENDBRANCH   1  10
TORSDOF 2
ENDMDL
MODEL 9
REMARK VINA RESULT:    -4.801      1.172      1.977
REMARK INTER + INTRA:          -5.486
REMARK INTER:                  -5.386
REMARK INTRA:                  -0.100
REMARK UNBOUND:                -0.124
REMARK  Name = 1550473
REMARK  2 active torsions:
REMARK  status: ('A' for Active; 'I' for Inactive)
REMARK    1  A    between atoms: N_1  and  C_4
REMARK    2  A    between atoms: C_4  and  C_5
REMARK                            x       y       z     vdW  Elec       q    Type
REMARK                         _______ _______ _______ _____ _____    ______ ____
ROOT
ATOM      1  N   UNL     1      -3.816  -7.501   3.624  0.00  0.00    -0.354 N 
ATOM      2  N   UNL     1      -2.616  -7.547   5.605  0.00  0.00    -0.372 N 
ATOM      3  N   UNL     1      -3.756  -5.637   5.043  0.00  0.00    -0.372 N 
ATOM      4  C   UNL     1      -3.404  -6.892   4.744  0.00  0.00    +0.166 C 
ATOM      5  H   UNL     1      -3.490  -8.443   3.441  0.00  0.00    +0.163 HD
ATOM      6  H   UNL     1      -2.292  -7.115   6.460  0.00  0.00    +0.159 HD
ATOM      7  H   UNL     1      -2.329  -8.505   5.441  0.00  0.00    +0.159 HD
ATOM      8  H   UNL     1      -4.344  -5.086   4.432  0.00  0.00    +0.159 HD
ATOM      9  H   UNL     1      -3.433  -5.183   5.888  0.00  0.00    +0.159 HD
ENDROOT
BRANCH   1  10
ATOM     10  C   UNL     1      -4.720  -6.895   2.648  0.00  0.00    +0.151 C 
BRANCH  10  11
ATOM     11  C   UNL     1      -4.506  -7.546   1.310  0.00  0.00    -0.028 A 
ATOM     12  C   UNL     1      -4.733  -8.920   1.142  0.00  0.00    +0.005 A 
ATOM     13  C   UNL     1      -4.082  -6.793   0.204  0.00  0.00    +0.005 A 
ATOM     14  C   UNL     1      -4.564  -9.519  -0.108  0.00  0.00    +0.000 A 
ATOM     15  C   UNL     1      -3.913  -7.396  -1.043  0.00  0.00    +0.000 A 
ATOM     16  C   UNL     1      -4.156  -8.758  -1.199  0.00  0.00    +0.000 A 
ENDBRANCH  10  11
ENDBRANCH   1  10
TORSDOF 2
ENDMDL
