MODEL 1
REMARK VINA RESULT:    -4.881      0.000      0.000
REMARK INTER + INTRA:          -5.591
REMARK INTER:                  -5.452
REMARK INTRA:                  -0.139
REMARK UNBOUND:                -0.139
REMARK  Name = 1550473
REMARK  2 active torsions:
REMARK  status: ('A' for Active; 'I' for Inactive)
REMARK    1  A    between atoms: N_1  and  C_4
REMARK    2  A    between atoms: C_4  and  C_5
REMARK                            x       y       z     vdW  Elec       q    Type
REMARK                         _______ _______ _______ _____ _____    ______ ____
ROOT
ATOM      1  N   UNL     1      -3.663  12.538   0.476  0.00  0.00    -0.354 N 
ATOM      2  N   UNL     1      -5.526  12.666  -0.894  0.00  0.00    -0.372 N 
ATOM      3  N   UNL     1      -5.820  12.219   1.337  0.00  0.00    -0.372 N 
ATOM      4  C   UNL     1      -4.992  12.473   0.318  0.00  0.00    +0.166 C 
ATOM      5  H   UNL     1      -3.089  12.704  -0.342  0.00  0.00    +0.163 HD
ATOM      6  H   UNL     1      -6.525  12.626  -1.044  0.00  0.00    +0.159 HD
ATOM      7  H   UNL     1      -4.952  12.877  -1.702  0.00  0.00    +0.159 HD
ATOM      8  H   UNL     1      -5.479  12.058   2.276  0.00  0.00    +0.159 HD
ATOM      9  H   UNL     1      -6.822  12.163   1.205  0.00  0.00    +0.159 HD
ENDROOT
BRANCH   1  10
ATOM     10  C   UNL     1      -2.986  12.396   1.764  0.00  0.00    +0.151 C 
BRANCH  10  11
ATOM     11  C   UNL     1      -2.496  13.745   2.213  0.00  0.00    -0.028 A 
ATOM     12  C   UNL     1      -2.137  13.963   3.551  0.00  0.00    +0.005 A 
ATOM     13  C   UNL     1      -2.383  14.808   1.303  0.00  0.00    +0.005 A 
ATOM     14  C   UNL     1      -1.654  15.208   3.962  0.00  0.00    +0.000 A 
ATOM     15  C   UNL     1      -1.901  16.050   1.718  0.00  0.00    +0.000 A 
ATOM     16  C   UNL     1      -1.534  16.248   3.047  0.00  0.00    +0.000 A 
ENDBRANCH  10  11
ENDBRANCH   1  10
TORSDOF 2
ENDMDL
MODEL 2
REMARK VINA RESULT:    -4.744     18.857     21.241
REMARK INTER + INTRA:          -5.438
REMARK INTER:                  -5.262
REMARK INTRA:                  -0.176
REMARK UNBOUND:                -0.139
REMARK  Name = 1550473
REMARK  2 active torsions:
REMARK  status: ('A' for Active; 'I' for Inactive)
REMARK    1  A    between atoms: N_1  and  C_4
REMARK    2  A    between atoms: C_4  and  C_5
REMARK                            x       y       z     vdW  Elec       q    Type
REMARK                         _______ _______ _______ _____ _____    ______ ____
ROOT
ATOM      1  N   UNL     1     -13.331   0.098  -9.056  0.00  0.00    -0.354 N 
ATOM      2  N   UNL     1     -13.762   2.157  -8.088  0.00  0.00    -0.372 N 
ATOM      3  N   UNL     1     -11.602   1.384  -8.135  0.00  0.00    -0.372 N 
ATOM      4  C   UNL     1     -12.893   1.199  -8.432  0.00  0.00    +0.166 C 
ATOM      5  H   UNL     1     -14.326   0.004  -9.225  0.00  0.00    +0.163 HD
ATOM      6  H   UNL     1     -13.460   3.001  -7.619  0.00  0.00    +0.159 HD
ATOM      7  H   UNL     1     -14.749   2.082  -8.300  0.00  0.00    +0.159 HD
ATOM      8  H   UNL     1     -10.896   0.696  -8.363  0.00  0.00    +0.159 HD
ATOM      9  H   UNL     1     -11.282   2.216  -7.656  0.00  0.00    +0.159 HD
ENDROOT
BRANCH   1  10
ATOM     10  C   UNL     1     -12.460  -0.980  -9.521  0.00  0.00    +0.151 C 
BRANCH  10  11
ATOM     11  C   UNL     1     -12.296  -0.870 -11.012  0.00  0.00    -0.028 A 
ATOM     12  C   UNL     1     -11.261  -0.097 -11.559  0.00  0.00    +0.005 A 
ATOM     13  C   UNL     1     -13.168  -1.541 -11.883  0.00  0.00    +0.005 A 
ATOM     14  C   UNL     1     -11.090  -0.019 -12.943  0.00  0.00    +0.000 A 
ATOM     15  C   UNL     1     -12.994  -1.459 -13.264  0.00  0.00    +0.000 A 
ATOM     16  C   UNL     1     -11.954  -0.700 -13.794  0.00  0.00    +0.000 A 
ENDBRANCH  10  11
ENDBRANCH   1  10
TORSDOF 2
ENDMDL
MODEL 3
REMARK VINA RESULT:    -4.738     27.341     28.428
REMARK INTER + INTRA:          -5.430
REMARK INTER:                  -5.321
REMARK INTRA:                  -0.110
REMARK UNBOUND:                -0.139
REMARK  Name = 1550473
REMARK  2 active torsions:
REMARK  status: ('A' for Active; 'I' for Inactive)
REMARK    1  A    between atoms: N_1  and  C_4
REMARK    2  A    between atoms: C_4  and  C_5
REMARK                            x       y       z     vdW  Elec       q    Type
REMARK                         _______ _______ _______ _____ _____    ______ ____
ROOT
ATOM      1  N   UNL     1      -0.398 -12.465   8.451  0.00  0.00    -0.354 N 
ATOM      2  N   UNL     1       1.004 -11.693  10.125  0.00  0.00    -0.372 N 
ATOM      3  N   UNL     1       1.681 -13.473   8.845  0.00  0.00    -0.372 N 
ATOM      4  C   UNL     1       0.754 -12.551   9.129  0.00  0.00    +0.166 C 
ATOM      5  H   UNL     1      -1.072 -11.763   8.735  0.00  0.00    +0.163 HD
ATOM      6  H   UNL     1       1.866 -11.731  10.652  0.00  0.00    +0.159 HD
ATOM      7  H   UNL     1       0.348 -10.963  10.377  0.00  0.00    +0.159 HD
ATOM      8  H   UNL     1       1.551 -14.153   8.108  0.00  0.00    +0.159 HD
ATOM      9  H   UNL     1       2.545 -13.534   9.368  0.00  0.00    +0.159 HD
ENDROOT
BRANCH   1  10
ATOM     10  C   UNL     1      -0.744 -13.316   7.315  0.00  0.00    +0.151 C 
BRANCH  10  11
ATOM     11  C   UNL     1      -2.206 -13.660   7.385  0.00  0.00    -0.028 A 
ATOM     12  C   UNL     1      -3.174 -12.646   7.428  0.00  0.00    +0.005 A 
ATOM     13  C   UNL     1      -2.631 -14.997   7.403  0.00  0.00    +0.005 A 
ATOM     14  C   UNL     1      -4.534 -12.964   7.462  0.00  0.00    +0.000 A 
ATOM     15  C   UNL     1      -3.989 -15.311   7.438  0.00  0.00    +0.000 A 
ATOM     16  C   UNL     1      -4.941 -14.294   7.466  0.00  0.00    +0.000 A 
ENDBRANCH  10  11
ENDBRANCH   1  10
TORSDOF 2
ENDMDL
MODEL 4
REMARK VINA RESULT:    -4.591      2.617      4.061
REMARK INTER + INTRA:          -5.267
REMARK INTER:                  -5.118
REMARK INTRA:                  -0.149
REMARK UNBOUND:                -0.139
REMARK  Name = 1550473
REMARK  2 active torsions:
REMARK  status: ('A' for Active; 'I' for Inactive)
REMARK    1  A    between atoms: N_1  and  C_4
REMARK    2  A    between atoms: C_4  and  C_5
REMARK                            x       y       z     vdW  Elec       q    Type
REMARK                         _______ _______ _______ _____ _____    ______ ____
ROOT
ATOM      1  N   UNL     1      -2.359  13.815   2.120  0.00  0.00    -0.354 N 
ATOM      2  N   UNL     1      -2.942  14.881   0.148  0.00  0.00    -0.372 N 
ATOM      3  N   UNL     1      -2.269  12.688   0.067  0.00  0.00    -0.372 N 
ATOM      4  C   UNL     1      -2.519  13.785   0.790  0.00  0.00    +0.166 C 
ATOM      5  H   UNL     1      -2.537  14.686   2.607  0.00  0.00    +0.163 HD
ATOM      6  H   UNL     1      -3.075  14.887  -0.854  0.00  0.00    +0.159 HD
ATOM      7  H   UNL     1      -3.162  15.736   0.643  0.00  0.00    +0.159 HD
ATOM      8  H   UNL     1      -1.941  11.831   0.491  0.00  0.00    +0.159 HD
ATOM      9  H   UNL     1      -2.385  12.679  -0.939  0.00  0.00    +0.159 HD
ENDROOT
BRANCH   1  10
ATOM     10  C   UNL     1      -1.955  12.661   2.921  0.00  0.00    +0.151 C 
BRANCH  10  11
ATOM     11  C   UNL     1      -3.003  12.396   3.966  0.00  0.00    -0.028 A 
ATOM     12  C   UNL     1      -4.249  11.862   3.606  0.00  0.00    +0.005 A 
ATOM     13  C   UNL     1      -2.755  12.672   5.320  0.00  0.00    +0.005 A 
ATOM     14  C   UNL     1      -5.213  11.588   4.580  0.00  0.00    +0.000 A 
ATOM     15  C   UNL     1      -3.720  12.398   6.289  0.00  0.00    +0.000 A 
ATOM     16  C   UNL     1      -4.947  11.854   5.919  0.00  0.00    +0.000 A 
ENDBRANCH  10  11
ENDBRANCH   1  10
TORSDOF 2
ENDMDL
MODEL 5
REMARK VINA RESULT:    -4.549      3.075      4.206
REMARK INTER + INTRA:          -5.220
REMARK INTER:                  -5.099
REMARK INTRA:                  -0.122
REMARK UNBOUND:                -0.139
REMARK  Name = 1550473
REMARK  2 active torsions:
REMARK  status: ('A' for Active; 'I' for Inactive)
REMARK    1  A    between atoms: N_1  and  C_4
REMARK    2  A    between atoms: C_4  and  C_5
REMARK                            x       y       z     vdW  Elec       q    Type
REMARK                         _______ _______ _______ _____ _____    ______ ____
ROOT
ATOM      1  N   UNL     1      -3.765  12.773   2.000  0.00  0.00    -0.354 N 
ATOM      2  N   UNL     1      -2.319  12.771   0.191  0.00  0.00    -0.372 N 
ATOM      3  N   UNL     1      -4.457  11.989  -0.098  0.00  0.00    -0.372 N 
ATOM      4  C   UNL     1      -3.525  12.510   0.708  0.00  0.00    +0.166 C 
ATOM      5  H   UNL     1      -3.007  13.139   2.565  0.00  0.00    +0.163 HD
ATOM      6  H   UNL     1      -2.110  12.587  -0.781  0.00  0.00    +0.159 HD
ATOM      7  H   UNL     1      -1.578  13.180   0.746  0.00  0.00    +0.159 HD
ATOM      8  H   UNL     1      -5.385  11.764   0.233  0.00  0.00    +0.159 HD
ATOM      9  H   UNL     1      -4.263  11.786  -1.070  0.00  0.00    +0.159 HD
ENDROOT
BRANCH   1  10
ATOM     10  C   UNL     1      -5.060  12.575   2.648  0.00  0.00    +0.151 C 
BRANCH  10  11
ATOM     11  C   UNL     1      -4.837  12.198   4.086  0.00  0.00    -0.028 A 
ATOM     12  C   UNL     1      -5.751  11.370   4.755  0.00  0.00    +0.005 A 
ATOM     13  C   UNL     1      -3.712  12.661   4.785  0.00  0.00    +0.005 A 
ATOM     14  C   UNL     1      -5.528  10.995   6.082  0.00  0.00    +0.000 A 
ATOM     15  C   UNL     1      -3.494  12.285   6.110  0.00  0.00    +0.000 A 
ATOM     16  C   UNL     1      -4.401  11.450   6.758  0.00  0.00    +0.000 A 
ENDBRANCH  10  11
ENDBRANCH   1  10
TORSDOF 2
ENDMDL
MODEL 6
REMARK VINA RESULT:    -4.524      3.268      4.151
REMARK INTER + INTRA:          -5.192
REMARK INTER:                  -5.063
REMARK INTRA:                  -0.129
REMARK UNBOUND:                -0.139
REMARK  Name = 1550473
REMARK  2 active torsions:
REMARK  status: ('A' for Active; 'I' for Inactive)
REMARK    1  A    between atoms: N_1  and  C_4
REMARK    2  A    between atoms: C_4  and  C_5
REMARK                            x       y       z     vdW  Elec       q    Type
REMARK                         _______ _______ _______ _____ _____    ______ ____
ROOT
ATOM      1  N   UNL     1      -2.612  13.106   5.569  0.00  0.00    -0.354 N 
ATOM      2  N   UNL     1      -3.403  12.953   7.741  0.00  0.00    -0.372 N 
ATOM      3  N   UNL     1      -4.185  11.476   6.169  0.00  0.00    -0.372 N 
ATOM      4  C   UNL     1      -3.396  12.511   6.477  0.00  0.00    +0.166 C 
ATOM      5  H   UNL     1      -2.061  13.906   5.859  0.00  0.00    +0.163 HD
ATOM      6  H   UNL     1      -3.981  12.521   8.449  0.00  0.00    +0.159 HD
ATOM      7  H   UNL     1      -2.816  13.722   8.039  0.00  0.00    +0.159 HD
ATOM      8  H   UNL     1      -4.231  11.098   5.232  0.00  0.00    +0.159 HD
ATOM      9  H   UNL     1      -4.780  11.038   6.861  0.00  0.00    +0.159 HD
ENDROOT
BRANCH   1  10
ATOM     10  C   UNL     1      -2.492  12.668   4.180  0.00  0.00    +0.151 C 
BRANCH  10  11
ATOM     11  C   UNL     1      -2.279  13.870   3.302  0.00  0.00    -0.028 A 
ATOM     12  C   UNL     1      -1.843  15.085   3.851  0.00  0.00    +0.005 A 
ATOM     13  C   UNL     1      -2.506  13.800   1.919  0.00  0.00    +0.005 A 
ATOM     14  C   UNL     1      -1.617  16.194   3.032  0.00  0.00    +0.000 A 
ATOM     15  C   UNL     1      -2.280  14.909   1.104  0.00  0.00    +0.000 A 
ATOM     16  C   UNL     1      -1.833  16.105   1.661  0.00  0.00    +0.000 A 
ENDBRANCH  10  11
ENDBRANCH   1  10
TORSDOF 2
ENDMDL
MODEL 7
REMARK VINA RESULT:    -4.472     19.055     21.695
REMARK INTER + INTRA:          -5.133
REMARK INTER:                  -4.988
REMARK INTRA:                  -0.145
REMARK UNBOUND:                -0.139
REMARK  Name = 1550473
REMARK  2 active torsions:
REMARK  status: ('A' for Active; 'I' for Inactive)
REMARK    1  A    between atoms: N_1  and  C_4
REMARK    2  A    between atoms: C_4  and  C_5
REMARK                            x       y       z     vdW  Elec       q    Type
REMARK                         _______ _______ _______ _____ _____    ______ ____
ROOT
ATOM      1  N   UNL     1     -11.896   0.537 -10.140  0.00  0.00    -0.354 N 
ATOM      2  N   UNL     1     -11.547   1.368  -8.007  0.00  0.00    -0.372 N 
ATOM      3  N   UNL     1     -13.506   0.261  -8.459  0.00  0.00    -0.372 N 
ATOM      4  C   UNL     1     -12.321   0.716  -8.883  0.00  0.00    +0.166 C 
ATOM      5  H   UNL     1     -11.002   0.932 -10.407  0.00  0.00    +0.163 HD
ATOM      6  H   UNL     1     -11.840   1.515  -7.050  0.00  0.00    +0.159 HD
ATOM      7  H   UNL     1     -10.634   1.722  -8.264  0.00  0.00    +0.159 HD
ATOM      8  H   UNL     1     -14.139  -0.234  -9.072  0.00  0.00    +0.159 HD
ATOM      9  H   UNL     1     -13.821   0.409  -7.509  0.00  0.00    +0.159 HD
ENDROOT
BRANCH   1  10
ATOM     10  C   UNL     1     -12.639  -0.206 -11.157  0.00  0.00    +0.151 C 
BRANCH  10  11
ATOM     11  C   UNL     1     -11.835  -1.406 -11.574  0.00  0.00    -0.028 A 
ATOM     12  C   UNL     1     -10.453  -1.297 -11.787  0.00  0.00    +0.005 A 
ATOM     13  C   UNL     1     -12.448  -2.655 -11.754  0.00  0.00    +0.005 A 
ATOM     14  C   UNL     1      -9.700  -2.418 -12.146  0.00  0.00    +0.000 A 
ATOM     15  C   UNL     1     -11.692  -3.772 -12.113  0.00  0.00    +0.000 A 
ATOM     16  C   UNL     1     -10.318  -3.653 -12.307  0.00  0.00    +0.000 A 
ENDBRANCH  10  11
ENDBRANCH   1  10
TORSDOF 2
ENDMDL
MODEL 8
REMARK VINA RESULT:    -4.455     17.835     18.602
REMARK INTER + INTRA:          -5.114
REMARK INTER:                  -5.021
REMARK INTRA:                  -0.094
REMARK UNBOUND:                -0.139
REMARK  Name = 1550473
REMARK  2 active torsions:
REMARK  status: ('A' for Active; 'I' for Inactive)
REMARK    1  A    between atoms: N_1  and  C_4
REMARK    2  A    between atoms: C_4  and  C_5
REMARK                            x       y       z     vdW  Elec       q    Type
REMARK                         _______ _______ _______ _____ _____    ______ ____
ROOT
ATOM      1  N   UNL     1       9.358  13.663 -12.346  0.00  0.00    -0.354 N 
ATOM      2  N   UNL     1       9.766  13.688 -14.626  0.00  0.00    -0.372 N 
ATOM      3  N   UNL     1       8.258  12.177 -13.786  0.00  0.00    -0.372 N 
ATOM      4  C   UNL     1       9.123  13.173 -13.571  0.00  0.00    +0.166 C 
ATOM      5  H   UNL     1      10.049  14.398 -12.246  0.00  0.00    +0.163 HD
ATOM      6  H   UNL     1       9.607  13.342 -15.563  0.00  0.00    +0.159 HD
ATOM      7  H   UNL     1      10.421  14.454 -14.529  0.00  0.00    +0.159 HD
ATOM      8  H   UNL     1       7.745  11.741 -13.031  0.00  0.00    +0.159 HD
ATOM      9  H   UNL     1       8.093  11.808 -14.715  0.00  0.00    +0.159 HD
ENDROOT
BRANCH   1  10
ATOM     10  C   UNL     1       8.671  13.209 -11.139  0.00  0.00    +0.151 C 
BRANCH  10  11
ATOM     11  C   UNL     1       9.639  12.439 -10.283  0.00  0.00    -0.028 A 
ATOM     12  C   UNL     1      10.435  11.428 -10.841  0.00  0.00    +0.005 A 
ATOM     13  C   UNL     1       9.768  12.719  -8.914  0.00  0.00    +0.005 A 
ATOM     14  C   UNL     1      11.355  10.733 -10.053  0.00  0.00    +0.000 A 
ATOM     15  C   UNL     1      10.688  12.023  -8.130  0.00  0.00    +0.000 A 
ATOM     16  C   UNL     1      11.483  11.031  -8.700  0.00  0.00    +0.000 A 
ENDBRANCH  10  11
ENDBRANCH   1  10
TORSDOF 2
ENDMDL
MODEL 9
REMARK VINA RESULT:    -4.443      1.560      2.091
REMARK INTER + INTRA:          -5.102
REMARK INTER:                  -4.944
REMARK INTRA:                  -0.158
REMARK UNBOUND:                -0.139
REMARK  Name = 1550473
REMARK  2 active torsions:
REMARK  status: ('A' for Active; 'I' for Inactive)
REMARK    1  A    between atoms: N_1  and  C_4
REMARK    2  A    between atoms: C_4  and  C_5
REMARK                            x       y       z     vdW  Elec       q    Type
REMARK                         _______ _______ _______ _____ _____    ______ ____
ROOT
ATOM      1  N   UNL     1      -3.822  12.339   1.943  0.00  0.00    -0.354 N 
ATOM      2  N   UNL     1      -4.547  12.016  -0.233  0.00  0.00    -0.372 N 
ATOM      3  N   UNL     1      -2.402  12.748   0.124  0.00  0.00    -0.372 N 
ATOM      4  C   UNL     1      -3.583  12.371   0.625  0.00  0.00    +0.166 C 
ATOM      5  H   UNL     1      -4.748  12.073   2.258  0.00  0.00    +0.163 HD
ATOM      6  H   UNL     1      -4.396  12.026  -1.232  0.00  0.00    +0.159 HD
ATOM      7  H   UNL     1      -5.457  11.706   0.087  0.00  0.00    +0.159 HD
ATOM      8  H   UNL     1      -1.635  13.033   0.717  0.00  0.00    +0.159 HD
ATOM      9  H   UNL     1      -2.235  12.776  -0.874  0.00  0.00    +0.159 HD
ENDROOT
BRANCH   1  10
ATOM     10  C   UNL     1      -2.823  12.654   2.963  0.00  0.00    +0.151 C 
BRANCH  10  11
ATOM     11  C   UNL     1      -2.935  14.110   3.326  0.00  0.00    -0.028 A 
ATOM     12  C   UNL     1      -4.188  14.685   3.583  0.00  0.00    +0.005 A 
ATOM     13  C   UNL     1      -1.791  14.917   3.420  0.00  0.00    +0.005 A 
ATOM     14  C   UNL     1      -4.289  16.029   3.950  0.00  0.00    +0.000 A 
ATOM     15  C   UNL     1      -1.896  16.259   3.786  0.00  0.00    +0.000 A 
ATOM     16  C   UNL     1      -3.145  16.814   4.053  0.00  0.00    +0.000 A 
ENDBRANCH  10  11
ENDBRANCH   1  10
TORSDOF 2
ENDMDL
