MODEL 1
REMARK VINA RESULT:    -5.528      0.000      0.000
REMARK INTER + INTRA:          -6.297
REMARK INTER:                  -6.174
REMARK INTRA:                  -0.123
REMARK UNBOUND:                -0.123
REMARK  Name = 1550473
REMARK  2 active torsions:
REMARK  status: ('A' for Active; 'I' for Inactive)
REMARK    1  A    between atoms: N_1  and  C_4
REMARK    2  A    between atoms: C_4  and  C_5
REMARK                            x       y       z     vdW  Elec       q    Type
REMARK                         _______ _______ _______ _____ _____    ______ ____
ROOT
ATOM      1  N   UNL     1     -12.710  -5.914   2.726  0.00  0.00    -0.354 N 
ATOM      2  N   UNL     1     -14.538  -4.493   2.804  0.00  0.00    -0.372 N 
ATOM      3  N   UNL     1     -14.805  -6.680   3.444  0.00  0.00    -0.372 N 
ATOM      4  C   UNL     1     -14.007  -5.707   2.991  0.00  0.00    +0.166 C 
ATOM      5  H   UNL     1     -12.166  -5.143   2.356  0.00  0.00    +0.163 HD
ATOM      6  H   UNL     1     -15.512  -4.306   2.999  0.00  0.00    +0.159 HD
ATOM      7  H   UNL     1     -13.981  -3.713   2.478  0.00  0.00    +0.159 HD
ATOM      8  H   UNL     1     -14.468  -7.620   3.601  0.00  0.00    +0.159 HD
ATOM      9  H   UNL     1     -15.786  -6.516   3.634  0.00  0.00    +0.159 HD
ENDROOT
BRANCH   1  10
ATOM     10  C   UNL     1     -12.023  -7.185   2.947  0.00  0.00    +0.151 C 
BRANCH  10  11
ATOM     11  C   UNL     1     -10.549  -6.993   2.715  0.00  0.00    -0.028 A 
ATOM     12  C   UNL     1      -9.683  -8.095   2.692  0.00  0.00    +0.005 A 
ATOM     13  C   UNL     1     -10.015  -5.712   2.511  0.00  0.00    +0.005 A 
ATOM     14  C   UNL     1      -8.319  -7.921   2.446  0.00  0.00    +0.000 A 
ATOM     15  C   UNL     1      -8.652  -5.541   2.267  0.00  0.00    +0.000 A 
ATOM     16  C   UNL     1      -7.805  -6.646   2.232  0.00  0.00    +0.000 A 
ENDBRANCH  10  11
ENDBRANCH   1  10
TORSDOF 2
ENDMDL
MODEL 2
REMARK VINA RESULT:    -5.523      2.922      4.618
REMARK INTER + INTRA:          -6.292
REMARK INTER:                  -6.119
REMARK INTRA:                  -0.173
REMARK UNBOUND:                -0.123
REMARK  Name = 1550473
REMARK  2 active torsions:
REMARK  status: ('A' for Active; 'I' for Inactive)
REMARK    1  A    between atoms: N_1  and  C_4
REMARK    2  A    between atoms: C_4  and  C_5
REMARK                            x       y       z     vdW  Elec       q    Type
REMARK                         _______ _______ _______ _____ _____    ______ ____
ROOT
ATOM      1  N   UNL     1     -15.520  -3.153   1.552  0.00  0.00    -0.354 N 
ATOM      2  N   UNL     1     -15.735  -2.334  -0.603  0.00  0.00    -0.372 N 
ATOM      3  N   UNL     1     -14.218  -1.352   0.810  0.00  0.00    -0.372 N 
ATOM      4  C   UNL     1     -15.154  -2.283   0.601  0.00  0.00    +0.166 C 
ATOM      5  H   UNL     1     -16.258  -3.815   1.341  0.00  0.00    +0.163 HD
ATOM      6  H   UNL     1     -15.477  -1.693  -1.342  0.00  0.00    +0.159 HD
ATOM      7  H   UNL     1     -16.439  -3.027  -0.826  0.00  0.00    +0.159 HD
ATOM      8  H   UNL     1     -13.745  -1.257   1.699  0.00  0.00    +0.159 HD
ATOM      9  H   UNL     1     -13.954  -0.694   0.087  0.00  0.00    +0.159 HD
ENDROOT
BRANCH   1  10
ATOM     10  C   UNL     1     -14.912  -3.216   2.880  0.00  0.00    +0.151 C 
BRANCH  10  11
ATOM     11  C   UNL     1     -13.878  -4.308   2.895  0.00  0.00    -0.028 A 
ATOM     12  C   UNL     1     -12.528  -4.013   2.655  0.00  0.00    +0.005 A 
ATOM     13  C   UNL     1     -14.241  -5.639   3.154  0.00  0.00    +0.005 A 
ATOM     14  C   UNL     1     -11.562  -5.022   2.699  0.00  0.00    +0.000 A 
ATOM     15  C   UNL     1     -13.274  -6.643   3.196  0.00  0.00    +0.000 A 
ATOM     16  C   UNL     1     -11.935  -6.334   2.970  0.00  0.00    +0.000 A 
ENDBRANCH  10  11
ENDBRANCH   1  10
TORSDOF 2
ENDMDL
MODEL 3
REMARK VINA RESULT:    -5.460     14.569     15.478
REMARK INTER + INTRA:          -6.222
REMARK INTER:                  -6.087
REMARK INTRA:                  -0.135
REMARK UNBOUND:                -0.123
REMARK  Name = 1550473
REMARK  2 active torsions:
REMARK  status: ('A' for Active; 'I' for Inactive)
REMARK    1  A    between atoms: N_1  and  C_4
REMARK    2  A    between atoms: C_4  and  C_5
REMARK                            x       y       z     vdW  Elec       q    Type
REMARK                         _______ _______ _______ _____ _____    ______ ____
ROOT
ATOM      1  N   UNL     1     -16.822  -3.819 -10.494  0.00  0.00    -0.354 N 
ATOM      2  N   UNL     1     -15.136  -2.521  -9.579  0.00  0.00    -0.372 N 
ATOM      3  N   UNL     1     -16.403  -3.834  -8.188  0.00  0.00    -0.372 N 
ATOM      4  C   UNL     1     -16.133  -3.401  -9.424  0.00  0.00    +0.166 C 
ATOM      5  H   UNL     1     -16.588  -3.430 -11.400  0.00  0.00    +0.163 HD
ATOM      6  H   UNL     1     -14.596  -2.189  -8.791  0.00  0.00    +0.159 HD
ATOM      7  H   UNL     1     -14.874  -2.168 -10.492  0.00  0.00    +0.159 HD
ATOM      8  H   UNL     1     -17.146  -4.494  -8.003  0.00  0.00    +0.159 HD
ATOM      9  H   UNL     1     -15.881  -3.505  -7.385  0.00  0.00    +0.159 HD
ENDROOT
BRANCH   1  10
ATOM     10  C   UNL     1     -17.890  -4.816 -10.440  0.00  0.00    +0.151 C 
BRANCH  10  11
ATOM     11  C   UNL     1     -17.616  -5.885 -11.462  0.00  0.00    -0.028 A 
ATOM     12  C   UNL     1     -16.305  -6.145 -11.886  0.00  0.00    +0.005 A 
ATOM     13  C   UNL     1     -18.663  -6.645 -12.006  0.00  0.00    +0.005 A 
ATOM     14  C   UNL     1     -16.047  -7.158 -12.813  0.00  0.00    +0.000 A 
ATOM     15  C   UNL     1     -18.402  -7.654 -12.932  0.00  0.00    +0.000 A 
ATOM     16  C   UNL     1     -17.093  -7.912 -13.333  0.00  0.00    +0.000 A 
ENDBRANCH  10  11
ENDBRANCH   1  10
TORSDOF 2
ENDMDL
MODEL 4
REMARK VINA RESULT:    -5.419      3.283      5.390
REMARK INTER + INTRA:          -6.176
REMARK INTER:                  -6.047
REMARK INTRA:                  -0.129
REMARK UNBOUND:                -0.123
REMARK  Name = 1550473
REMARK  2 active torsions:
REMARK  status: ('A' for Active; 'I' for Inactive)
REMARK    1  A    between atoms: N_1  and  C_4
REMARK    2  A    between atoms: C_4  and  C_5
REMARK                            x       y       z     vdW  Elec       q    Type
REMARK                         _______ _______ _______ _____ _____    ______ ____
ROOT
ATOM      1  N   UNL     1      -9.193  -4.333   1.360  0.00  0.00    -0.354 N 
ATOM      2  N   UNL     1      -7.171  -4.891   0.378  0.00  0.00    -0.372 N 
ATOM      3  N   UNL     1      -7.161  -3.663   2.316  0.00  0.00    -0.372 N 
ATOM      4  C   UNL     1      -7.854  -4.290   1.360  0.00  0.00    +0.166 C 
ATOM      5  H   UNL     1      -9.660  -4.798   0.590  0.00  0.00    +0.163 HD
ATOM      6  H   UNL     1      -6.160  -4.878   0.353  0.00  0.00    +0.159 HD
ATOM      7  H   UNL     1      -7.639  -5.395  -0.366  0.00  0.00    +0.159 HD
ATOM      8  H   UNL     1      -7.617  -3.185   3.082  0.00  0.00    +0.159 HD
ATOM      9  H   UNL     1      -6.149  -3.630   2.302  0.00  0.00    +0.159 HD
ENDROOT
BRANCH   1  10
ATOM     10  C   UNL     1     -10.029  -3.757   2.411  0.00  0.00    +0.151 C 
BRANCH  10  11
ATOM     11  C   UNL     1     -11.216  -4.652   2.641  0.00  0.00    -0.028 A 
ATOM     12  C   UNL     1     -12.502  -4.110   2.776  0.00  0.00    +0.005 A 
ATOM     13  C   UNL     1     -11.061  -6.045   2.718  0.00  0.00    +0.005 A 
ATOM     14  C   UNL     1     -13.608  -4.943   2.959  0.00  0.00    +0.000 A 
ATOM     15  C   UNL     1     -12.168  -6.874   2.902  0.00  0.00    +0.000 A 
ATOM     16  C   UNL     1     -13.441  -6.322   3.020  0.00  0.00    +0.000 A 
ENDBRANCH  10  11
ENDBRANCH   1  10
TORSDOF 2
ENDMDL
MODEL 5
REMARK VINA RESULT:    -5.416      3.298      5.274
REMARK INTER + INTRA:          -6.173
REMARK INTER:                  -6.062
REMARK INTRA:                  -0.111
REMARK UNBOUND:                -0.123
REMARK  Name = 1550473
REMARK  2 active torsions:
REMARK  status: ('A' for Active; 'I' for Inactive)
REMARK    1  A    between atoms: N_1  and  C_4
REMARK    2  A    between atoms: C_4  and  C_5
REMARK                            x       y       z     vdW  Elec       q    Type
REMARK                         _______ _______ _______ _____ _____    ______ ____
ROOT
ATOM      1  N   UNL     1      -9.050  -4.656   1.510  0.00  0.00    -0.354 N 
ATOM      2  N   UNL     1      -7.097  -4.992   0.312  0.00  0.00    -0.372 N 
ATOM      3  N   UNL     1      -7.194  -3.257   1.810  0.00  0.00    -0.372 N 
ATOM      4  C   UNL     1      -7.792  -4.297   1.220  0.00  0.00    +0.166 C 
ATOM      5  H   UNL     1      -9.457  -5.435   1.006  0.00  0.00    +0.163 HD
ATOM      6  H   UNL     1      -6.145  -4.748   0.075  0.00  0.00    +0.159 HD
ATOM      7  H   UNL     1      -7.490  -5.799  -0.157  0.00  0.00    +0.159 HD
ATOM      8  H   UNL     1      -7.666  -2.688   2.499  0.00  0.00    +0.159 HD
ATOM      9  H   UNL     1      -6.245  -2.989   1.577  0.00  0.00    +0.159 HD
ENDROOT
BRANCH   1  10
ATOM     10  C   UNL     1      -9.875  -3.998   2.522  0.00  0.00    +0.151 C 
BRANCH  10  11
ATOM     11  C   UNL     1     -11.164  -4.757   2.674  0.00  0.00    -0.028 A 
ATOM     12  C   UNL     1     -11.164  -6.159   2.720  0.00  0.00    +0.005 A 
ATOM     13  C   UNL     1     -12.389  -4.080   2.778  0.00  0.00    +0.005 A 
ATOM     14  C   UNL     1     -12.358  -6.864   2.891  0.00  0.00    +0.000 A 
ATOM     15  C   UNL     1     -13.579  -4.787   2.948  0.00  0.00    +0.000 A 
ATOM     16  C   UNL     1     -13.563  -6.179   3.007  0.00  0.00    +0.000 A 
ENDBRANCH  10  11
ENDBRANCH   1  10
TORSDOF 2
ENDMDL
MODEL 6
REMARK VINA RESULT:    -5.306      3.425      5.221
REMARK INTER + INTRA:          -6.050
REMARK INTER:                  -5.946
REMARK INTRA:                  -0.104
REMARK UNBOUND:                -0.123
REMARK  Name = 1550473
REMARK  2 active torsions:
REMARK  status: ('A' for Active; 'I' for Inactive)
REMARK    1  A    between atoms: N_1  and  C_4
REMARK    2  A    between atoms: C_4  and  C_5
REMARK                            x       y       z     vdW  Elec       q    Type
REMARK                         _______ _______ _______ _____ _____    ______ ____
ROOT
ATOM      1  N   UNL     1      -9.047  -3.774   0.832  0.00  0.00    -0.354 N 
ATOM      2  N   UNL     1      -8.364  -2.901  -1.202  0.00  0.00    -0.372 N 
ATOM      3  N   UNL     1      -6.775  -3.664   0.267  0.00  0.00    -0.372 N 
ATOM      4  C   UNL     1      -8.064  -3.453  -0.020  0.00  0.00    +0.166 C 
ATOM      5  H   UNL     1     -10.002  -3.561   0.568  0.00  0.00    +0.163 HD
ATOM      6  H   UNL     1      -7.644  -2.651  -1.866  0.00  0.00    +0.159 HD
ATOM      7  H   UNL     1      -9.322  -2.731  -1.483  0.00  0.00    +0.159 HD
ATOM      8  H   UNL     1      -6.482  -4.071   1.145  0.00  0.00    +0.159 HD
ATOM      9  H   UNL     1      -6.039  -3.410  -0.380  0.00  0.00    +0.159 HD
ENDROOT
BRANCH   1  10
ATOM     10  C   UNL     1      -8.831  -4.428   2.121  0.00  0.00    +0.151 C 
BRANCH  10  11
ATOM     11  C   UNL     1     -10.012  -5.306   2.431  0.00  0.00    -0.028 A 
ATOM     12  C   UNL     1     -11.298  -4.758   2.534  0.00  0.00    +0.005 A 
ATOM     13  C   UNL     1      -9.851  -6.687   2.618  0.00  0.00    +0.005 A 
ATOM     14  C   UNL     1     -12.400  -5.577   2.793  0.00  0.00    +0.000 A 
ATOM     15  C   UNL     1     -10.953  -7.502   2.877  0.00  0.00    +0.000 A 
ATOM     16  C   UNL     1     -12.228  -6.947   2.961  0.00  0.00    +0.000 A 
ENDBRANCH  10  11
ENDBRANCH   1  10
TORSDOF 2
ENDMDL
MODEL 7
REMARK VINA RESULT:    -5.256      2.460      3.677
REMARK INTER + INTRA:          -5.993
REMARK INTER:                  -5.837
REMARK INTRA:                  -0.156
REMARK UNBOUND:                -0.123
REMARK  Name = 1550473
REMARK  2 active torsions:
REMARK  status: ('A' for Active; 'I' for Inactive)
REMARK    1  A    between atoms: N_1  and  C_4
REMARK    2  A    between atoms: C_4  and  C_5
REMARK                            x       y       z     vdW  Elec       q    Type
REMARK                         _______ _______ _______ _____ _____    ______ ____
ROOT
ATOM      1  N   UNL     1     -14.005  -2.631   2.484  0.00  0.00    -0.354 N 
ATOM      2  N   UNL     1     -14.543  -1.268   0.691  0.00  0.00    -0.372 N 
ATOM      3  N   UNL     1     -15.858  -3.096   1.128  0.00  0.00    -0.372 N 
ATOM      4  C   UNL     1     -14.800  -2.343   1.445  0.00  0.00    +0.166 C 
ATOM      5  H   UNL     1     -13.201  -2.037   2.654  0.00  0.00    +0.163 HD
ATOM      6  H   UNL     1     -15.128  -1.023  -0.097  0.00  0.00    +0.159 HD
ATOM      7  H   UNL     1     -13.766  -0.650   0.891  0.00  0.00    +0.159 HD
ATOM      8  H   UNL     1     -16.103  -3.924   1.654  0.00  0.00    +0.159 HD
ATOM      9  H   UNL     1     -16.449  -2.874   0.336  0.00  0.00    +0.159 HD
ENDROOT
BRANCH   1  10
ATOM     10  C   UNL     1     -14.229  -3.748   3.400  0.00  0.00    +0.151 C 
BRANCH  10  11
ATOM     11  C   UNL     1     -13.165  -4.787   3.177  0.00  0.00    -0.028 A 
ATOM     12  C   UNL     1     -13.477  -6.152   3.250  0.00  0.00    +0.005 A 
ATOM     13  C   UNL     1     -11.844  -4.413   2.887  0.00  0.00    +0.005 A 
ATOM     14  C   UNL     1     -12.496  -7.118   3.013  0.00  0.00    +0.000 A 
ATOM     15  C   UNL     1     -10.867  -5.381   2.652  0.00  0.00    +0.000 A 
ATOM     16  C   UNL     1     -11.194  -6.733   2.713  0.00  0.00    +0.000 A 
ENDBRANCH  10  11
ENDBRANCH   1  10
TORSDOF 2
ENDMDL
MODEL 8
REMARK VINA RESULT:    -5.190     19.973     21.585
REMARK INTER + INTRA:          -5.920
REMARK INTER:                  -5.775
REMARK INTRA:                  -0.145
REMARK UNBOUND:                -0.123
REMARK  Name = 1550473
REMARK  2 active torsions:
REMARK  status: ('A' for Active; 'I' for Inactive)
REMARK    1  A    between atoms: N_1  and  C_4
REMARK    2  A    between atoms: C_4  and  C_5
REMARK                            x       y       z     vdW  Elec       q    Type
REMARK                         _______ _______ _______ _____ _____    ______ ____
ROOT
ATOM      1  N   UNL     1       7.208  -2.592  10.307  0.00  0.00    -0.354 N 
ATOM      2  N   UNL     1       5.033  -2.105   9.678  0.00  0.00    -0.372 N 
ATOM      3  N   UNL     1       5.779  -4.269   9.508  0.00  0.00    -0.372 N 
ATOM      4  C   UNL     1       6.021  -2.995   9.834  0.00  0.00    +0.166 C 
ATOM      5  H   UNL     1       7.338  -1.607  10.507  0.00  0.00    +0.163 HD
ATOM      6  H   UNL     1       4.126  -2.380   9.327  0.00  0.00    +0.159 HD
ATOM      7  H   UNL     1       5.151  -1.130   9.922  0.00  0.00    +0.159 HD
ATOM      8  H   UNL     1       6.485  -4.988   9.598  0.00  0.00    +0.159 HD
ATOM      9  H   UNL     1       4.881  -4.561   9.144  0.00  0.00    +0.159 HD
ENDROOT
BRANCH   1  10
ATOM     10  C   UNL     1       8.333  -3.490  10.565  0.00  0.00    +0.151 C 
BRANCH  10  11
ATOM     11  C   UNL     1       8.756  -3.347  12.001  0.00  0.00    -0.028 A 
ATOM     12  C   UNL     1       9.519  -4.347  12.622  0.00  0.00    +0.005 A 
ATOM     13  C   UNL     1       8.402  -2.211  12.745  0.00  0.00    +0.005 A 
ATOM     14  C   UNL     1       9.938  -4.201  13.946  0.00  0.00    +0.000 A 
ATOM     15  C   UNL     1       8.821  -2.069  14.068  0.00  0.00    +0.000 A 
ATOM     16  C   UNL     1       9.591  -3.063  14.667  0.00  0.00    +0.000 A 
ENDBRANCH  10  11
ENDBRANCH   1  10
TORSDOF 2
ENDMDL
MODEL 9
REMARK VINA RESULT:    -5.071      3.485      5.113
REMARK INTER + INTRA:          -5.788
REMARK INTER:                  -5.688
REMARK INTRA:                  -0.099
REMARK UNBOUND:                -0.123
REMARK  Name = 1550473
REMARK  2 active torsions:
REMARK  status: ('A' for Active; 'I' for Inactive)
REMARK    1  A    between atoms: N_1  and  C_4
REMARK    2  A    between atoms: C_4  and  C_5
REMARK                            x       y       z     vdW  Elec       q    Type
REMARK                         _______ _______ _______ _____ _____    ______ ____
ROOT
ATOM      1  N   UNL     1      -8.723  -3.619   3.661  0.00  0.00    -0.354 N 
ATOM      2  N   UNL     1      -7.539  -2.239   5.096  0.00  0.00    -0.372 N 
ATOM      3  N   UNL     1      -6.422  -3.277   3.381  0.00  0.00    -0.372 N 
ATOM      4  C   UNL     1      -7.567  -3.055   4.035  0.00  0.00    +0.166 C 
ATOM      5  H   UNL     1      -9.551  -3.434   4.217  0.00  0.00    +0.163 HD
ATOM      6  H   UNL     1      -6.683  -1.797   5.400  0.00  0.00    +0.159 HD
ATOM      7  H   UNL     1      -8.377  -2.021   5.622  0.00  0.00    +0.159 HD
ATOM      8  H   UNL     1      -6.375  -3.887   2.576  0.00  0.00    +0.159 HD
ATOM      9  H   UNL     1      -5.552  -2.852   3.677  0.00  0.00    +0.159 HD
ENDROOT
BRANCH   1  10
ATOM     10  C   UNL     1      -8.872  -4.479   2.489  0.00  0.00    +0.151 C 
BRANCH  10  11
ATOM     11  C   UNL     1     -10.162  -5.244   2.601  0.00  0.00    -0.028 A 
ATOM     12  C   UNL     1     -10.157  -6.646   2.634  0.00  0.00    +0.005 A 
ATOM     13  C   UNL     1     -11.391  -4.572   2.680  0.00  0.00    +0.005 A 
ATOM     14  C   UNL     1     -11.353  -7.357   2.768  0.00  0.00    +0.000 A 
ATOM     15  C   UNL     1     -12.583  -5.285   2.813  0.00  0.00    +0.000 A 
ATOM     16  C   UNL     1     -12.563  -6.677   2.860  0.00  0.00    +0.000 A 
ENDBRANCH  10  11
ENDBRANCH   1  10
TORSDOF 2
ENDMDL
