MODEL 1
REMARK VINA RESULT:    -5.879      0.000      0.000
REMARK INTER + INTRA:          -6.703
REMARK INTER:                  -6.566
REMARK INTRA:                  -0.137
REMARK UNBOUND:                -0.137
REMARK  Name = 1550473
REMARK  2 active torsions:
REMARK  status: ('A' for Active; 'I' for Inactive)
REMARK    1  A    between atoms: N_1  and  C_4
REMARK    2  A    between atoms: C_4  and  C_5
REMARK                            x       y       z     vdW  Elec       q    Type
REMARK                         _______ _______ _______ _____ _____    ______ ____
ROOT
ATOM      1  N   UNL     1      -7.358  -3.760 -14.001  0.00  0.00    -0.354 N 
ATOM      2  N   UNL     1      -5.762  -5.361 -13.495  0.00  0.00    -0.372 N 
ATOM      3  N   UNL     1      -5.070  -3.285 -14.183  0.00  0.00    -0.372 N 
ATOM      4  C   UNL     1      -6.072  -4.123 -13.897  0.00  0.00    +0.166 C 
ATOM      5  H   UNL     1      -8.071  -4.452 -13.798  0.00  0.00    +0.163 HD
ATOM      6  H   UNL     1      -4.801  -5.662 -13.404  0.00  0.00    +0.159 HD
ATOM      7  H   UNL     1      -6.476  -6.036 -13.249  0.00  0.00    +0.159 HD
ATOM      8  H   UNL     1      -5.237  -2.338 -14.498  0.00  0.00    +0.159 HD
ATOM      9  H   UNL     1      -4.102  -3.571 -14.110  0.00  0.00    +0.159 HD
ENDROOT
BRANCH   1  10
ATOM     10  C   UNL     1      -7.801  -2.419 -14.378  0.00  0.00    +0.151 C 
BRANCH  10  11
ATOM     11  C   UNL     1      -8.523  -1.796 -13.216  0.00  0.00    -0.028 A 
ATOM     12  C   UNL     1      -8.812  -2.550 -12.069  0.00  0.00    +0.005 A 
ATOM     13  C   UNL     1      -8.916  -0.449 -13.253  0.00  0.00    +0.005 A 
ATOM     14  C   UNL     1      -9.456  -1.963 -10.977  0.00  0.00    +0.000 A 
ATOM     15  C   UNL     1      -9.560   0.133 -12.161  0.00  0.00    +0.000 A 
ATOM     16  C   UNL     1      -9.827  -0.623 -11.023  0.00  0.00    +0.000 A 
ENDBRANCH  10  11
ENDBRANCH   1  10
TORSDOF 2
ENDMDL
MODEL 2
REMARK VINA RESULT:    -5.626      3.067      5.070
REMARK INTER + INTRA:          -6.421
REMARK INTER:                  -6.255
REMARK INTRA:                  -0.166
REMARK UNBOUND:                -0.137
REMARK  Name = 1550473
REMARK  2 active torsions:
REMARK  status: ('A' for Active; 'I' for Inactive)
REMARK    1  A    between atoms: N_1  and  C_4
REMARK    2  A    between atoms: C_4  and  C_5
REMARK                            x       y       z     vdW  Elec       q    Type
REMARK                         _______ _______ _______ _____ _____    ______ ____
ROOT
ATOM      1  N   UNL     1      -9.986  -1.906 -11.317  0.00  0.00    -0.354 N 
ATOM      2  N   UNL     1     -10.993   0.149 -10.958  0.00  0.00    -0.372 N 
ATOM      3  N   UNL     1     -11.818  -1.218 -12.606  0.00  0.00    -0.372 N 
ATOM      4  C   UNL     1     -10.927  -1.006 -11.632  0.00  0.00    +0.166 C 
ATOM      5  H   UNL     1      -9.322  -1.672 -10.588  0.00  0.00    +0.163 HD
ATOM      6  H   UNL     1     -11.694   0.845 -11.171  0.00  0.00    +0.159 HD
ATOM      7  H   UNL     1     -10.356   0.360 -10.200  0.00  0.00    +0.159 HD
ATOM      8  H   UNL     1     -11.819  -2.067 -13.156  0.00  0.00    +0.159 HD
ATOM      9  H   UNL     1     -12.520  -0.528 -12.842  0.00  0.00    +0.159 HD
ENDROOT
BRANCH   1  10
ATOM     10  C   UNL     1      -9.863  -3.216 -11.953  0.00  0.00    +0.151 C 
BRANCH  10  11
ATOM     11  C   UNL     1      -8.558  -3.280 -12.698  0.00  0.00    -0.028 A 
ATOM     12  C   UNL     1      -8.431  -2.686 -13.962  0.00  0.00    +0.005 A 
ATOM     13  C   UNL     1      -7.444  -3.927 -12.143  0.00  0.00    +0.005 A 
ATOM     14  C   UNL     1      -7.211  -2.718 -14.642  0.00  0.00    +0.000 A 
ATOM     15  C   UNL     1      -6.228  -3.958 -12.825  0.00  0.00    +0.000 A 
ATOM     16  C   UNL     1      -6.111  -3.351 -14.074  0.00  0.00    +0.000 A 
ENDBRANCH  10  11
ENDBRANCH   1  10
TORSDOF 2
ENDMDL
MODEL 3
REMARK VINA RESULT:    -5.612     36.745     37.573
REMARK INTER + INTRA:          -6.406
REMARK INTER:                  -6.273
REMARK INTRA:                  -0.133
REMARK UNBOUND:                -0.137
REMARK  Name = 1550473
REMARK  2 active torsions:
REMARK  status: ('A' for Active; 'I' for Inactive)
REMARK    1  A    between atoms: N_1  and  C_4
REMARK    2  A    between atoms: C_4  and  C_5
REMARK                            x       y       z     vdW  Elec       q    Type
REMARK                         _______ _______ _______ _____ _____    ______ ____
ROOT
ATOM      1  N   UNL     1      15.137  17.549  10.316  0.00  0.00    -0.354 N 
ATOM      2  N   UNL     1      16.858  16.003  10.426  0.00  0.00    -0.372 N 
ATOM      3  N   UNL     1      15.651  16.182   8.483  0.00  0.00    -0.372 N 
ATOM      4  C   UNL     1      15.870  16.588   9.739  0.00  0.00    +0.166 C 
ATOM      5  H   UNL     1      15.333  17.790  11.281  0.00  0.00    +0.163 HD
ATOM      6  H   UNL     1      17.430  15.277  10.016  0.00  0.00    +0.159 HD
ATOM      7  H   UNL     1      17.082  16.278  11.375  0.00  0.00    +0.159 HD
ATOM      8  H   UNL     1      14.916  16.579   7.913  0.00  0.00    +0.159 HD
ATOM      9  H   UNL     1      16.205  15.449   8.059  0.00  0.00    +0.159 HD
ENDROOT
BRANCH   1  10
ATOM     10  C   UNL     1      14.073  18.286   9.636  0.00  0.00    +0.151 C 
BRANCH  10  11
ATOM     11  C   UNL     1      12.829  18.243  10.480  0.00  0.00    -0.028 A 
ATOM     12  C   UNL     1      11.566  18.123   9.881  0.00  0.00    +0.005 A 
ATOM     13  C   UNL     1      12.906  18.315  11.879  0.00  0.00    +0.005 A 
ATOM     14  C   UNL     1      10.413  18.052  10.666  0.00  0.00    +0.000 A 
ATOM     15  C   UNL     1      11.752  18.245  12.659  0.00  0.00    +0.000 A 
ATOM     16  C   UNL     1      10.506  18.111  12.052  0.00  0.00    +0.000 A 
ENDBRANCH  10  11
ENDBRANCH   1  10
TORSDOF 2
ENDMDL
MODEL 4
REMARK VINA RESULT:    -5.468      3.230      4.821
REMARK INTER + INTRA:          -6.245
REMARK INTER:                  -6.154
REMARK INTRA:                  -0.090
REMARK UNBOUND:                -0.137
REMARK  Name = 1550473
REMARK  2 active torsions:
REMARK  status: ('A' for Active; 'I' for Inactive)
REMARK    1  A    between atoms: N_1  and  C_4
REMARK    2  A    between atoms: C_4  and  C_5
REMARK                            x       y       z     vdW  Elec       q    Type
REMARK                         _______ _______ _______ _____ _____    ______ ____
ROOT
ATOM      1  N   UNL     1      -9.481  -0.562 -14.623  0.00  0.00    -0.354 N 
ATOM      2  N   UNL     1     -10.328   1.587 -14.787  0.00  0.00    -0.372 N 
ATOM      3  N   UNL     1     -11.356  -0.101 -15.952  0.00  0.00    -0.372 N 
ATOM      4  C   UNL     1     -10.384   0.293 -15.122  0.00  0.00    +0.166 C 
ATOM      5  H   UNL     1      -8.751  -0.195 -14.023  0.00  0.00    +0.163 HD
ATOM      6  H   UNL     1     -10.998   2.255 -15.145  0.00  0.00    +0.159 HD
ATOM      7  H   UNL     1      -9.625   1.943 -14.151  0.00  0.00    +0.159 HD
ATOM      8  H   UNL     1     -11.450  -1.064 -16.247  0.00  0.00    +0.159 HD
ATOM      9  H   UNL     1     -12.029   0.554 -16.329  0.00  0.00    +0.159 HD
ENDROOT
BRANCH   1  10
ATOM     10  C   UNL     1      -9.486  -2.001 -14.882  0.00  0.00    +0.151 C 
BRANCH  10  11
ATOM     11  C   UNL     1      -8.382  -2.646 -14.092  0.00  0.00    -0.028 A 
ATOM     12  C   UNL     1      -8.621  -3.127 -12.796  0.00  0.00    +0.005 A 
ATOM     13  C   UNL     1      -7.096  -2.785 -14.635  0.00  0.00    +0.005 A 
ATOM     14  C   UNL     1      -7.603  -3.754 -12.073  0.00  0.00    +0.000 A 
ATOM     15  C   UNL     1      -6.082  -3.411 -13.910  0.00  0.00    +0.000 A 
ATOM     16  C   UNL     1      -6.336  -3.897 -12.630  0.00  0.00    +0.000 A 
ENDBRANCH  10  11
ENDBRANCH   1  10
TORSDOF 2
ENDMDL
MODEL 5
REMARK VINA RESULT:    -5.366     12.688     13.891
REMARK INTER + INTRA:          -6.131
REMARK INTER:                  -5.981
REMARK INTRA:                  -0.150
REMARK UNBOUND:                -0.137
REMARK  Name = 1550473
REMARK  2 active torsions:
REMARK  status: ('A' for Active; 'I' for Inactive)
REMARK    1  A    between atoms: N_1  and  C_4
REMARK    2  A    between atoms: C_4  and  C_5
REMARK                            x       y       z     vdW  Elec       q    Type
REMARK                         _______ _______ _______ _____ _____    ______ ____
ROOT
ATOM      1  N   UNL     1       2.906   2.935 -17.355  0.00  0.00    -0.354 N 
ATOM      2  N   UNL     1       2.895   3.628 -15.145  0.00  0.00    -0.372 N 
ATOM      3  N   UNL     1       4.832   3.825 -16.359  0.00  0.00    -0.372 N 
ATOM      4  C   UNL     1       3.547   3.458 -16.301  0.00  0.00    +0.166 C 
ATOM      5  H   UNL     1       1.940   2.649 -17.237  0.00  0.00    +0.163 HD
ATOM      6  H   UNL     1       3.352   4.024 -14.334  0.00  0.00    +0.159 HD
ATOM      7  H   UNL     1       1.917   3.385 -15.044  0.00  0.00    +0.159 HD
ATOM      8  H   UNL     1       5.382   3.717 -17.201  0.00  0.00    +0.159 HD
ATOM      9  H   UNL     1       5.310   4.212 -15.555  0.00  0.00    +0.159 HD
ENDROOT
BRANCH   1  10
ATOM     10  C   UNL     1       3.509   2.758 -18.674  0.00  0.00    +0.151 C 
BRANCH  10  11
ATOM     11  C   UNL     1       3.486   1.298 -19.033  0.00  0.00    -0.028 A 
ATOM     12  C   UNL     1       4.276   0.810 -20.085  0.00  0.00    +0.005 A 
ATOM     13  C   UNL     1       2.679   0.395 -18.323  0.00  0.00    +0.005 A 
ATOM     14  C   UNL     1       4.277  -0.551 -20.399  0.00  0.00    +0.000 A 
ATOM     15  C   UNL     1       2.683  -0.963 -18.641  0.00  0.00    +0.000 A 
ATOM     16  C   UNL     1       3.483  -1.436 -19.677  0.00  0.00    +0.000 A 
ENDBRANCH  10  11
ENDBRANCH   1  10
TORSDOF 2
ENDMDL
MODEL 6
REMARK VINA RESULT:    -5.221      3.166      4.974
REMARK INTER + INTRA:          -5.968
REMARK INTER:                  -5.845
REMARK INTRA:                  -0.123
REMARK UNBOUND:                -0.137
REMARK  Name = 1550473
REMARK  2 active torsions:
REMARK  status: ('A' for Active; 'I' for Inactive)
REMARK    1  A    between atoms: N_1  and  C_4
REMARK    2  A    between atoms: C_4  and  C_5
REMARK                            x       y       z     vdW  Elec       q    Type
REMARK                         _______ _______ _______ _____ _____    ______ ____
ROOT
ATOM      1  N   UNL     1     -10.705  -2.736 -12.735  0.00  0.00    -0.354 N 
ATOM      2  N   UNL     1     -12.911  -2.298 -13.288  0.00  0.00    -0.372 N 
ATOM      3  N   UNL     1     -12.452  -3.326 -11.289  0.00  0.00    -0.372 N 
ATOM      4  C   UNL     1     -12.009  -2.791 -12.431  0.00  0.00    +0.166 C 
ATOM      5  H   UNL     1     -10.436  -2.346 -13.631  0.00  0.00    +0.163 HD
ATOM      6  H   UNL     1     -13.902  -2.322 -13.085  0.00  0.00    +0.159 HD
ATOM      7  H   UNL     1     -12.636  -1.867 -14.162  0.00  0.00    +0.159 HD
ATOM      8  H   UNL     1     -11.823  -3.720 -10.602  0.00  0.00    +0.159 HD
ATOM      9  H   UNL     1     -13.440  -3.370 -11.072  0.00  0.00    +0.159 HD
ENDROOT
BRANCH   1  10
ATOM     10  C   UNL     1      -9.639  -3.196 -11.848  0.00  0.00    +0.151 C 
BRANCH  10  11
ATOM     11  C   UNL     1      -8.352  -3.266 -12.622  0.00  0.00    -0.028 A 
ATOM     12  C   UNL     1      -7.221  -3.885 -12.069  0.00  0.00    +0.005 A 
ATOM     13  C   UNL     1      -8.258  -2.721 -13.911  0.00  0.00    +0.005 A 
ATOM     14  C   UNL     1      -6.034  -3.977 -12.799  0.00  0.00    +0.000 A 
ATOM     15  C   UNL     1      -7.070  -2.814 -14.637  0.00  0.00    +0.000 A 
ATOM     16  C   UNL     1      -5.959  -3.444 -14.082  0.00  0.00    +0.000 A 
ENDBRANCH  10  11
ENDBRANCH   1  10
TORSDOF 2
ENDMDL
MODEL 7
REMARK VINA RESULT:    -5.210     24.422     25.663
REMARK INTER + INTRA:          -5.956
REMARK INTER:                  -5.823
REMARK INTRA:                  -0.133
REMARK UNBOUND:                -0.137
REMARK  Name = 1550473
REMARK  2 active torsions:
REMARK  status: ('A' for Active; 'I' for Inactive)
REMARK    1  A    between atoms: N_1  and  C_4
REMARK    2  A    between atoms: C_4  and  C_5
REMARK                            x       y       z     vdW  Elec       q    Type
REMARK                         _______ _______ _______ _____ _____    ______ ____
ROOT
ATOM      1  N   UNL     1      -0.523  18.760   2.066  0.00  0.00    -0.354 N 
ATOM      2  N   UNL     1      -0.554  19.568   4.237  0.00  0.00    -0.372 N 
ATOM      3  N   UNL     1       1.355  18.564   3.454  0.00  0.00    -0.372 N 
ATOM      4  C   UNL     1       0.096  18.957   3.238  0.00  0.00    +0.166 C 
ATOM      5  H   UNL     1      -1.488  19.055   1.976  0.00  0.00    +0.163 HD
ATOM      6  H   UNL     1      -0.112  19.734   5.131  0.00  0.00    +0.159 HD
ATOM      7  H   UNL     1      -1.503  19.902   4.129  0.00  0.00    +0.159 HD
ATOM      8  H   UNL     1       1.898  18.092   2.743  0.00  0.00    +0.159 HD
ATOM      9  H   UNL     1       1.811  18.710   4.346  0.00  0.00    +0.159 HD
ENDROOT
BRANCH   1  10
ATOM     10  C   UNL     1       0.113  18.154   0.898  0.00  0.00    +0.151 C 
BRANCH  10  11
ATOM     11  C   UNL     1      -0.916  17.374   0.128  0.00  0.00    -0.028 A 
ATOM     12  C   UNL     1      -2.242  17.305   0.579  0.00  0.00    +0.005 A 
ATOM     13  C   UNL     1      -0.573  16.706  -1.058  0.00  0.00    +0.005 A 
ATOM     14  C   UNL     1      -3.206  16.606  -0.151  0.00  0.00    +0.000 A 
ATOM     15  C   UNL     1      -1.538  16.008  -1.784  0.00  0.00    +0.000 A 
ATOM     16  C   UNL     1      -2.854  15.960  -1.332  0.00  0.00    +0.000 A 
ENDBRANCH  10  11
ENDBRANCH   1  10
TORSDOF 2
ENDMDL
MODEL 8
REMARK VINA RESULT:    -5.072     11.928     12.916
REMARK INTER + INTRA:          -5.802
REMARK INTER:                  -5.667
REMARK INTRA:                  -0.135
REMARK UNBOUND:                -0.137
REMARK  Name = 1550473
REMARK  2 active torsions:
REMARK  status: ('A' for Active; 'I' for Inactive)
REMARK    1  A    between atoms: N_1  and  C_4
REMARK    2  A    between atoms: C_4  and  C_5
REMARK                            x       y       z     vdW  Elec       q    Type
REMARK                         _______ _______ _______ _____ _____    ______ ____
ROOT
ATOM      1  N   UNL     1       2.591  -1.014 -18.235  0.00  0.00    -0.354 N 
ATOM      2  N   UNL     1       2.638  -2.612 -16.559  0.00  0.00    -0.372 N 
ATOM      3  N   UNL     1       4.556  -2.195 -17.749  0.00  0.00    -0.372 N 
ATOM      4  C   UNL     1       3.264  -1.930 -17.526  0.00  0.00    +0.166 C 
ATOM      5  H   UNL     1       1.605  -0.882 -18.038  0.00  0.00    +0.163 HD
ATOM      6  H   UNL     1       3.121  -3.306 -16.005  0.00  0.00    +0.159 HD
ATOM      7  H   UNL     1       1.665  -2.445 -16.333  0.00  0.00    +0.159 HD
ATOM      8  H   UNL     1       5.083  -1.719 -18.468  0.00  0.00    +0.159 HD
ATOM      9  H   UNL     1       5.053  -2.895 -17.213  0.00  0.00    +0.159 HD
ENDROOT
BRANCH   1  10
ATOM     10  C   UNL     1       3.192  -0.180 -19.273  0.00  0.00    +0.151 C 
BRANCH  10  11
ATOM     11  C   UNL     1       3.240   1.244 -18.793  0.00  0.00    -0.028 A 
ATOM     12  C   UNL     1       2.542   1.630 -17.639  0.00  0.00    +0.005 A 
ATOM     13  C   UNL     1       3.986   2.212 -19.484  0.00  0.00    +0.005 A 
ATOM     14  C   UNL     1       2.611   2.946 -17.175  0.00  0.00    +0.000 A 
ATOM     15  C   UNL     1       4.051   3.525 -19.018  0.00  0.00    +0.000 A 
ATOM     16  C   UNL     1       3.365   3.891 -17.862  0.00  0.00    +0.000 A 
ENDBRANCH  10  11
ENDBRANCH   1  10
TORSDOF 2
ENDMDL
MODEL 9
REMARK VINA RESULT:    -5.048      3.598      5.119
REMARK INTER + INTRA:          -5.775
REMARK INTER:                  -5.664
REMARK INTRA:                  -0.111
REMARK UNBOUND:                -0.137
REMARK  Name = 1550473
REMARK  2 active torsions:
REMARK  status: ('A' for Active; 'I' for Inactive)
REMARK    1  A    between atoms: N_1  and  C_4
REMARK    2  A    between atoms: C_4  and  C_5
REMARK                            x       y       z     vdW  Elec       q    Type
REMARK                         _______ _______ _______ _____ _____    ______ ____
ROOT
ATOM      1  N   UNL     1     -10.662   0.418 -13.295  0.00  0.00    -0.354 N 
ATOM      2  N   UNL     1     -12.551   1.167 -14.406  0.00  0.00    -0.372 N 
ATOM      3  N   UNL     1     -10.492   1.914 -15.091  0.00  0.00    -0.372 N 
ATOM      4  C   UNL     1     -11.221   1.163 -14.258  0.00  0.00    +0.166 C 
ATOM      5  H   UNL     1     -11.271  -0.105 -12.677  0.00  0.00    +0.163 HD
ATOM      6  H   UNL     1     -13.001   1.716 -15.127  0.00  0.00    +0.159 HD
ATOM      7  H   UNL     1     -13.154   0.606 -13.817  0.00  0.00    +0.159 HD
ATOM      8  H   UNL     1      -9.484   1.960 -15.028  0.00  0.00    +0.159 HD
ATOM      9  H   UNL     1     -10.925   2.480 -15.810  0.00  0.00    +0.159 HD
ENDROOT
BRANCH   1  10
ATOM     10  C   UNL     1      -9.220   0.302 -13.083  0.00  0.00    +0.151 C 
BRANCH  10  11
ATOM     11  C   UNL     1      -8.870  -1.143 -12.863  0.00  0.00    -0.028 A 
ATOM     12  C   UNL     1      -8.172  -1.864 -13.843  0.00  0.00    +0.005 A 
ATOM     13  C   UNL     1      -9.230  -1.797 -11.674  0.00  0.00    +0.005 A 
ATOM     14  C   UNL     1      -7.821  -3.199 -13.626  0.00  0.00    +0.000 A 
ATOM     15  C   UNL     1      -8.878  -3.130 -11.462  0.00  0.00    +0.000 A 
ATOM     16  C   UNL     1      -8.171  -3.830 -12.437  0.00  0.00    +0.000 A 
ENDBRANCH  10  11
ENDBRANCH   1  10
TORSDOF 2
ENDMDL
