MODEL 1
REMARK VINA RESULT:    -5.978      0.000      0.000
REMARK INTER + INTRA:          -6.791
REMARK INTER:                  -6.677
REMARK INTRA:                  -0.114
REMARK UNBOUND:                -0.114
REMARK  Name = 1550473
REMARK  2 active torsions:
REMARK  status: ('A' for Active; 'I' for Inactive)
REMARK    1  A    between atoms: N_1  and  C_4
REMARK    2  A    between atoms: C_4  and  C_5
REMARK                            x       y       z     vdW  Elec       q    Type
REMARK                         _______ _______ _______ _____ _____    ______ ____
ROOT
ATOM      1  N   UNL     1       1.591  -4.355   2.501  0.00  0.00    -0.354 N 
ATOM      2  N   UNL     1       3.125  -3.395   3.947  0.00  0.00    -0.372 N 
ATOM      3  N   UNL     1       2.134  -5.378   4.539  0.00  0.00    -0.372 N 
ATOM      4  C   UNL     1       2.272  -4.385   3.655  0.00  0.00    +0.166 C 
ATOM      5  H   UNL     1       1.719  -3.559   1.887  0.00  0.00    +0.163 HD
ATOM      6  H   UNL     1       3.655  -3.392   4.808  0.00  0.00    +0.159 HD
ATOM      7  H   UNL     1       3.284  -2.624   3.311  0.00  0.00    +0.159 HD
ATOM      8  H   UNL     1       1.502  -6.152   4.380  0.00  0.00    +0.159 HD
ATOM      9  H   UNL     1       2.647  -5.387   5.411  0.00  0.00    +0.159 HD
ENDROOT
BRANCH   1  10
ATOM     10  C   UNL     1       0.679  -5.410   2.063  0.00  0.00    +0.151 C 
BRANCH  10  11
ATOM     11  C   UNL     1      -0.738  -4.939   2.240  0.00  0.00    -0.028 A 
ATOM     12  C   UNL     1      -1.809  -5.832   2.091  0.00  0.00    +0.005 A 
ATOM     13  C   UNL     1      -1.016  -3.602   2.561  0.00  0.00    +0.005 A 
ATOM     14  C   UNL     1      -3.124  -5.402   2.284  0.00  0.00    +0.000 A 
ATOM     15  C   UNL     1      -2.330  -3.176   2.753  0.00  0.00    +0.000 A 
ATOM     16  C   UNL     1      -3.384  -4.077   2.617  0.00  0.00    +0.000 A 
ENDBRANCH  10  11
ENDBRANCH   1  10
TORSDOF 2
ENDMDL
MODEL 2
REMARK VINA RESULT:    -5.735      4.387      5.991
REMARK INTER + INTRA:          -6.519
REMARK INTER:                  -6.426
REMARK INTRA:                  -0.093
REMARK UNBOUND:                -0.114
REMARK  Name = 1550473
REMARK  2 active torsions:
REMARK  status: ('A' for Active; 'I' for Inactive)
REMARK    1  A    between atoms: N_1  and  C_4
REMARK    2  A    between atoms: C_4  and  C_5
REMARK                            x       y       z     vdW  Elec       q    Type
REMARK                         _______ _______ _______ _____ _____    ______ ____
ROOT
ATOM      1  N   UNL     1      -4.745  -2.447   1.960  0.00  0.00    -0.354 N 
ATOM      2  N   UNL     1      -6.446  -1.319   0.864  0.00  0.00    -0.372 N 
ATOM      3  N   UNL     1      -6.704  -1.827   3.087  0.00  0.00    -0.372 N 
ATOM      4  C   UNL     1      -5.955  -1.872   1.980  0.00  0.00    +0.166 C 
ATOM      5  H   UNL     1      -4.241  -2.475   1.081  0.00  0.00    +0.163 HD
ATOM      6  H   UNL     1      -7.355  -0.876   0.850  0.00  0.00    +0.159 HD
ATOM      7  H   UNL     1      -5.920  -1.308  -0.001  0.00  0.00    +0.159 HD
ATOM      8  H   UNL     1      -6.394  -2.232   3.960  0.00  0.00    +0.159 HD
ATOM      9  H   UNL     1      -7.621  -1.398   3.090  0.00  0.00    +0.159 HD
ENDROOT
BRANCH   1  10
ATOM     10  C   UNL     1      -4.097  -3.030   3.133  0.00  0.00    +0.151 C 
BRANCH  10  11
ATOM     11  C   UNL     1      -2.941  -3.880   2.684  0.00  0.00    -0.028 A 
ATOM     12  C   UNL     1      -1.647  -3.343   2.617  0.00  0.00    +0.005 A 
ATOM     13  C   UNL     1      -3.131  -5.224   2.330  0.00  0.00    +0.005 A 
ATOM     14  C   UNL     1      -0.567  -4.140   2.229  0.00  0.00    +0.000 A 
ATOM     15  C   UNL     1      -2.050  -6.016   1.942  0.00  0.00    +0.000 A 
ATOM     16  C   UNL     1      -0.768  -5.474   1.894  0.00  0.00    +0.000 A 
ENDBRANCH  10  11
ENDBRANCH   1  10
TORSDOF 2
ENDMDL
MODEL 3
REMARK VINA RESULT:    -5.555      8.780     10.086
REMARK INTER + INTRA:          -6.319
REMARK INTER:                  -6.195
REMARK INTRA:                  -0.124
REMARK UNBOUND:                -0.114
REMARK  Name = 1550473
REMARK  2 active torsions:
REMARK  status: ('A' for Active; 'I' for Inactive)
REMARK    1  A    between atoms: N_1  and  C_4
REMARK    2  A    between atoms: C_4  and  C_5
REMARK                            x       y       z     vdW  Elec       q    Type
REMARK                         _______ _______ _______ _____ _____    ______ ____
ROOT
ATOM      1  N   UNL     1      -5.649   2.214  -2.572  0.00  0.00    -0.354 N 
ATOM      2  N   UNL     1      -5.815   2.493  -4.866  0.00  0.00    -0.372 N 
ATOM      3  N   UNL     1      -5.446   4.335  -3.548  0.00  0.00    -0.372 N 
ATOM      4  C   UNL     1      -5.635   3.015  -3.646  0.00  0.00    +0.166 C 
ATOM      5  H   UNL     1      -5.828   1.226  -2.711  0.00  0.00    +0.163 HD
ATOM      6  H   UNL     1      -5.806   3.072  -5.695  0.00  0.00    +0.159 HD
ATOM      7  H   UNL     1      -5.947   1.499  -5.005  0.00  0.00    +0.159 HD
ATOM      8  H   UNL     1      -5.311   4.792  -2.656  0.00  0.00    +0.159 HD
ATOM      9  H   UNL     1      -5.445   4.933  -4.366  0.00  0.00    +0.159 HD
ENDROOT
BRANCH   1  10
ATOM     10  C   UNL     1      -5.411   2.675  -1.206  0.00  0.00    +0.151 C 
BRANCH  10  11
ATOM     11  C   UNL     1      -5.790   1.582  -0.245  0.00  0.00    -0.028 A 
ATOM     12  C   UNL     1      -5.467   1.686   1.115  0.00  0.00    +0.005 A 
ATOM     13  C   UNL     1      -6.477   0.441  -0.689  0.00  0.00    +0.005 A 
ATOM     14  C   UNL     1      -5.845   0.684   2.013  0.00  0.00    +0.000 A 
ATOM     15  C   UNL     1      -6.852  -0.557   0.210  0.00  0.00    +0.000 A 
ATOM     16  C   UNL     1      -6.538  -0.434   1.561  0.00  0.00    +0.000 A 
ENDBRANCH  10  11
ENDBRANCH   1  10
TORSDOF 2
ENDMDL
MODEL 4
REMARK VINA RESULT:    -5.548      3.102      3.982
REMARK INTER + INTRA:          -6.310
REMARK INTER:                  -6.173
REMARK INTRA:                  -0.137
REMARK UNBOUND:                -0.114
REMARK  Name = 1550473
REMARK  2 active torsions:
REMARK  status: ('A' for Active; 'I' for Inactive)
REMARK    1  A    between atoms: N_1  and  C_4
REMARK    2  A    between atoms: C_4  and  C_5
REMARK                            x       y       z     vdW  Elec       q    Type
REMARK                         _______ _______ _______ _____ _____    ______ ____
ROOT
ATOM      1  N   UNL     1      -0.688  -7.823   1.515  0.00  0.00    -0.354 N 
ATOM      2  N   UNL     1      -1.285  -9.840   0.546  0.00  0.00    -0.372 N 
ATOM      3  N   UNL     1      -0.185  -8.280  -0.727  0.00  0.00    -0.372 N 
ATOM      4  C   UNL     1      -0.715  -8.633   0.449  0.00  0.00    +0.166 C 
ATOM      5  H   UNL     1      -1.134  -8.137   2.370  0.00  0.00    +0.163 HD
ATOM      6  H   UNL     1      -1.317 -10.474  -0.240  0.00  0.00    +0.159 HD
ATOM      7  H   UNL     1      -1.689 -10.170   1.415  0.00  0.00    +0.159 HD
ATOM      8  H   UNL     1       0.255  -7.381  -0.868  0.00  0.00    +0.159 HD
ATOM      9  H   UNL     1      -0.218  -8.897  -1.529  0.00  0.00    +0.159 HD
ENDROOT
BRANCH   1  10
ATOM     10  C   UNL     1      -0.044  -6.511   1.530  0.00  0.00    +0.151 C 
BRANCH  10  11
ATOM     11  C   UNL     1      -1.046  -5.476   1.963  0.00  0.00    -0.028 A 
ATOM     12  C   UNL     1      -2.408  -5.798   2.052  0.00  0.00    +0.005 A 
ATOM     13  C   UNL     1      -0.638  -4.174   2.291  0.00  0.00    +0.005 A 
ATOM     14  C   UNL     1      -3.335  -4.846   2.483  0.00  0.00    +0.000 A 
ATOM     15  C   UNL     1      -1.567  -3.226   2.720  0.00  0.00    +0.000 A 
ATOM     16  C   UNL     1      -2.915  -3.563   2.819  0.00  0.00    +0.000 A 
ENDBRANCH  10  11
ENDBRANCH   1  10
TORSDOF 2
ENDMDL
MODEL 5
REMARK VINA RESULT:    -5.475     25.670     26.846
REMARK INTER + INTRA:          -6.229
REMARK INTER:                  -6.094
REMARK INTRA:                  -0.134
REMARK UNBOUND:                -0.114
REMARK  Name = 1550473
REMARK  2 active torsions:
REMARK  status: ('A' for Active; 'I' for Inactive)
REMARK    1  A    between atoms: N_1  and  C_4
REMARK    2  A    between atoms: C_4  and  C_5
REMARK                            x       y       z     vdW  Elec       q    Type
REMARK                         _______ _______ _______ _____ _____    ______ ____
ROOT
ATOM      1  N   UNL     1       0.466 -17.999 -20.956  0.00  0.00    -0.354 N 
ATOM      2  N   UNL     1      -1.815 -18.014 -21.361  0.00  0.00    -0.372 N 
ATOM      3  N   UNL     1      -0.395 -17.345 -23.035  0.00  0.00    -0.372 N 
ATOM      4  C   UNL     1      -0.566 -17.785 -21.784  0.00  0.00    +0.166 C 
ATOM      5  H   UNL     1       0.268 -18.304 -20.010  0.00  0.00    +0.163 HD
ATOM      6  H   UNL     1      -2.613 -17.864 -21.964  0.00  0.00    +0.159 HD
ATOM      7  H   UNL     1      -2.006 -18.362 -20.429  0.00  0.00    +0.159 HD
ATOM      8  H   UNL     1       0.521 -17.147 -23.413  0.00  0.00    +0.159 HD
ATOM      9  H   UNL     1      -1.182 -17.178 -23.650  0.00  0.00    +0.159 HD
ENDROOT
BRANCH   1  10
ATOM     10  C   UNL     1       1.867 -17.832 -21.336  0.00  0.00    +0.151 C 
BRANCH  10  11
ATOM     11  C   UNL     1       2.617 -17.213 -20.189  0.00  0.00    -0.028 A 
ATOM     12  C   UNL     1       2.033 -17.135 -18.916  0.00  0.00    +0.005 A 
ATOM     13  C   UNL     1       3.913 -16.707 -20.367  0.00  0.00    +0.005 A 
ATOM     14  C   UNL     1       2.740 -16.587 -17.843  0.00  0.00    +0.000 A 
ATOM     15  C   UNL     1       4.616 -16.159 -19.293  0.00  0.00    +0.000 A 
ATOM     16  C   UNL     1       4.030 -16.102 -18.031  0.00  0.00    +0.000 A 
ENDBRANCH  10  11
ENDBRANCH   1  10
TORSDOF 2
ENDMDL
MODEL 6
REMARK VINA RESULT:    -5.470      2.387      3.326
REMARK INTER + INTRA:          -6.224
REMARK INTER:                  -6.108
REMARK INTRA:                  -0.115
REMARK UNBOUND:                -0.114
REMARK  Name = 1550473
REMARK  2 active torsions:
REMARK  status: ('A' for Active; 'I' for Inactive)
REMARK    1  A    between atoms: N_1  and  C_4
REMARK    2  A    between atoms: C_4  and  C_5
REMARK                            x       y       z     vdW  Elec       q    Type
REMARK                         _______ _______ _______ _____ _____    ______ ____
ROOT
ATOM      1  N   UNL     1       0.853  -6.879   0.869  0.00  0.00    -0.354 N 
ATOM      2  N   UNL     1       1.084  -9.072   0.159  0.00  0.00    -0.372 N 
ATOM      3  N   UNL     1       1.751  -8.518   2.284  0.00  0.00    -0.372 N 
ATOM      4  C   UNL     1       1.229  -8.142   1.111  0.00  0.00    +0.166 C 
ATOM      5  H   UNL     1       0.493  -6.652  -0.050  0.00  0.00    +0.163 HD
ATOM      6  H   UNL     1       1.356 -10.033   0.314  0.00  0.00    +0.159 HD
ATOM      7  H   UNL     1       0.681  -8.852  -0.743  0.00  0.00    +0.159 HD
ATOM      8  H   UNL     1       1.892  -7.863   3.042  0.00  0.00    +0.159 HD
ATOM      9  H   UNL     1       2.040  -9.473   2.454  0.00  0.00    +0.159 HD
ENDROOT
BRANCH   1  10
ATOM     10  C   UNL     1       0.919  -5.803   1.857  0.00  0.00    +0.151 C 
BRANCH  10  11
ATOM     11  C   UNL     1      -0.469  -5.284   2.110  0.00  0.00    -0.028 A 
ATOM     12  C   UNL     1      -0.671  -3.952   2.503  0.00  0.00    +0.005 A 
ATOM     13  C   UNL     1      -1.588  -6.116   1.953  0.00  0.00    +0.005 A 
ATOM     14  C   UNL     1      -1.962  -3.461   2.709  0.00  0.00    +0.000 A 
ATOM     15  C   UNL     1      -2.876  -5.622   2.161  0.00  0.00    +0.000 A 
ATOM     16  C   UNL     1      -3.063  -4.294   2.536  0.00  0.00    +0.000 A 
ENDBRANCH  10  11
ENDBRANCH   1  10
TORSDOF 2
ENDMDL
MODEL 7
REMARK VINA RESULT:    -5.397      8.260      9.153
REMARK INTER + INTRA:          -6.142
REMARK INTER:                  -5.974
REMARK INTRA:                  -0.168
REMARK UNBOUND:                -0.114
REMARK  Name = 1550473
REMARK  2 active torsions:
REMARK  status: ('A' for Active; 'I' for Inactive)
REMARK    1  A    between atoms: N_1  and  C_4
REMARK    2  A    between atoms: C_4  and  C_5
REMARK                            x       y       z     vdW  Elec       q    Type
REMARK                         _______ _______ _______ _____ _____    ______ ____
ROOT
ATOM      1  N   UNL     1      -4.108   3.375   0.379  0.00  0.00    -0.354 N 
ATOM      2  N   UNL     1      -4.986   5.518   0.332  0.00  0.00    -0.372 N 
ATOM      3  N   UNL     1      -4.968   4.284  -1.603  0.00  0.00    -0.372 N 
ATOM      4  C   UNL     1      -4.682   4.378  -0.300  0.00  0.00    +0.166 C 
ATOM      5  H   UNL     1      -3.889   3.520   1.358  0.00  0.00    +0.163 HD
ATOM      6  H   UNL     1      -5.423   6.290  -0.153  0.00  0.00    +0.159 HD
ATOM      7  H   UNL     1      -4.808   5.643   1.321  0.00  0.00    +0.159 HD
ATOM      8  H   UNL     1      -4.758   3.452  -2.139  0.00  0.00    +0.159 HD
ATOM      9  H   UNL     1      -5.394   5.051  -2.108  0.00  0.00    +0.159 HD
ENDROOT
BRANCH   1  10
ATOM     10  C   UNL     1      -3.786   2.073  -0.203  0.00  0.00    +0.151 C 
BRANCH  10  11
ATOM     11  C   UNL     1      -4.854   1.086   0.181  0.00  0.00    -0.028 A 
ATOM     12  C   UNL     1      -5.431   1.123   1.459  0.00  0.00    +0.005 A 
ATOM     13  C   UNL     1      -5.296   0.115  -0.731  0.00  0.00    +0.005 A 
ATOM     14  C   UNL     1      -6.444   0.225   1.805  0.00  0.00    +0.000 A 
ATOM     15  C   UNL     1      -6.307  -0.780  -0.380  0.00  0.00    +0.000 A 
ATOM     16  C   UNL     1      -6.882  -0.723   0.887  0.00  0.00    +0.000 A 
ENDBRANCH  10  11
ENDBRANCH   1  10
TORSDOF 2
ENDMDL
MODEL 8
REMARK VINA RESULT:    -5.321     24.971     26.093
REMARK INTER + INTRA:          -6.057
REMARK INTER:                  -5.900
REMARK INTRA:                  -0.157
REMARK UNBOUND:                -0.114
REMARK  Name = 1550473
REMARK  2 active torsions:
REMARK  status: ('A' for Active; 'I' for Inactive)
REMARK    1  A    between atoms: N_1  and  C_4
REMARK    2  A    between atoms: C_4  and  C_5
REMARK                            x       y       z     vdW  Elec       q    Type
REMARK                         _______ _______ _______ _____ _____    ______ ____
ROOT
ATOM      1  N   UNL     1       0.432 -19.093 -18.466  0.00  0.00    -0.354 N 
ATOM      2  N   UNL     1       0.191 -20.674 -16.791  0.00  0.00    -0.372 N 
ATOM      3  N   UNL     1       1.388 -21.223 -18.670  0.00  0.00    -0.372 N 
ATOM      4  C   UNL     1       0.674 -20.321 -17.989  0.00  0.00    +0.166 C 
ATOM      5  H   UNL     1      -0.142 -18.466 -17.915  0.00  0.00    +0.163 HD
ATOM      6  H   UNL     1       0.360 -21.592 -16.403  0.00  0.00    +0.159 HD
ATOM      7  H   UNL     1      -0.344 -20.030 -16.221  0.00  0.00    +0.159 HD
ATOM      8  H   UNL     1       1.775 -21.021 -19.582  0.00  0.00    +0.159 HD
ATOM      9  H   UNL     1       1.558 -22.151 -18.303  0.00  0.00    +0.159 HD
ENDROOT
BRANCH   1  10
ATOM     10  C   UNL     1       0.957 -18.592 -19.735  0.00  0.00    +0.151 C 
BRANCH  10  11
ATOM     11  C   UNL     1       2.156 -17.726 -19.463  0.00  0.00    -0.028 A 
ATOM     12  C   UNL     1       3.199 -17.641 -20.396  0.00  0.00    +0.005 A 
ATOM     13  C   UNL     1       2.251 -16.983 -18.277  0.00  0.00    +0.005 A 
ATOM     14  C   UNL     1       4.299 -16.813 -20.158  0.00  0.00    +0.000 A 
ATOM     15  C   UNL     1       3.351 -16.158 -18.041  0.00  0.00    +0.000 A 
ATOM     16  C   UNL     1       4.374 -16.071 -18.983  0.00  0.00    +0.000 A 
ENDBRANCH  10  11
ENDBRANCH   1  10
TORSDOF 2
ENDMDL
MODEL 9
REMARK VINA RESULT:    -5.277      3.675      4.811
REMARK INTER + INTRA:          -6.007
REMARK INTER:                  -5.893
REMARK INTRA:                  -0.114
REMARK UNBOUND:                -0.114
REMARK  Name = 1550473
REMARK  2 active torsions:
REMARK  status: ('A' for Active; 'I' for Inactive)
REMARK    1  A    between atoms: N_1  and  C_4
REMARK    2  A    between atoms: C_4  and  C_5
REMARK                            x       y       z     vdW  Elec       q    Type
REMARK                         _______ _______ _______ _____ _____    ______ ____
ROOT
ATOM      1  N   UNL     1      -3.129  -1.896   4.101  0.00  0.00    -0.354 N 
ATOM      2  N   UNL     1      -4.409  -0.749   5.654  0.00  0.00    -0.372 N 
ATOM      3  N   UNL     1      -2.714   0.361   4.577  0.00  0.00    -0.372 N 
ATOM      4  C   UNL     1      -3.407  -0.767   4.766  0.00  0.00    +0.166 C 
ATOM      5  H   UNL     1      -3.672  -2.725   4.312  0.00  0.00    +0.163 HD
ATOM      6  H   UNL     1      -4.645   0.089   6.168  0.00  0.00    +0.159 HD
ATOM      7  H   UNL     1      -4.980  -1.567   5.829  0.00  0.00    +0.159 HD
ATOM      8  H   UNL     1      -1.942   0.412   3.926  0.00  0.00    +0.159 HD
ATOM      9  H   UNL     1      -2.927   1.207   5.091  0.00  0.00    +0.159 HD
ENDROOT
BRANCH   1  10
ATOM     10  C   UNL     1      -2.093  -2.006   3.075  0.00  0.00    +0.151 C 
BRANCH  10  11
ATOM     11  C   UNL     1      -1.989  -3.440   2.634  0.00  0.00    -0.028 A 
ATOM     12  C   UNL     1      -0.754  -3.977   2.244  0.00  0.00    +0.005 A 
ATOM     13  C   UNL     1      -3.122  -4.268   2.609  0.00  0.00    +0.005 A 
ATOM     14  C   UNL     1      -0.652  -5.317   1.863  0.00  0.00    +0.000 A 
ATOM     15  C   UNL     1      -3.016  -5.605   2.227  0.00  0.00    +0.000 A 
ATOM     16  C   UNL     1      -1.780  -6.130   1.857  0.00  0.00    +0.000 A 
ENDBRANCH  10  11
ENDBRANCH   1  10
TORSDOF 2
ENDMDL
