MODEL 1
REMARK VINA RESULT:    -5.061      0.000      0.000
REMARK INTER + INTRA:          -5.812
REMARK INTER:                  -5.653
REMARK INTRA:                  -0.160
REMARK UNBOUND:                -0.160
REMARK  Name = 1550473
REMARK  2 active torsions:
REMARK  status: ('A' for Active; 'I' for Inactive)
REMARK    1  A    between atoms: N_1  and  C_4
REMARK    2  A    between atoms: C_4  and  C_5
REMARK                            x       y       z     vdW  Elec       q    Type
REMARK                         _______ _______ _______ _____ _____    ______ ____
ROOT
ATOM      1  N   UNL     1       5.267  -5.244   0.597  0.00  0.00    -0.354 N 
ATOM      2  N   UNL     1       7.188  -4.573  -0.509  0.00  0.00    -0.372 N 
ATOM      3  N   UNL     1       7.332  -5.167   1.702  0.00  0.00    -0.372 N 
ATOM      4  C   UNL     1       6.584  -5.000   0.606  0.00  0.00    +0.166 C 
ATOM      5  H   UNL     1       4.751  -5.068  -0.258  0.00  0.00    +0.163 HD
ATOM      6  H   UNL     1       8.181  -4.384  -0.533  0.00  0.00    +0.159 HD
ATOM      7  H   UNL     1       6.678  -4.442  -1.375  0.00  0.00    +0.159 HD
ATOM      8  H   UNL     1       6.935  -5.481   2.578  0.00  0.00    +0.159 HD
ATOM      9  H   UNL     1       8.325  -4.972   1.701  0.00  0.00    +0.159 HD
ENDROOT
BRANCH   1  10
ATOM     10  C   UNL     1       4.523  -5.762   1.743  0.00  0.00    +0.151 C 
BRANCH  10  11
ATOM     11  C   UNL     1       4.252  -7.226   1.532  0.00  0.00    -0.028 A 
ATOM     12  C   UNL     1       4.161  -8.099   2.626  0.00  0.00    +0.005 A 
ATOM     13  C   UNL     1       4.079  -7.746   0.240  0.00  0.00    +0.005 A 
ATOM     14  C   UNL     1       3.879  -9.453   2.432  0.00  0.00    +0.000 A 
ATOM     15  C   UNL     1       3.799  -9.099   0.050  0.00  0.00    +0.000 A 
ATOM     16  C   UNL     1       3.697  -9.952   1.147  0.00  0.00    +0.000 A 
ENDBRANCH  10  11
ENDBRANCH   1  10
TORSDOF 2
ENDMDL
MODEL 2
REMARK VINA RESULT:    -4.846     26.991     28.305
REMARK INTER + INTRA:          -5.572
REMARK INTER:                  -5.451
REMARK INTRA:                  -0.121
REMARK UNBOUND:                -0.160
REMARK  Name = 1550473
REMARK  2 active torsions:
REMARK  status: ('A' for Active; 'I' for Inactive)
REMARK    1  A    between atoms: N_1  and  C_4
REMARK    2  A    between atoms: C_4  and  C_5
REMARK                            x       y       z     vdW  Elec       q    Type
REMARK                         _______ _______ _______ _____ _____    ______ ____
ROOT
ATOM      1  N   UNL     1      11.292 -15.027 -23.502  0.00  0.00    -0.354 N 
ATOM      2  N   UNL     1      12.390 -14.217 -21.631  0.00  0.00    -0.372 N 
ATOM      3  N   UNL     1      13.261 -16.034 -22.729  0.00  0.00    -0.372 N 
ATOM      4  C   UNL     1      12.309 -15.101 -22.634  0.00  0.00    +0.166 C 
ATOM      5  H   UNL     1      10.585 -14.315 -23.358  0.00  0.00    +0.163 HD
ATOM      6  H   UNL     1      13.148 -14.245 -20.963  0.00  0.00    +0.159 HD
ATOM      7  H   UNL     1      11.708 -13.477 -21.516  0.00  0.00    +0.159 HD
ATOM      8  H   UNL     1      13.254 -16.734 -23.459  0.00  0.00    +0.159 HD
ATOM      9  H   UNL     1      14.021 -16.086 -22.062  0.00  0.00    +0.159 HD
ENDROOT
BRANCH   1  10
ATOM     10  C   UNL     1      11.140 -15.907 -24.660  0.00  0.00    +0.151 C 
BRANCH  10  11
ATOM     11  C   UNL     1      10.673 -15.096 -25.836  0.00  0.00    -0.028 A 
ATOM     12  C   UNL     1      11.157 -15.366 -27.125  0.00  0.00    +0.005 A 
ATOM     13  C   UNL     1       9.742 -14.058 -25.670  0.00  0.00    +0.005 A 
ATOM     14  C   UNL     1      10.700 -14.632 -28.222  0.00  0.00    +0.000 A 
ATOM     15  C   UNL     1       9.290 -13.327 -26.769  0.00  0.00    +0.000 A 
ATOM     16  C   UNL     1       9.767 -13.616 -28.045  0.00  0.00    +0.000 A 
ENDBRANCH  10  11
ENDBRANCH   1  10
TORSDOF 2
ENDMDL
MODEL 3
REMARK VINA RESULT:    -4.819      3.096      4.159
REMARK INTER + INTRA:          -5.542
REMARK INTER:                  -5.419
REMARK INTRA:                  -0.123
REMARK UNBOUND:                -0.160
REMARK  Name = 1550473
REMARK  2 active torsions:
REMARK  status: ('A' for Active; 'I' for Inactive)
REMARK    1  A    between atoms: N_1  and  C_4
REMARK    2  A    between atoms: C_4  and  C_5
REMARK                            x       y       z     vdW  Elec       q    Type
REMARK                         _______ _______ _______ _____ _____    ______ ____
ROOT
ATOM      1  N   UNL     1       3.803  -7.564  -2.343  0.00  0.00    -0.354 N 
ATOM      2  N   UNL     1       3.626  -6.471  -4.377  0.00  0.00    -0.372 N 
ATOM      3  N   UNL     1       3.653  -8.765  -4.349  0.00  0.00    -0.372 N 
ATOM      4  C   UNL     1       3.695  -7.610  -3.677  0.00  0.00    +0.166 C 
ATOM      5  H   UNL     1       3.861  -6.656  -1.896  0.00  0.00    +0.163 HD
ATOM      6  H   UNL     1       3.541  -6.475  -5.385  0.00  0.00    +0.159 HD
ATOM      7  H   UNL     1       3.637  -5.566  -3.924  0.00  0.00    +0.159 HD
ATOM      8  H   UNL     1       3.707  -9.660  -3.880  0.00  0.00    +0.159 HD
ATOM      9  H   UNL     1       3.579  -8.789  -5.359  0.00  0.00    +0.159 HD
ENDROOT
BRANCH   1  10
ATOM     10  C   UNL     1       3.832  -8.746  -1.484  0.00  0.00    +0.151 C 
BRANCH  10  11
ATOM     11  C   UNL     1       3.952  -8.308  -0.050  0.00  0.00    -0.028 A 
ATOM     12  C   UNL     1       3.927  -9.252   0.987  0.00  0.00    +0.005 A 
ATOM     13  C   UNL     1       4.097  -6.951   0.278  0.00  0.00    +0.005 A 
ATOM     14  C   UNL     1       4.069  -8.849   2.317  0.00  0.00    +0.000 A 
ATOM     15  C   UNL     1       4.237  -6.553   1.607  0.00  0.00    +0.000 A 
ATOM     16  C   UNL     1       4.225  -7.502   2.626  0.00  0.00    +0.000 A 
ENDBRANCH  10  11
ENDBRANCH   1  10
TORSDOF 2
ENDMDL
MODEL 4
REMARK VINA RESULT:    -4.795      1.809      2.706
REMARK INTER + INTRA:          -5.515
REMARK INTER:                  -5.373
REMARK INTRA:                  -0.142
REMARK UNBOUND:                -0.160
REMARK  Name = 1550473
REMARK  2 active torsions:
REMARK  status: ('A' for Active; 'I' for Inactive)
REMARK    1  A    between atoms: N_1  and  C_4
REMARK    2  A    between atoms: C_4  and  C_5
REMARK                            x       y       z     vdW  Elec       q    Type
REMARK                         _______ _______ _______ _____ _____    ______ ____
ROOT
ATOM      1  N   UNL     1       3.640  -6.129   0.858  0.00  0.00    -0.354 N 
ATOM      2  N   UNL     1       3.032  -4.463   2.347  0.00  0.00    -0.372 N 
ATOM      3  N   UNL     1       5.182  -5.262   2.395  0.00  0.00    -0.372 N 
ATOM      4  C   UNL     1       3.958  -5.296   1.858  0.00  0.00    +0.166 C 
ATOM      5  H   UNL     1       2.686  -6.128   0.515  0.00  0.00    +0.163 HD
ATOM      6  H   UNL     1       3.243  -3.820   3.099  0.00  0.00    +0.159 HD
ATOM      7  H   UNL     1       2.092  -4.431   1.971  0.00  0.00    +0.159 HD
ATOM      8  H   UNL     1       5.924  -5.870   2.075  0.00  0.00    +0.159 HD
ATOM      9  H   UNL     1       5.410  -4.634   3.156  0.00  0.00    +0.159 HD
ENDROOT
BRANCH   1  10
ATOM     10  C   UNL     1       4.589  -7.038   0.218  0.00  0.00    +0.151 C 
BRANCH  10  11
ATOM     11  C   UNL     1       4.180  -8.457   0.504  0.00  0.00    -0.028 A 
ATOM     12  C   UNL     1       3.908  -9.345  -0.547  0.00  0.00    +0.005 A 
ATOM     13  C   UNL     1       4.067  -8.921   1.824  0.00  0.00    +0.005 A 
ATOM     14  C   UNL     1       3.557 -10.671  -0.283  0.00  0.00    +0.000 A 
ATOM     15  C   UNL     1       3.715 -10.245   2.083  0.00  0.00    +0.000 A 
ATOM     16  C   UNL     1       3.463 -11.121   1.030  0.00  0.00    +0.000 A 
ENDBRANCH  10  11
ENDBRANCH   1  10
TORSDOF 2
ENDMDL
MODEL 5
REMARK VINA RESULT:    -4.735     24.797     26.010
REMARK INTER + INTRA:          -5.449
REMARK INTER:                  -5.321
REMARK INTRA:                  -0.128
REMARK UNBOUND:                -0.160
REMARK  Name = 1550473
REMARK  2 active torsions:
REMARK  status: ('A' for Active; 'I' for Inactive)
REMARK    1  A    between atoms: N_1  and  C_4
REMARK    2  A    between atoms: C_4  and  C_5
REMARK                            x       y       z     vdW  Elec       q    Type
REMARK                         _______ _______ _______ _____ _____    ______ ____
ROOT
ATOM      1  N   UNL     1      11.558  16.669  12.635  0.00  0.00    -0.354 N 
ATOM      2  N   UNL     1      13.596  17.120  13.639  0.00  0.00    -0.372 N 
ATOM      3  N   UNL     1      11.938  16.144  14.887  0.00  0.00    -0.372 N 
ATOM      4  C   UNL     1      12.349  16.641  13.716  0.00  0.00    +0.166 C 
ATOM      5  H   UNL     1      11.920  17.087  11.785  0.00  0.00    +0.163 HD
ATOM      6  H   UNL     1      14.217  17.109  14.437  0.00  0.00    +0.159 HD
ATOM      7  H   UNL     1      13.970  17.495  12.775  0.00  0.00    +0.159 HD
ATOM      8  H   UNL     1      11.006  15.772  15.014  0.00  0.00    +0.159 HD
ATOM      9  H   UNL     1      12.541  16.134  15.701  0.00  0.00    +0.159 HD
ENDROOT
BRANCH   1  10
ATOM     10  C   UNL     1      10.203  16.123  12.600  0.00  0.00    +0.151 C 
BRANCH  10  11
ATOM     11  C   UNL     1       9.846  15.788  11.178  0.00  0.00    -0.028 A 
ATOM     12  C   UNL     1       8.583  15.263  10.866  0.00  0.00    +0.005 A 
ATOM     13  C   UNL     1      10.763  15.999  10.137  0.00  0.00    +0.005 A 
ATOM     14  C   UNL     1       8.240  14.979   9.541  0.00  0.00    +0.000 A 
ATOM     15  C   UNL     1      10.417  15.714   8.816  0.00  0.00    +0.000 A 
ATOM     16  C   UNL     1       9.155  15.206   8.519  0.00  0.00    +0.000 A 
ENDBRANCH  10  11
ENDBRANCH   1  10
TORSDOF 2
ENDMDL
MODEL 6
REMARK VINA RESULT:    -4.569     28.214     29.431
REMARK INTER + INTRA:          -5.262
REMARK INTER:                  -5.098
REMARK INTRA:                  -0.164
REMARK UNBOUND:                -0.160
REMARK  Name = 1550473
REMARK  2 active torsions:
REMARK  status: ('A' for Active; 'I' for Inactive)
REMARK    1  A    between atoms: N_1  and  C_4
REMARK    2  A    between atoms: C_4  and  C_5
REMARK                            x       y       z     vdW  Elec       q    Type
REMARK                         _______ _______ _______ _____ _____    ______ ____
ROOT
ATOM      1  N   UNL     1       9.996 -11.746 -27.137  0.00  0.00    -0.354 N 
ATOM      2  N   UNL     1      11.329 -10.006 -27.885  0.00  0.00    -0.372 N 
ATOM      3  N   UNL     1      10.925 -11.776 -29.288  0.00  0.00    -0.372 N 
ATOM      4  C   UNL     1      10.742 -11.189 -28.101  0.00  0.00    +0.166 C 
ATOM      5  H   UNL     1       9.921 -11.265 -26.248  0.00  0.00    +0.163 HD
ATOM      6  H   UNL     1      11.894  -9.560 -28.595  0.00  0.00    +0.159 HD
ATOM      7  H   UNL     1      11.214  -9.506 -27.013  0.00  0.00    +0.159 HD
ATOM      8  H   UNL     1      10.514 -12.673 -29.512  0.00  0.00    +0.159 HD
ATOM      9  H   UNL     1      11.497 -11.351 -30.007  0.00  0.00    +0.159 HD
ENDROOT
BRANCH   1  10
ATOM     10  C   UNL     1       9.270 -13.006 -27.290  0.00  0.00    +0.151 C 
BRANCH  10  11
ATOM     11  C   UNL     1      10.091 -14.120 -26.702  0.00  0.00    -0.028 A 
ATOM     12  C   UNL     1      10.069 -14.371 -25.323  0.00  0.00    +0.005 A 
ATOM     13  C   UNL     1      10.890 -14.934 -27.521  0.00  0.00    +0.005 A 
ATOM     14  C   UNL     1      10.808 -15.425 -24.780  0.00  0.00    +0.000 A 
ATOM     15  C   UNL     1      11.627 -15.984 -26.976  0.00  0.00    +0.000 A 
ATOM     16  C   UNL     1      11.584 -16.231 -25.606  0.00  0.00    +0.000 A 
ENDBRANCH  10  11
ENDBRANCH   1  10
TORSDOF 2
ENDMDL
MODEL 7
REMARK VINA RESULT:    -4.556     18.031     19.272
REMARK INTER + INTRA:          -5.248
REMARK INTER:                  -5.137
REMARK INTRA:                  -0.111
REMARK UNBOUND:                -0.160
REMARK  Name = 1550473
REMARK  2 active torsions:
REMARK  status: ('A' for Active; 'I' for Inactive)
REMARK    1  A    between atoms: N_1  and  C_4
REMARK    2  A    between atoms: C_4  and  C_5
REMARK                            x       y       z     vdW  Elec       q    Type
REMARK                         _______ _______ _______ _____ _____    ______ ____
ROOT
ATOM      1  N   UNL     1       2.747  -3.750  18.052  0.00  0.00    -0.354 N 
ATOM      2  N   UNL     1       3.002  -5.622  16.712  0.00  0.00    -0.372 N 
ATOM      3  N   UNL     1       1.656  -3.912  15.984  0.00  0.00    -0.372 N 
ATOM      4  C   UNL     1       2.465  -4.414  16.924  0.00  0.00    +0.166 C 
ATOM      5  H   UNL     1       3.343  -4.199  18.739  0.00  0.00    +0.163 HD
ATOM      6  H   UNL     1       2.810  -6.145  15.868  0.00  0.00    +0.159 HD
ATOM      7  H   UNL     1       3.634  -6.048  17.379  0.00  0.00    +0.159 HD
ATOM      8  H   UNL     1       1.214  -3.008  16.086  0.00  0.00    +0.159 HD
ATOM      9  H   UNL     1       1.443  -4.425  15.138  0.00  0.00    +0.159 HD
ENDROOT
BRANCH   1  10
ATOM     10  C   UNL     1       2.256  -2.407  18.355  0.00  0.00    +0.151 C 
BRANCH  10  11
ATOM     11  C   UNL     1       2.697  -2.023  19.741  0.00  0.00    -0.028 A 
ATOM     12  C   UNL     1       2.621  -2.947  20.793  0.00  0.00    +0.005 A 
ATOM     13  C   UNL     1       3.197  -0.739  20.006  0.00  0.00    +0.005 A 
ATOM     14  C   UNL     1       3.058  -2.601  22.074  0.00  0.00    +0.000 A 
ATOM     15  C   UNL     1       3.632  -0.398  21.287  0.00  0.00    +0.000 A 
ATOM     16  C   UNL     1       3.565  -1.329  22.320  0.00  0.00    +0.000 A 
ENDBRANCH  10  11
ENDBRANCH   1  10
TORSDOF 2
ENDMDL
MODEL 8
REMARK VINA RESULT:    -4.445     21.547     22.116
REMARK INTER + INTRA:          -5.125
REMARK INTER:                  -4.984
REMARK INTRA:                  -0.140
REMARK UNBOUND:                -0.160
REMARK  Name = 1550473
REMARK  2 active torsions:
REMARK  status: ('A' for Active; 'I' for Inactive)
REMARK    1  A    between atoms: N_1  and  C_4
REMARK    2  A    between atoms: C_4  and  C_5
REMARK                            x       y       z     vdW  Elec       q    Type
REMARK                         _______ _______ _______ _____ _____    ______ ____
ROOT
ATOM      1  N   UNL     1     -17.035  -0.915   1.826  0.00  0.00    -0.354 N 
ATOM      2  N   UNL     1     -17.054   1.200   0.881  0.00  0.00    -0.372 N 
ATOM      3  N   UNL     1     -15.482  -0.316   0.176  0.00  0.00    -0.372 N 
ATOM      4  C   UNL     1     -16.521  -0.025   0.966  0.00  0.00    +0.166 C 
ATOM      5  H   UNL     1     -17.803  -0.623   2.419  0.00  0.00    +0.163 HD
ATOM      6  H   UNL     1     -16.690   1.891   0.238  0.00  0.00    +0.159 HD
ATOM      7  H   UNL     1     -17.852   1.474   1.441  0.00  0.00    +0.159 HD
ATOM      8  H   UNL     1     -15.031  -1.221   0.196  0.00  0.00    +0.159 HD
ATOM      9  H   UNL     1     -15.096   0.366  -0.465  0.00  0.00    +0.159 HD
ENDROOT
BRANCH   1  10
ATOM     10  C   UNL     1     -16.562  -2.292   1.958  0.00  0.00    +0.151 C 
BRANCH  10  11
ATOM     11  C   UNL     1     -16.264  -2.572   3.405  0.00  0.00    -0.028 A 
ATOM     12  C   UNL     1     -16.566  -3.822   3.965  0.00  0.00    +0.005 A 
ATOM     13  C   UNL     1     -15.673  -1.594   4.220  0.00  0.00    +0.005 A 
ATOM     14  C   UNL     1     -16.261  -4.093   5.301  0.00  0.00    +0.000 A 
ATOM     15  C   UNL     1     -15.372  -1.869   5.554  0.00  0.00    +0.000 A 
ATOM     16  C   UNL     1     -15.663  -3.119   6.093  0.00  0.00    +0.000 A 
ENDBRANCH  10  11
ENDBRANCH   1  10
TORSDOF 2
ENDMDL
MODEL 9
REMARK VINA RESULT:    -4.316     12.962     14.054
REMARK INTER + INTRA:          -4.980
REMARK INTER:                  -4.853
REMARK INTRA:                  -0.126
REMARK UNBOUND:                -0.160
REMARK  Name = 1550473
REMARK  2 active torsions:
REMARK  status: ('A' for Active; 'I' for Inactive)
REMARK    1  A    between atoms: N_1  and  C_4
REMARK    2  A    between atoms: C_4  and  C_5
REMARK                            x       y       z     vdW  Elec       q    Type
REMARK                         _______ _______ _______ _____ _____    ______ ____
ROOT
ATOM      1  N   UNL     1       1.226  -5.786 -10.293  0.00  0.00    -0.354 N 
ATOM      2  N   UNL     1       2.587  -5.390  -8.460  0.00  0.00    -0.372 N 
ATOM      3  N   UNL     1       0.526  -4.385  -8.550  0.00  0.00    -0.372 N 
ATOM      4  C   UNL     1       1.435  -5.188  -9.112  0.00  0.00    +0.166 C 
ATOM      5  H   UNL     1       1.967  -6.359 -10.680  0.00  0.00    +0.163 HD
ATOM      6  H   UNL     1       2.771  -4.955  -7.567  0.00  0.00    +0.159 HD
ATOM      7  H   UNL     1       3.307  -6.000  -8.828  0.00  0.00    +0.159 HD
ATOM      8  H   UNL     1      -0.361  -4.187  -8.994  0.00  0.00    +0.159 HD
ATOM      9  H   UNL     1       0.697  -3.931  -7.661  0.00  0.00    +0.159 HD
ENDROOT
BRANCH   1  10
ATOM     10  C   UNL     1      -0.014  -5.675 -11.058  0.00  0.00    +0.151 C 
BRANCH  10  11
ATOM     11  C   UNL     1       0.253  -6.060 -12.486  0.00  0.00    -0.028 A 
ATOM     12  C   UNL     1       1.525  -6.503 -12.878  0.00  0.00    +0.005 A 
ATOM     13  C   UNL     1      -0.762  -5.990 -13.452  0.00  0.00    +0.005 A 
ATOM     14  C   UNL     1       1.766  -6.889 -14.199  0.00  0.00    +0.000 A 
ATOM     15  C   UNL     1      -0.517  -6.376 -14.770  0.00  0.00    +0.000 A 
ATOM     16  C   UNL     1       0.746  -6.828 -15.142  0.00  0.00    +0.000 A 
ENDBRANCH  10  11
ENDBRANCH   1  10
TORSDOF 2
ENDMDL
