MODEL 1
REMARK VINA RESULT:    -6.210      0.000      0.000
REMARK INTER + INTRA:          -7.092
REMARK INTER:                  -6.936
REMARK INTRA:                  -0.156
REMARK UNBOUND:                -0.156
REMARK  Name = 1550473
REMARK  2 active torsions:
REMARK  status: ('A' for Active; 'I' for Inactive)
REMARK    1  A    between atoms: N_1  and  C_4
REMARK    2  A    between atoms: C_4  and  C_5
REMARK                            x       y       z     vdW  Elec       q    Type
REMARK                         _______ _______ _______ _____ _____    ______ ____
ROOT
ATOM      1  N   UNL     1       3.568  -0.610   4.058  0.00  0.00    -0.354 N 
ATOM      2  N   UNL     1       5.734   0.196   4.216  0.00  0.00    -0.372 N 
ATOM      3  N   UNL     1       4.231   0.722   5.868  0.00  0.00    -0.372 N 
ATOM      4  C   UNL     1       4.496   0.099   4.715  0.00  0.00    +0.166 C 
ATOM      5  H   UNL     1       3.824  -1.034   3.174  0.00  0.00    +0.163 HD
ATOM      6  H   UNL     1       6.455   0.721   4.691  0.00  0.00    +0.159 HD
ATOM      7  H   UNL     1       5.999  -0.266   3.355  0.00  0.00    +0.159 HD
ATOM      8  H   UNL     1       3.315   0.693   6.295  0.00  0.00    +0.159 HD
ATOM      9  H   UNL     1       4.937   1.263   6.353  0.00  0.00    +0.159 HD
ENDROOT
BRANCH   1  10
ATOM     10  C   UNL     1       2.206  -0.823   4.544  0.00  0.00    +0.151 C 
BRANCH  10  11
ATOM     11  C   UNL     1       1.264   0.050   3.761  0.00  0.00    -0.028 A 
ATOM     12  C   UNL     1       0.061   0.490   4.332  0.00  0.00    +0.005 A 
ATOM     13  C   UNL     1       1.571   0.444   2.450  0.00  0.00    +0.005 A 
ATOM     14  C   UNL     1      -0.801   1.325   3.617  0.00  0.00    +0.000 A 
ATOM     15  C   UNL     1       0.708   1.277   1.738  0.00  0.00    +0.000 A 
ATOM     16  C   UNL     1      -0.477   1.720   2.323  0.00  0.00    +0.000 A 
ENDBRANCH  10  11
ENDBRANCH   1  10
TORSDOF 2
ENDMDL
MODEL 2
REMARK VINA RESULT:    -5.908      1.986      2.916
REMARK INTER + INTRA:          -6.755
REMARK INTER:                  -6.614
REMARK INTRA:                  -0.142
REMARK UNBOUND:                -0.156
REMARK  Name = 1550473
REMARK  2 active torsions:
REMARK  status: ('A' for Active; 'I' for Inactive)
REMARK    1  A    between atoms: N_1  and  C_4
REMARK    2  A    between atoms: C_4  and  C_5
REMARK                            x       y       z     vdW  Elec       q    Type
REMARK                         _______ _______ _______ _____ _____    ______ ____
ROOT
ATOM      1  N   UNL     1       3.257  -0.911   2.159  0.00  0.00    -0.354 N 
ATOM      2  N   UNL     1       4.012  -2.383   0.539  0.00  0.00    -0.372 N 
ATOM      3  N   UNL     1       3.374  -3.213   2.580  0.00  0.00    -0.372 N 
ATOM      4  C   UNL     1       3.542  -2.161   1.772  0.00  0.00    +0.166 C 
ATOM      5  H   UNL     1       3.436  -0.153   1.510  0.00  0.00    +0.163 HD
ATOM      6  H   UNL     1       4.233  -3.316   0.217  0.00  0.00    +0.159 HD
ATOM      7  H   UNL     1       4.147  -1.629  -0.124  0.00  0.00    +0.159 HD
ATOM      8  H   UNL     1       3.028  -3.113   3.525  0.00  0.00    +0.159 HD
ATOM      9  H   UNL     1       3.600  -4.153   2.281  0.00  0.00    +0.159 HD
ENDROOT
BRANCH   1  10
ATOM     10  C   UNL     1       2.690  -0.567   3.462  0.00  0.00    +0.151 C 
BRANCH  10  11
ATOM     11  C   UNL     1       1.448   0.254   3.256  0.00  0.00    -0.028 A 
ATOM     12  C   UNL     1       1.256   0.969   2.064  0.00  0.00    +0.005 A 
ATOM     13  C   UNL     1       0.456   0.318   4.247  0.00  0.00    +0.005 A 
ATOM     14  C   UNL     1       0.088   1.708   1.860  0.00  0.00    +0.000 A 
ATOM     15  C   UNL     1      -0.708   1.059   4.040  0.00  0.00    +0.000 A 
ATOM     16  C   UNL     1      -0.893   1.751   2.845  0.00  0.00    +0.000 A 
ENDBRANCH  10  11
ENDBRANCH   1  10
TORSDOF 2
ENDMDL
MODEL 3
REMARK VINA RESULT:    -5.696      1.029      1.751
REMARK INTER + INTRA:          -6.518
REMARK INTER:                  -6.373
REMARK INTRA:                  -0.144
REMARK UNBOUND:                -0.156
REMARK  Name = 1550473
REMARK  2 active torsions:
REMARK  status: ('A' for Active; 'I' for Inactive)
REMARK    1  A    between atoms: N_1  and  C_4
REMARK    2  A    between atoms: C_4  and  C_5
REMARK                            x       y       z     vdW  Elec       q    Type
REMARK                         _______ _______ _______ _____ _____    ______ ____
ROOT
ATOM      1  N   UNL     1       3.854   0.577   3.118  0.00  0.00    -0.354 N 
ATOM      2  N   UNL     1       5.669   0.187   4.503  0.00  0.00    -0.372 N 
ATOM      3  N   UNL     1       4.791  -1.563   3.305  0.00  0.00    -0.372 N 
ATOM      4  C   UNL     1       4.759  -0.267   3.632  0.00  0.00    +0.166 C 
ATOM      5  H   UNL     1       3.863   1.541   3.429  0.00  0.00    +0.163 HD
ATOM      6  H   UNL     1       6.366  -0.425   4.905  0.00  0.00    +0.159 HD
ATOM      7  H   UNL     1       5.705   1.161   4.777  0.00  0.00    +0.159 HD
ATOM      8  H   UNL     1       4.128  -1.969   2.659  0.00  0.00    +0.159 HD
ATOM      9  H   UNL     1       5.474  -2.194   3.706  0.00  0.00    +0.159 HD
ENDROOT
BRANCH   1  10
ATOM     10  C   UNL     1       2.854   0.196   2.122  0.00  0.00    +0.151 C 
BRANCH  10  11
ATOM     11  C   UNL     1       1.497   0.642   2.592  0.00  0.00    -0.028 A 
ATOM     12  C   UNL     1       0.976   0.177   3.808  0.00  0.00    +0.005 A 
ATOM     13  C   UNL     1       0.729   1.535   1.829  0.00  0.00    +0.005 A 
ATOM     14  C   UNL     1      -0.271   0.614   4.260  0.00  0.00    +0.000 A 
ATOM     15  C   UNL     1      -0.516   1.969   2.283  0.00  0.00    +0.000 A 
ATOM     16  C   UNL     1      -1.015   1.510   3.499  0.00  0.00    +0.000 A 
ENDBRANCH  10  11
ENDBRANCH   1  10
TORSDOF 2
ENDMDL
MODEL 4
REMARK VINA RESULT:    -5.681      2.264      2.799
REMARK INTER + INTRA:          -6.501
REMARK INTER:                  -6.335
REMARK INTRA:                  -0.166
REMARK UNBOUND:                -0.156
REMARK  Name = 1550473
REMARK  2 active torsions:
REMARK  status: ('A' for Active; 'I' for Inactive)
REMARK    1  A    between atoms: N_1  and  C_4
REMARK    2  A    between atoms: C_4  and  C_5
REMARK                            x       y       z     vdW  Elec       q    Type
REMARK                         _______ _______ _______ _____ _____    ______ ____
ROOT
ATOM      1  N   UNL     1       2.885  -2.499   3.519  0.00  0.00    -0.354 N 
ATOM      2  N   UNL     1       5.055  -2.127   2.801  0.00  0.00    -0.372 N 
ATOM      3  N   UNL     1       3.498  -2.869   1.287  0.00  0.00    -0.372 N 
ATOM      4  C   UNL     1       3.797  -2.502   2.538  0.00  0.00    +0.166 C 
ATOM      5  H   UNL     1       3.182  -2.239   4.452  0.00  0.00    +0.163 HD
ATOM      6  H   UNL     1       5.764  -2.116   2.080  0.00  0.00    +0.159 HD
ATOM      7  H   UNL     1       5.338  -1.824   3.724  0.00  0.00    +0.159 HD
ATOM      8  H   UNL     1       2.568  -3.169   1.025  0.00  0.00    +0.159 HD
ATOM      9  H   UNL     1       4.197  -2.876   0.555  0.00  0.00    +0.159 HD
ENDROOT
BRANCH   1  10
ATOM     10  C   UNL     1       1.476  -2.839   3.326  0.00  0.00    +0.151 C 
BRANCH  10  11
ATOM     11  C   UNL     1       0.662  -1.574   3.319  0.00  0.00    -0.028 A 
ATOM     12  C   UNL     1       0.911  -0.562   4.259  0.00  0.00    +0.005 A 
ATOM     13  C   UNL     1      -0.355  -1.378   2.372  0.00  0.00    +0.005 A 
ATOM     14  C   UNL     1       0.176   0.625   4.234  0.00  0.00    +0.000 A 
ATOM     15  C   UNL     1      -1.087  -0.191   2.352  0.00  0.00    +0.000 A 
ATOM     16  C   UNL     1      -0.820   0.811   3.281  0.00  0.00    +0.000 A 
ENDBRANCH  10  11
ENDBRANCH   1  10
TORSDOF 2
ENDMDL
MODEL 5
REMARK VINA RESULT:    -5.628      2.428      5.068
REMARK INTER + INTRA:          -6.442
REMARK INTER:                  -6.323
REMARK INTRA:                  -0.118
REMARK UNBOUND:                -0.156
REMARK  Name = 1550473
REMARK  2 active torsions:
REMARK  status: ('A' for Active; 'I' for Inactive)
REMARK    1  A    between atoms: N_1  and  C_4
REMARK    2  A    between atoms: C_4  and  C_5
REMARK                            x       y       z     vdW  Elec       q    Type
REMARK                         _______ _______ _______ _____ _____    ______ ____
ROOT
ATOM      1  N   UNL     1       2.298  -0.060   2.854  0.00  0.00    -0.354 N 
ATOM      2  N   UNL     1       1.011   1.831   3.214  0.00  0.00    -0.372 N 
ATOM      3  N   UNL     1       0.694   0.001   4.561  0.00  0.00    -0.372 N 
ATOM      4  C   UNL     1       1.342   0.577   3.542  0.00  0.00    +0.166 C 
ATOM      5  H   UNL     1       2.731   0.420   2.073  0.00  0.00    +0.163 HD
ATOM      6  H   UNL     1       0.296   2.338   3.717  0.00  0.00    +0.159 HD
ATOM      7  H   UNL     1       1.477   2.326   2.463  0.00  0.00    +0.159 HD
ATOM      8  H   UNL     1       0.892  -0.946   4.855  0.00  0.00    +0.159 HD
ATOM      9  H   UNL     1      -0.033   0.488   5.070  0.00  0.00    +0.159 HD
ENDROOT
BRANCH   1  10
ATOM     10  C   UNL     1       2.770  -1.408   3.165  0.00  0.00    +0.151 C 
BRANCH  10  11
ATOM     11  C   UNL     1       4.242  -1.356   3.469  0.00  0.00    -0.028 A 
ATOM     12  C   UNL     1       4.823  -0.185   3.978  0.00  0.00    +0.005 A 
ATOM     13  C   UNL     1       5.061  -2.475   3.255  0.00  0.00    +0.005 A 
ATOM     14  C   UNL     1       6.184  -0.145   4.288  0.00  0.00    +0.000 A 
ATOM     15  C   UNL     1       6.420  -2.431   3.565  0.00  0.00    +0.000 A 
ATOM     16  C   UNL     1       6.981  -1.267   4.084  0.00  0.00    +0.000 A 
ENDBRANCH  10  11
ENDBRANCH   1  10
TORSDOF 2
ENDMDL
MODEL 6
REMARK VINA RESULT:    -5.620      2.357      3.279
REMARK INTER + INTRA:          -6.434
REMARK INTER:                  -6.294
REMARK INTRA:                  -0.140
REMARK UNBOUND:                -0.156
REMARK  Name = 1550473
REMARK  2 active torsions:
REMARK  status: ('A' for Active; 'I' for Inactive)
REMARK    1  A    between atoms: N_1  and  C_4
REMARK    2  A    between atoms: C_4  and  C_5
REMARK                            x       y       z     vdW  Elec       q    Type
REMARK                         _______ _______ _______ _____ _____    ______ ____
ROOT
ATOM      1  N   UNL     1       3.179  -0.867   1.609  0.00  0.00    -0.354 N 
ATOM      2  N   UNL     1       3.693  -2.446  -0.005  0.00  0.00    -0.372 N 
ATOM      3  N   UNL     1       3.865  -0.221  -0.537  0.00  0.00    -0.372 N 
ATOM      4  C   UNL     1       3.576  -1.165   0.365  0.00  0.00    +0.166 C 
ATOM      5  H   UNL     1       2.946  -1.629   2.235  0.00  0.00    +0.163 HD
ATOM      6  H   UNL     1       3.993  -2.702  -0.937  0.00  0.00    +0.159 HD
ATOM      7  H   UNL     1       3.503  -3.206   0.637  0.00  0.00    +0.159 HD
ATOM      8  H   UNL     1       3.792   0.765  -0.322  0.00  0.00    +0.159 HD
ATOM      9  H   UNL     1       4.156  -0.457  -1.477  0.00  0.00    +0.159 HD
ENDROOT
BRANCH   1  10
ATOM     10  C   UNL     1       3.072   0.495   2.128  0.00  0.00    +0.151 C 
BRANCH  10  11
ATOM     11  C   UNL     1       1.667   0.728   2.610  0.00  0.00    -0.028 A 
ATOM     12  C   UNL     1       1.279   0.324   3.896  0.00  0.00    +0.005 A 
ATOM     13  C   UNL     1       0.720   1.357   1.787  0.00  0.00    +0.005 A 
ATOM     14  C   UNL     1      -0.018   0.567   4.355  0.00  0.00    +0.000 A 
ATOM     15  C   UNL     1      -0.575   1.597   2.249  0.00  0.00    +0.000 A 
ATOM     16  C   UNL     1      -0.942   1.204   3.534  0.00  0.00    +0.000 A 
ENDBRANCH  10  11
ENDBRANCH   1  10
TORSDOF 2
ENDMDL
MODEL 7
REMARK VINA RESULT:    -5.530      3.803      5.307
REMARK INTER + INTRA:          -6.332
REMARK INTER:                  -6.411
REMARK INTRA:                   0.079
REMARK UNBOUND:                -0.156
REMARK  Name = 1550473
REMARK  2 active torsions:
REMARK  status: ('A' for Active; 'I' for Inactive)
REMARK    1  A    between atoms: N_1  and  C_4
REMARK    2  A    between atoms: C_4  and  C_5
REMARK                            x       y       z     vdW  Elec       q    Type
REMARK                         _______ _______ _______ _____ _____    ______ ____
ROOT
ATOM      1  N   UNL     1       2.568  -2.981   2.683  0.00  0.00    -0.354 N 
ATOM      2  N   UNL     1       0.380  -2.248   2.883  0.00  0.00    -0.372 N 
ATOM      3  N   UNL     1       1.462  -3.034   4.748  0.00  0.00    -0.372 N 
ATOM      4  C   UNL     1       1.484  -2.760   3.440  0.00  0.00    +0.166 C 
ATOM      5  H   UNL     1       2.511  -2.780   1.691  0.00  0.00    +0.163 HD
ATOM      6  H   UNL     1      -0.452  -2.068   3.430  0.00  0.00    +0.159 HD
ATOM      7  H   UNL     1       0.341  -2.006   1.901  0.00  0.00    +0.159 HD
ATOM      8  H   UNL     1       2.261  -3.427   5.227  0.00  0.00    +0.159 HD
ATOM      9  H   UNL     1       0.635  -2.871   5.310  0.00  0.00    +0.159 HD
ENDROOT
BRANCH   1  10
ATOM     10  C   UNL     1       3.838  -3.484   3.202  0.00  0.00    +0.151 C 
BRANCH  10  11
ATOM     11  C   UNL     1       4.754  -2.322   3.471  0.00  0.00    -0.028 A 
ATOM     12  C   UNL     1       4.242  -1.021   3.574  0.00  0.00    +0.005 A 
ATOM     13  C   UNL     1       6.135  -2.517   3.628  0.00  0.00    +0.005 A 
ATOM     14  C   UNL     1       5.089   0.055   3.854  0.00  0.00    +0.000 A 
ATOM     15  C   UNL     1       6.977  -1.440   3.907  0.00  0.00    +0.000 A 
ATOM     16  C   UNL     1       6.453  -0.155   4.022  0.00  0.00    +0.000 A 
ENDBRANCH  10  11
ENDBRANCH   1  10
TORSDOF 2
ENDMDL
MODEL 8
REMARK VINA RESULT:    -5.399      3.616      5.488
REMARK INTER + INTRA:          -6.186
REMARK INTER:                  -6.026
REMARK INTRA:                  -0.160
REMARK UNBOUND:                -0.156
REMARK  Name = 1550473
REMARK  2 active torsions:
REMARK  status: ('A' for Active; 'I' for Inactive)
REMARK    1  A    between atoms: N_1  and  C_4
REMARK    2  A    between atoms: C_4  and  C_5
REMARK                            x       y       z     vdW  Elec       q    Type
REMARK                         _______ _______ _______ _____ _____    ______ ____
ROOT
ATOM      1  N   UNL     1       2.406  -2.661   2.269  0.00  0.00    -0.354 N 
ATOM      2  N   UNL     1       1.532  -2.300   0.155  0.00  0.00    -0.372 N 
ATOM      3  N   UNL     1       1.053  -0.800   1.824  0.00  0.00    -0.372 N 
ATOM      4  C   UNL     1       1.668  -1.920   1.431  0.00  0.00    +0.166 C 
ATOM      5  H   UNL     1       2.821  -3.516   1.918  0.00  0.00    +0.163 HD
ATOM      6  H   UNL     1       0.984  -1.760  -0.501  0.00  0.00    +0.159 HD
ATOM      7  H   UNL     1       1.986  -3.131  -0.205  0.00  0.00    +0.159 HD
ATOM      8  H   UNL     1       1.112  -0.462   2.775  0.00  0.00    +0.159 HD
ATOM      9  H   UNL     1       0.491  -0.251   1.185  0.00  0.00    +0.159 HD
ENDROOT
BRANCH   1  10
ATOM     10  C   UNL     1       2.661  -2.307   3.665  0.00  0.00    +0.151 C 
BRANCH  10  11
ATOM     11  C   UNL     1       4.099  -1.891   3.810  0.00  0.00    -0.028 A 
ATOM     12  C   UNL     1       5.132  -2.734   3.373  0.00  0.00    +0.005 A 
ATOM     13  C   UNL     1       4.435  -0.654   4.380  0.00  0.00    +0.005 A 
ATOM     14  C   UNL     1       6.466  -2.335   3.480  0.00  0.00    +0.000 A 
ATOM     15  C   UNL     1       5.769  -0.260   4.487  0.00  0.00    +0.000 A 
ATOM     16  C   UNL     1       6.784  -1.100   4.035  0.00  0.00    +0.000 A 
ENDBRANCH  10  11
ENDBRANCH   1  10
TORSDOF 2
ENDMDL
MODEL 9
REMARK VINA RESULT:    -5.001      9.592     10.626
REMARK INTER + INTRA:          -5.742
REMARK INTER:                  -5.645
REMARK INTRA:                  -0.098
REMARK UNBOUND:                -0.156
REMARK  Name = 1550473
REMARK  2 active torsions:
REMARK  status: ('A' for Active; 'I' for Inactive)
REMARK    1  A    between atoms: N_1  and  C_4
REMARK    2  A    between atoms: C_4  and  C_5
REMARK                            x       y       z     vdW  Elec       q    Type
REMARK                         _______ _______ _______ _____ _____    ______ ____
ROOT
ATOM      1  N   UNL     1      -5.603  -6.606   8.320  0.00  0.00    -0.354 N 
ATOM      2  N   UNL     1      -6.879  -8.091   9.556  0.00  0.00    -0.372 N 
ATOM      3  N   UNL     1      -5.652  -6.498  10.660  0.00  0.00    -0.372 N 
ATOM      4  C   UNL     1      -6.035  -7.054   9.506  0.00  0.00    +0.166 C 
ATOM      5  H   UNL     1      -5.907  -7.090   7.483  0.00  0.00    +0.163 HD
ATOM      6  H   UNL     1      -7.225  -8.449  10.436  0.00  0.00    +0.159 HD
ATOM      7  H   UNL     1      -7.218  -8.544   8.716  0.00  0.00    +0.159 HD
ATOM      8  H   UNL     1      -5.012  -5.715  10.692  0.00  0.00    +0.159 HD
ATOM      9  H   UNL     1      -5.978  -6.849  11.552  0.00  0.00    +0.159 HD
ENDROOT
BRANCH   1  10
ATOM     10  C   UNL     1      -4.725  -5.449   8.153  0.00  0.00    +0.151 C 
BRANCH  10  11
ATOM     11  C   UNL     1      -4.957  -4.848   6.795  0.00  0.00    -0.028 A 
ATOM     12  C   UNL     1      -4.257  -5.325   5.676  0.00  0.00    +0.005 A 
ATOM     13  C   UNL     1      -5.879  -3.805   6.618  0.00  0.00    +0.005 A 
ATOM     14  C   UNL     1      -4.495  -4.787   4.409  0.00  0.00    +0.000 A 
ATOM     15  C   UNL     1      -6.112  -3.270   5.351  0.00  0.00    +0.000 A 
ATOM     16  C   UNL     1      -5.422  -3.763   4.246  0.00  0.00    +0.000 A 
ENDBRANCH  10  11
ENDBRANCH   1  10
TORSDOF 2
ENDMDL
