MODEL 1
REMARK VINA RESULT:    -6.335      0.000      0.000
REMARK INTER + INTRA:          -7.223
REMARK INTER:                  -7.076
REMARK INTRA:                  -0.147
REMARK UNBOUND:                -0.147
REMARK  Name = 1550473
REMARK  2 active torsions:
REMARK  status: ('A' for Active; 'I' for Inactive)
REMARK    1  A    between atoms: N_1  and  C_4
REMARK    2  A    between atoms: C_4  and  C_5
REMARK                            x       y       z     vdW  Elec       q    Type
REMARK                         _______ _______ _______ _____ _____    ______ ____
ROOT
ATOM      1  N   UNL     1     -10.058  -8.613 -16.139  0.00  0.00    -0.354 N 
ATOM      2  N   UNL     1     -11.462  -7.377 -14.774  0.00  0.00    -0.372 N 
ATOM      3  N   UNL     1     -11.895  -7.459 -17.026  0.00  0.00    -0.372 N 
ATOM      4  C   UNL     1     -11.130  -7.824 -15.991  0.00  0.00    +0.166 C 
ATOM      5  H   UNL     1      -9.501  -8.828 -15.320  0.00  0.00    +0.163 HD
ATOM      6  H   UNL     1     -12.268  -6.783 -14.630  0.00  0.00    +0.159 HD
ATOM      7  H   UNL     1     -10.931  -7.632 -13.950  0.00  0.00    +0.159 HD
ATOM      8  H   UNL     1     -11.695  -7.758 -17.971  0.00  0.00    +0.159 HD
ATOM      9  H   UNL     1     -12.699  -6.856 -16.904  0.00  0.00    +0.159 HD
ENDROOT
BRANCH   1  10
ATOM     10  C   UNL     1      -9.642  -9.196 -17.414  0.00  0.00    +0.151 C 
BRANCH  10  11
ATOM     11  C   UNL     1      -8.204  -8.838 -17.672  0.00  0.00    -0.028 A 
ATOM     12  C   UNL     1      -7.781  -7.502 -17.611  0.00  0.00    +0.005 A 
ATOM     13  C   UNL     1      -7.259  -9.831 -17.971  0.00  0.00    +0.005 A 
ATOM     14  C   UNL     1      -6.440  -7.173 -17.821  0.00  0.00    +0.000 A 
ATOM     15  C   UNL     1      -5.921  -9.498 -18.181  0.00  0.00    +0.000 A 
ATOM     16  C   UNL     1      -5.511  -8.169 -18.104  0.00  0.00    +0.000 A 
ENDBRANCH  10  11
ENDBRANCH   1  10
TORSDOF 2
ENDMDL
MODEL 2
REMARK VINA RESULT:    -6.217      9.831     11.055
REMARK INTER + INTRA:          -7.091
REMARK INTER:                  -6.931
REMARK INTRA:                  -0.159
REMARK UNBOUND:                -0.147
REMARK  Name = 1550473
REMARK  2 active torsions:
REMARK  status: ('A' for Active; 'I' for Inactive)
REMARK    1  A    between atoms: N_1  and  C_4
REMARK    2  A    between atoms: C_4  and  C_5
REMARK                            x       y       z     vdW  Elec       q    Type
REMARK                         _______ _______ _______ _____ _____    ______ ____
ROOT
ATOM      1  N   UNL     1      -4.531   1.670 -18.483  0.00  0.00    -0.354 N 
ATOM      2  N   UNL     1      -3.490   3.730 -18.679  0.00  0.00    -0.372 N 
ATOM      3  N   UNL     1      -4.708   3.279 -16.787  0.00  0.00    -0.372 N 
ATOM      4  C   UNL     1      -4.251   2.880 -17.979  0.00  0.00    +0.166 C 
ATOM      5  H   UNL     1      -4.180   1.440 -19.405  0.00  0.00    +0.163 HD
ATOM      6  H   UNL     1      -3.260   4.648 -18.323  0.00  0.00    +0.159 HD
ATOM      7  H   UNL     1      -3.102   3.480 -19.580  0.00  0.00    +0.159 HD
ATOM      8  H   UNL     1      -5.293   2.686 -16.212  0.00  0.00    +0.159 HD
ATOM      9  H   UNL     1      -4.498   4.198 -16.419  0.00  0.00    +0.159 HD
ENDROOT
BRANCH   1  10
ATOM     10  C   UNL     1      -5.306   0.651 -17.778  0.00  0.00    +0.151 C 
BRANCH  10  11
ATOM     11  C   UNL     1      -6.702   0.621 -18.337  0.00  0.00    -0.028 A 
ATOM     12  C   UNL     1      -7.049  -0.302 -19.335  0.00  0.00    +0.005 A 
ATOM     13  C   UNL     1      -7.683   1.508 -17.869  0.00  0.00    +0.005 A 
ATOM     14  C   UNL     1      -8.354  -0.350 -19.833  0.00  0.00    +0.000 A 
ATOM     15  C   UNL     1      -8.983   1.458 -18.369  0.00  0.00    +0.000 A 
ATOM     16  C   UNL     1      -9.319   0.527 -19.349  0.00  0.00    +0.000 A 
ENDBRANCH  10  11
ENDBRANCH   1  10
TORSDOF 2
ENDMDL
MODEL 3
REMARK VINA RESULT:    -5.886      3.483      4.678
REMARK INTER + INTRA:          -6.721
REMARK INTER:                  -6.594
REMARK INTRA:                  -0.127
REMARK UNBOUND:                -0.147
REMARK  Name = 1550473
REMARK  2 active torsions:
REMARK  status: ('A' for Active; 'I' for Inactive)
REMARK    1  A    between atoms: N_1  and  C_4
REMARK    2  A    between atoms: C_4  and  C_5
REMARK                            x       y       z     vdW  Elec       q    Type
REMARK                         _______ _______ _______ _____ _____    ______ ____
ROOT
ATOM      1  N   UNL     1      -8.725 -12.038 -19.070  0.00  0.00    -0.354 N 
ATOM      2  N   UNL     1     -10.179 -13.166 -20.475  0.00  0.00    -0.372 N 
ATOM      3  N   UNL     1      -7.920 -13.455 -20.754  0.00  0.00    -0.372 N 
ATOM      4  C   UNL     1      -8.929 -12.880 -20.092  0.00  0.00    +0.166 C 
ATOM      5  H   UNL     1      -9.531 -11.611 -18.629  0.00  0.00    +0.163 HD
ATOM      6  H   UNL     1     -10.365 -13.800 -21.241  0.00  0.00    +0.159 HD
ATOM      7  H   UNL     1     -10.985 -12.774 -20.003  0.00  0.00    +0.159 HD
ATOM      8  H   UNL     1      -6.953 -13.276 -20.518  0.00  0.00    +0.159 HD
ATOM      9  H   UNL     1      -8.085 -14.083 -21.530  0.00  0.00    +0.159 HD
ENDROOT
BRANCH   1  10
ATOM     10  C   UNL     1      -7.405 -11.702 -18.539  0.00  0.00    +0.151 C 
BRANCH  10  11
ATOM     11  C   UNL     1      -7.366 -10.235 -18.210  0.00  0.00    -0.028 A 
ATOM     12  C   UNL     1      -6.165  -9.516 -18.299  0.00  0.00    +0.005 A 
ATOM     13  C   UNL     1      -8.529  -9.556 -17.814  0.00  0.00    +0.005 A 
ATOM     14  C   UNL     1      -6.135  -8.147 -18.023  0.00  0.00    +0.000 A 
ATOM     15  C   UNL     1      -8.495  -8.190 -17.538  0.00  0.00    +0.000 A 
ATOM     16  C   UNL     1      -7.298  -7.485 -17.645  0.00  0.00    +0.000 A 
ENDBRANCH  10  11
ENDBRANCH   1  10
TORSDOF 2
ENDMDL
MODEL 4
REMARK VINA RESULT:    -5.869      4.193      5.157
REMARK INTER + INTRA:          -6.703
REMARK INTER:                  -6.586
REMARK INTRA:                  -0.117
REMARK UNBOUND:                -0.147
REMARK  Name = 1550473
REMARK  2 active torsions:
REMARK  status: ('A' for Active; 'I' for Inactive)
REMARK    1  A    between atoms: N_1  and  C_4
REMARK    2  A    between atoms: C_4  and  C_5
REMARK                            x       y       z     vdW  Elec       q    Type
REMARK                         _______ _______ _______ _____ _____    ______ ____
ROOT
ATOM      1  N   UNL     1      -8.019 -13.059 -18.390  0.00  0.00    -0.354 N 
ATOM      2  N   UNL     1      -9.970 -13.394 -19.592  0.00  0.00    -0.372 N 
ATOM      3  N   UNL     1      -7.962 -13.929 -20.565  0.00  0.00    -0.372 N 
ATOM      4  C   UNL     1      -8.635 -13.459 -19.510  0.00  0.00    +0.166 C 
ATOM      5  H   UNL     1      -8.584 -12.685 -17.637  0.00  0.00    +0.163 HD
ATOM      6  H   UNL     1     -10.463 -13.692 -20.423  0.00  0.00    +0.159 HD
ATOM      7  H   UNL     1     -10.535 -13.062 -18.820  0.00  0.00    +0.159 HD
ATOM      8  H   UNL     1      -6.953 -13.998 -20.569  0.00  0.00    +0.159 HD
ATOM      9  H   UNL     1      -8.437 -14.221 -21.410  0.00  0.00    +0.159 HD
ENDROOT
BRANCH   1  10
ATOM     10  C   UNL     1      -6.574 -13.139 -18.178  0.00  0.00    +0.151 C 
BRANCH  10  11
ATOM     11  C   UNL     1      -6.029 -11.752 -17.983  0.00  0.00    -0.028 A 
ATOM     12  C   UNL     1      -4.790 -11.556 -17.356  0.00  0.00    +0.005 A 
ATOM     13  C   UNL     1      -6.743 -10.629 -18.429  0.00  0.00    +0.005 A 
ATOM     14  C   UNL     1      -4.268 -10.269 -17.202  0.00  0.00    +0.000 A 
ATOM     15  C   UNL     1      -6.220  -9.346 -18.272  0.00  0.00    +0.000 A 
ATOM     16  C   UNL     1      -4.981  -9.166 -17.661  0.00  0.00    +0.000 A 
ENDBRANCH  10  11
ENDBRANCH   1  10
TORSDOF 2
ENDMDL
MODEL 5
REMARK VINA RESULT:    -5.587      2.969      4.642
REMARK INTER + INTRA:          -6.387
REMARK INTER:                  -6.262
REMARK INTRA:                  -0.125
REMARK UNBOUND:                -0.147
REMARK  Name = 1550473
REMARK  2 active torsions:
REMARK  status: ('A' for Active; 'I' for Inactive)
REMARK    1  A    between atoms: N_1  and  C_4
REMARK    2  A    between atoms: C_4  and  C_5
REMARK                            x       y       z     vdW  Elec       q    Type
REMARK                         _______ _______ _______ _____ _____    ______ ____
ROOT
ATOM      1  N   UNL     1     -14.226  -7.137 -16.499  0.00  0.00    -0.354 N 
ATOM      2  N   UNL     1     -16.217  -8.256 -16.115  0.00  0.00    -0.372 N 
ATOM      3  N   UNL     1     -15.889  -6.208 -15.135  0.00  0.00    -0.372 N 
ATOM      4  C   UNL     1     -15.431  -7.191 -15.917  0.00  0.00    +0.166 C 
ATOM      5  H   UNL     1     -13.925  -7.929 -17.057  0.00  0.00    +0.163 HD
ATOM      6  H   UNL     1     -17.133  -8.323 -15.692  0.00  0.00    +0.159 HD
ATOM      7  H   UNL     1     -15.933  -9.025 -16.710  0.00  0.00    +0.159 HD
ATOM      8  H   UNL     1     -15.342  -5.379 -14.941  0.00  0.00    +0.159 HD
ATOM      9  H   UNL     1     -16.798  -6.261 -14.693  0.00  0.00    +0.159 HD
ENDROOT
BRANCH   1  10
ATOM     10  C   UNL     1     -13.316  -5.999 -16.391  0.00  0.00    +0.151 C 
BRANCH  10  11
ATOM     11  C   UNL     1     -11.911  -6.466 -16.656  0.00  0.00    -0.028 A 
ATOM     12  C   UNL     1     -11.519  -7.770 -16.319  0.00  0.00    +0.005 A 
ATOM     13  C   UNL     1     -10.969  -5.612 -17.249  0.00  0.00    +0.005 A 
ATOM     14  C   UNL     1     -10.223  -8.214 -16.592  0.00  0.00    +0.000 A 
ATOM     15  C   UNL     1      -9.675  -6.059 -17.519  0.00  0.00    +0.000 A 
ATOM     16  C   UNL     1      -9.304  -7.361 -17.192  0.00  0.00    +0.000 A 
ENDBRANCH  10  11
ENDBRANCH   1  10
TORSDOF 2
ENDMDL
MODEL 6
REMARK VINA RESULT:    -5.488      6.683      8.066
REMARK INTER + INTRA:          -6.277
REMARK INTER:                  -6.162
REMARK INTRA:                  -0.115
REMARK UNBOUND:                -0.147
REMARK  Name = 1550473
REMARK  2 active torsions:
REMARK  status: ('A' for Active; 'I' for Inactive)
REMARK    1  A    between atoms: N_1  and  C_4
REMARK    2  A    between atoms: C_4  and  C_5
REMARK                            x       y       z     vdW  Elec       q    Type
REMARK                         _______ _______ _______ _____ _____    ______ ____
ROOT
ATOM      1  N   UNL     1      -9.444 -14.252 -18.662  0.00  0.00    -0.354 N 
ATOM      2  N   UNL     1     -10.480 -14.466 -20.722  0.00  0.00    -0.372 N 
ATOM      3  N   UNL     1      -8.237 -13.989 -20.654  0.00  0.00    -0.372 N 
ATOM      4  C   UNL     1      -9.378 -14.233 -20.000  0.00  0.00    +0.166 C 
ATOM      5  H   UNL     1     -10.345 -14.413 -18.227  0.00  0.00    +0.163 HD
ATOM      6  H   UNL     1     -10.461 -14.462 -21.733  0.00  0.00    +0.159 HD
ATOM      7  H   UNL     1     -11.370 -14.672 -20.284  0.00  0.00    +0.159 HD
ATOM      8  H   UNL     1      -7.371 -13.800 -20.167  0.00  0.00    +0.159 HD
ATOM      9  H   UNL     1      -8.199 -13.969 -21.665  0.00  0.00    +0.159 HD
ENDROOT
BRANCH   1  10
ATOM     10  C   UNL     1      -8.290 -14.064 -17.784  0.00  0.00    +0.151 C 
BRANCH  10  11
ATOM     11  C   UNL     1      -8.100 -15.302 -16.951  0.00  0.00    -0.028 A 
ATOM     12  C   UNL     1      -8.720 -16.506 -17.315  0.00  0.00    +0.005 A 
ATOM     13  C   UNL     1      -7.298 -15.278 -15.800  0.00  0.00    +0.005 A 
ATOM     14  C   UNL     1      -8.520 -17.664 -16.558  0.00  0.00    +0.000 A 
ATOM     15  C   UNL     1      -7.101 -16.435 -15.047  0.00  0.00    +0.000 A 
ATOM     16  C   UNL     1      -7.710 -17.628 -15.428  0.00  0.00    +0.000 A 
ENDBRANCH  10  11
ENDBRANCH   1  10
TORSDOF 2
ENDMDL
MODEL 7
REMARK VINA RESULT:    -5.400      9.298     10.337
REMARK INTER + INTRA:          -6.179
REMARK INTER:                  -6.038
REMARK INTRA:                  -0.140
REMARK UNBOUND:                -0.147
REMARK  Name = 1550473
REMARK  2 active torsions:
REMARK  status: ('A' for Active; 'I' for Inactive)
REMARK    1  A    between atoms: N_1  and  C_4
REMARK    2  A    between atoms: C_4  and  C_5
REMARK                            x       y       z     vdW  Elec       q    Type
REMARK                         _______ _______ _______ _____ _____    ______ ____
ROOT
ATOM      1  N   UNL     1      -8.053   0.704 -20.644  0.00  0.00    -0.354 N 
ATOM      2  N   UNL     1      -9.548   1.440 -19.035  0.00  0.00    -0.372 N 
ATOM      3  N   UNL     1      -9.121  -0.808 -19.207  0.00  0.00    -0.372 N 
ATOM      4  C   UNL     1      -8.898   0.438 -19.639  0.00  0.00    +0.166 C 
ATOM      5  H   UNL     1      -7.951   1.667 -20.945  0.00  0.00    +0.163 HD
ATOM      6  H   UNL     1     -10.188   1.271 -18.272  0.00  0.00    +0.159 HD
ATOM      7  H   UNL     1      -9.409   2.406 -19.307  0.00  0.00    +0.159 HD
ATOM      8  H   UNL     1      -8.666  -1.609 -19.624  0.00  0.00    +0.159 HD
ATOM      9  H   UNL     1      -9.767  -0.999 -18.452  0.00  0.00    +0.159 HD
ENDROOT
BRANCH   1  10
ATOM     10  C   UNL     1      -7.256  -0.310 -21.332  0.00  0.00    +0.151 C 
BRANCH  10  11
ATOM     11  C   UNL     1      -7.321  -0.063 -22.814  0.00  0.00    -0.028 A 
ATOM     12  C   UNL     1      -6.464  -0.748 -23.688  0.00  0.00    +0.005 A 
ATOM     13  C   UNL     1      -8.241   0.850 -23.351  0.00  0.00    +0.005 A 
ATOM     14  C   UNL     1      -6.544  -0.541 -25.068  0.00  0.00    +0.000 A 
ATOM     15  C   UNL     1      -8.317   1.055 -24.729  0.00  0.00    +0.000 A 
ATOM     16  C   UNL     1      -7.470   0.357 -25.587  0.00  0.00    +0.000 A 
ENDBRANCH  10  11
ENDBRANCH   1  10
TORSDOF 2
ENDMDL
MODEL 8
REMARK VINA RESULT:    -5.396     27.638     28.280
REMARK INTER + INTRA:          -6.174
REMARK INTER:                  -6.032
REMARK INTRA:                  -0.143
REMARK UNBOUND:                -0.147
REMARK  Name = 1550473
REMARK  2 active torsions:
REMARK  status: ('A' for Active; 'I' for Inactive)
REMARK    1  A    between atoms: N_1  and  C_4
REMARK    2  A    between atoms: C_4  and  C_5
REMARK                            x       y       z     vdW  Elec       q    Type
REMARK                         _______ _______ _______ _____ _____    ______ ____
ROOT
ATOM      1  N   UNL     1       5.390 -11.449   5.517  0.00  0.00    -0.354 N 
ATOM      2  N   UNL     1       4.932 -13.650   4.958  0.00  0.00    -0.372 N 
ATOM      3  N   UNL     1       6.937 -13.153   5.956  0.00  0.00    -0.372 N 
ATOM      4  C   UNL     1       5.759 -12.737   5.482  0.00  0.00    +0.166 C 
ATOM      5  H   UNL     1       4.496 -11.194   5.114  0.00  0.00    +0.163 HD
ATOM      6  H   UNL     1       5.181 -14.629   4.921  0.00  0.00    +0.159 HD
ATOM      7  H   UNL     1       4.019 -13.398   4.598  0.00  0.00    +0.159 HD
ATOM      8  H   UNL     1       7.609 -12.514   6.358  0.00  0.00    +0.159 HD
ATOM      9  H   UNL     1       7.210 -14.128   5.917  0.00  0.00    +0.159 HD
ENDROOT
BRANCH   1  10
ATOM     10  C   UNL     1       6.194 -10.385   6.115  0.00  0.00    +0.151 C 
BRANCH  10  11
ATOM     11  C   UNL     1       5.374  -9.675   7.157  0.00  0.00    -0.028 A 
ATOM     12  C   UNL     1       4.038 -10.040   7.381  0.00  0.00    +0.005 A 
ATOM     13  C   UNL     1       5.928  -8.642   7.927  0.00  0.00    +0.005 A 
ATOM     14  C   UNL     1       3.285  -9.402   8.370  0.00  0.00    +0.000 A 
ATOM     15  C   UNL     1       5.173  -8.007   8.912  0.00  0.00    +0.000 A 
ATOM     16  C   UNL     1       3.852  -8.388   9.135  0.00  0.00    +0.000 A 
ENDBRANCH  10  11
ENDBRANCH   1  10
TORSDOF 2
ENDMDL
MODEL 9
REMARK VINA RESULT:    -5.309     28.224     28.823
REMARK INTER + INTRA:          -6.077
REMARK INTER:                  -5.931
REMARK INTRA:                  -0.145
REMARK UNBOUND:                -0.147
REMARK  Name = 1550473
REMARK  2 active torsions:
REMARK  status: ('A' for Active; 'I' for Inactive)
REMARK    1  A    between atoms: N_1  and  C_4
REMARK    2  A    between atoms: C_4  and  C_5
REMARK                            x       y       z     vdW  Elec       q    Type
REMARK                         _______ _______ _______ _____ _____    ______ ____
ROOT
ATOM      1  N   UNL     1       5.593  -8.906   6.755  0.00  0.00    -0.354 N 
ATOM      2  N   UNL     1       5.726  -8.803   4.445  0.00  0.00    -0.372 N 
ATOM      3  N   UNL     1       6.534  -7.047   5.681  0.00  0.00    -0.372 N 
ATOM      4  C   UNL     1       5.951  -8.250   5.643  0.00  0.00    +0.166 C 
ATOM      5  H   UNL     1       5.128  -9.801   6.657  0.00  0.00    +0.163 HD
ATOM      6  H   UNL     1       5.988  -8.334   3.588  0.00  0.00    +0.159 HD
ATOM      7  H   UNL     1       5.303  -9.719   4.352  0.00  0.00    +0.159 HD
ATOM      8  H   UNL     1       6.726  -6.573   6.553  0.00  0.00    +0.159 HD
ATOM      9  H   UNL     1       6.793  -6.556   4.834  0.00  0.00    +0.159 HD
ENDROOT
BRANCH   1  10
ATOM     10  C   UNL     1       5.843  -8.415   8.109  0.00  0.00    +0.151 C 
BRANCH  10  11
ATOM     11  C   UNL     1       4.548  -8.404   8.874  0.00  0.00    -0.028 A 
ATOM     12  C   UNL     1       3.372  -8.897   8.290  0.00  0.00    +0.005 A 
ATOM     13  C   UNL     1       4.491  -7.906  10.185  0.00  0.00    +0.005 A 
ATOM     14  C   UNL     1       2.175  -8.914   9.010  0.00  0.00    +0.000 A 
ATOM     15  C   UNL     1       3.294  -7.924  10.900  0.00  0.00    +0.000 A 
ATOM     16  C   UNL     1       2.137  -8.431  10.313  0.00  0.00    +0.000 A 
ENDBRANCH  10  11
ENDBRANCH   1  10
TORSDOF 2
ENDMDL
