MODEL 1
REMARK VINA RESULT:    -7.241      0.000      0.000
REMARK INTER + INTRA:          -8.195
REMARK INTER:                  -8.088
REMARK INTRA:                  -0.107
REMARK UNBOUND:                -0.107
REMARK  Name = 1550473
REMARK  2 active torsions:
REMARK  status: ('A' for Active; 'I' for Inactive)
REMARK    1  A    between atoms: N_1  and  C_4
REMARK    2  A    between atoms: C_4  and  C_5
REMARK                            x       y       z     vdW  Elec       q    Type
REMARK                         _______ _______ _______ _____ _____    ______ ____
ROOT
ATOM      1  N   UNL     1      -2.962   2.882   2.899  0.00  0.00    -0.354 N 
ATOM      2  N   UNL     1      -2.730   0.905   1.716  0.00  0.00    -0.372 N 
ATOM      3  N   UNL     1      -2.030   0.979   3.899  0.00  0.00    -0.372 N 
ATOM      4  C   UNL     1      -2.574   1.601   2.848  0.00  0.00    +0.166 C 
ATOM      5  H   UNL     1      -3.339   3.305   2.058  0.00  0.00    +0.163 HD
ATOM      6  H   UNL     1      -2.451  -0.065   1.649  0.00  0.00    +0.159 HD
ATOM      7  H   UNL     1      -3.151   1.316   0.891  0.00  0.00    +0.159 HD
ATOM      8  H   UNL     1      -1.879   1.451   4.781  0.00  0.00    +0.159 HD
ATOM      9  H   UNL     1      -1.733   0.013   3.848  0.00  0.00    +0.159 HD
ENDROOT
BRANCH   1  10
ATOM     10  C   UNL     1      -2.885   3.713   4.099  0.00  0.00    +0.151 C 
BRANCH  10  11
ATOM     11  C   UNL     1      -1.927   4.846   3.852  0.00  0.00    -0.028 A 
ATOM     12  C   UNL     1      -0.871   4.699   2.941  0.00  0.00    +0.005 A 
ATOM     13  C   UNL     1      -2.073   6.070   4.522  0.00  0.00    +0.005 A 
ATOM     14  C   UNL     1       0.001   5.761   2.688  0.00  0.00    +0.000 A 
ATOM     15  C   UNL     1      -1.200   7.128   4.269  0.00  0.00    +0.000 A 
ATOM     16  C   UNL     1      -0.164   6.974   3.350  0.00  0.00    +0.000 A 
ENDBRANCH  10  11
ENDBRANCH   1  10
TORSDOF 2
ENDMDL
MODEL 2
REMARK VINA RESULT:    -7.218      0.068      1.456
REMARK INTER + INTRA:          -8.169
REMARK INTER:                  -8.044
REMARK INTRA:                  -0.125
REMARK UNBOUND:                -0.107
REMARK  Name = 1550473
REMARK  2 active torsions:
REMARK  status: ('A' for Active; 'I' for Inactive)
REMARK    1  A    between atoms: N_1  and  C_4
REMARK    2  A    between atoms: C_4  and  C_5
REMARK                            x       y       z     vdW  Elec       q    Type
REMARK                         _______ _______ _______ _____ _____    ______ ____
ROOT
ATOM      1  N   UNL     1      -2.902   2.886   2.945  0.00  0.00    -0.354 N 
ATOM      2  N   UNL     1      -2.725   0.891   1.782  0.00  0.00    -0.372 N 
ATOM      3  N   UNL     1      -2.060   0.958   3.977  0.00  0.00    -0.372 N 
ATOM      4  C   UNL     1      -2.562   1.591   2.911  0.00  0.00    +0.166 C 
ATOM      5  H   UNL     1      -3.249   3.315   2.095  0.00  0.00    +0.163 HD
ATOM      6  H   UNL     1      -2.481  -0.088   1.727  0.00  0.00    +0.159 HD
ATOM      7  H   UNL     1      -3.115   1.311   0.947  0.00  0.00    +0.159 HD
ATOM      8  H   UNL     1      -1.907   1.431   4.857  0.00  0.00    +0.159 HD
ATOM      9  H   UNL     1      -1.798  -0.019   3.938  0.00  0.00    +0.159 HD
ENDROOT
BRANCH   1  10
ATOM     10  C   UNL     1      -2.815   3.724   4.140  0.00  0.00    +0.151 C 
BRANCH  10  11
ATOM     11  C   UNL     1      -1.894   4.880   3.863  0.00  0.00    -0.028 A 
ATOM     12  C   UNL     1      -2.049   6.093   4.550  0.00  0.00    +0.005 A 
ATOM     13  C   UNL     1      -0.862   4.768   2.919  0.00  0.00    +0.005 A 
ATOM     14  C   UNL     1      -1.175   7.158   4.314  0.00  0.00    +0.000 A 
ATOM     15  C   UNL     1       0.007   5.833   2.686  0.00  0.00    +0.000 A 
ATOM     16  C   UNL     1      -0.148   7.027   3.386  0.00  0.00    +0.000 A 
ENDBRANCH  10  11
ENDBRANCH   1  10
TORSDOF 2
ENDMDL
MODEL 3
REMARK VINA RESULT:    -6.268      5.163      8.680
REMARK INTER + INTRA:          -7.108
REMARK INTER:                  -6.995
REMARK INTRA:                  -0.113
REMARK UNBOUND:                -0.107
REMARK  Name = 1550473
REMARK  2 active torsions:
REMARK  status: ('A' for Active; 'I' for Inactive)
REMARK    1  A    between atoms: N_1  and  C_4
REMARK    2  A    between atoms: C_4  and  C_5
REMARK                            x       y       z     vdW  Elec       q    Type
REMARK                         _______ _______ _______ _____ _____    ______ ____
ROOT
ATOM      1  N   UNL     1      -3.375  -1.173   2.599  0.00  0.00    -0.354 N 
ATOM      2  N   UNL     1      -2.614   0.893   1.879  0.00  0.00    -0.372 N 
ATOM      3  N   UNL     1      -2.379   0.335   4.092  0.00  0.00    -0.372 N 
ATOM      4  C   UNL     1      -2.794   0.005   2.864  0.00  0.00    +0.166 C 
ATOM      5  H   UNL     1      -3.694  -1.350   1.653  0.00  0.00    +0.163 HD
ATOM      6  H   UNL     1      -2.176   1.788   2.048  0.00  0.00    +0.159 HD
ATOM      7  H   UNL     1      -2.893   0.695   0.925  0.00  0.00    +0.159 HD
ATOM      8  H   UNL     1      -2.491  -0.289   4.880  0.00  0.00    +0.159 HD
ATOM      9  H   UNL     1      -1.949   1.231   4.283  0.00  0.00    +0.159 HD
ENDROOT
BRANCH   1  10
ATOM     10  C   UNL     1      -3.568  -2.230   3.589  0.00  0.00    +0.151 C 
BRANCH  10  11
ATOM     11  C   UNL     1      -4.299  -3.377   2.947  0.00  0.00    -0.028 A 
ATOM     12  C   UNL     1      -4.040  -3.730   1.615  0.00  0.00    +0.005 A 
ATOM     13  C   UNL     1      -5.248  -4.118   3.668  0.00  0.00    +0.005 A 
ATOM     14  C   UNL     1      -4.697  -4.814   1.027  0.00  0.00    +0.000 A 
ATOM     15  C   UNL     1      -5.903  -5.199   3.077  0.00  0.00    +0.000 A 
ATOM     16  C   UNL     1      -5.625  -5.548   1.758  0.00  0.00    +0.000 A 
ENDBRANCH  10  11
ENDBRANCH   1  10
TORSDOF 2
ENDMDL
MODEL 4
REMARK VINA RESULT:    -5.963      1.633      2.922
REMARK INTER + INTRA:          -6.767
REMARK INTER:                  -6.671
REMARK INTRA:                  -0.095
REMARK UNBOUND:                -0.107
REMARK  Name = 1550473
REMARK  2 active torsions:
REMARK  status: ('A' for Active; 'I' for Inactive)
REMARK    1  A    between atoms: N_1  and  C_4
REMARK    2  A    between atoms: C_4  and  C_5
REMARK                            x       y       z     vdW  Elec       q    Type
REMARK                         _______ _______ _______ _____ _____    ______ ____
ROOT
ATOM      1  N   UNL     1      -2.346   2.824   2.517  0.00  0.00    -0.354 N 
ATOM      2  N   UNL     1      -2.889   0.714   1.729  0.00  0.00    -0.372 N 
ATOM      3  N   UNL     1      -1.912   0.909   3.796  0.00  0.00    -0.372 N 
ATOM      4  C   UNL     1      -2.378   1.495   2.688  0.00  0.00    +0.166 C 
ATOM      5  H   UNL     1      -2.687   3.204   1.641  0.00  0.00    +0.163 HD
ATOM      6  H   UNL     1      -2.930  -0.291   1.832  0.00  0.00    +0.159 HD
ATOM      7  H   UNL     1      -3.271   1.101   0.875  0.00  0.00    +0.159 HD
ATOM      8  H   UNL     1      -1.508   1.442   4.555  0.00  0.00    +0.159 HD
ATOM      9  H   UNL     1      -1.934  -0.097   3.913  0.00  0.00    +0.159 HD
ENDROOT
BRANCH   1  10
ATOM     10  C   UNL     1      -1.859   3.767   3.522  0.00  0.00    +0.151 C 
BRANCH  10  11
ATOM     11  C   UNL     1      -3.017   4.574   4.040  0.00  0.00    -0.028 A 
ATOM     12  C   UNL     1      -2.795   5.714   4.826  0.00  0.00    +0.005 A 
ATOM     13  C   UNL     1      -4.339   4.208   3.743  0.00  0.00    +0.005 A 
ATOM     14  C   UNL     1      -3.870   6.481   5.282  0.00  0.00    +0.000 A 
ATOM     15  C   UNL     1      -5.409   4.976   4.201  0.00  0.00    +0.000 A 
ATOM     16  C   UNL     1      -5.174   6.114   4.968  0.00  0.00    +0.000 A 
ENDBRANCH  10  11
ENDBRANCH   1  10
TORSDOF 2
ENDMDL
MODEL 5
REMARK VINA RESULT:    -5.744      2.776      4.815
REMARK INTER + INTRA:          -6.523
REMARK INTER:                  -6.391
REMARK INTRA:                  -0.132
REMARK UNBOUND:                -0.107
REMARK  Name = 1550473
REMARK  2 active torsions:
REMARK  status: ('A' for Active; 'I' for Inactive)
REMARK    1  A    between atoms: N_1  and  C_4
REMARK    2  A    between atoms: C_4  and  C_5
REMARK                            x       y       z     vdW  Elec       q    Type
REMARK                         _______ _______ _______ _____ _____    ______ ____
ROOT
ATOM      1  N   UNL     1      -0.683   5.377   4.013  0.00  0.00    -0.354 N 
ATOM      2  N   UNL     1      -0.286   7.600   3.499  0.00  0.00    -0.372 N 
ATOM      3  N   UNL     1       0.590   5.974   2.138  0.00  0.00    -0.372 N 
ATOM      4  C   UNL     1      -0.127   6.301   3.218  0.00  0.00    +0.166 C 
ATOM      5  H   UNL     1      -1.189   5.689   4.833  0.00  0.00    +0.163 HD
ATOM      6  H   UNL     1       0.119   8.320   2.916  0.00  0.00    +0.159 HD
ATOM      7  H   UNL     1      -0.831   7.910   4.294  0.00  0.00    +0.159 HD
ATOM      8  H   UNL     1       0.752   5.011   1.874  0.00  0.00    +0.159 HD
ATOM      9  H   UNL     1       1.012   6.680   1.548  0.00  0.00    +0.159 HD
ENDROOT
BRANCH   1  10
ATOM     10  C   UNL     1      -0.615   3.938   3.765  0.00  0.00    +0.151 C 
BRANCH  10  11
ATOM     11  C   UNL     1      -1.868   3.290   4.286  0.00  0.00    -0.028 A 
ATOM     12  C   UNL     1      -1.956   1.894   4.394  0.00  0.00    +0.005 A 
ATOM     13  C   UNL     1      -2.969   4.066   4.679  0.00  0.00    +0.005 A 
ATOM     14  C   UNL     1      -3.109   1.293   4.906  0.00  0.00    +0.000 A 
ATOM     15  C   UNL     1      -4.118   3.463   5.190  0.00  0.00    +0.000 A 
ATOM     16  C   UNL     1      -4.187   2.076   5.305  0.00  0.00    +0.000 A 
ENDBRANCH  10  11
ENDBRANCH   1  10
TORSDOF 2
ENDMDL
MODEL 6
REMARK VINA RESULT:    -5.707      8.173     11.664
REMARK INTER + INTRA:          -6.482
REMARK INTER:                  -6.335
REMARK INTRA:                  -0.146
REMARK UNBOUND:                -0.107
REMARK  Name = 1550473
REMARK  2 active torsions:
REMARK  status: ('A' for Active; 'I' for Inactive)
REMARK    1  A    between atoms: N_1  and  C_4
REMARK    2  A    between atoms: C_4  and  C_5
REMARK                            x       y       z     vdW  Elec       q    Type
REMARK                         _______ _______ _______ _____ _____    ______ ____
ROOT
ATOM      1  N   UNL     1      -4.684  -4.291   1.900  0.00  0.00    -0.354 N 
ATOM      2  N   UNL     1      -3.996  -2.200   1.180  0.00  0.00    -0.372 N 
ATOM      3  N   UNL     1      -5.548  -2.338   2.865  0.00  0.00    -0.372 N 
ATOM      4  C   UNL     1      -4.749  -2.956   1.988  0.00  0.00    +0.166 C 
ATOM      5  H   UNL     1      -4.082  -4.698   1.194  0.00  0.00    +0.163 HD
ATOM      6  H   UNL     1      -4.021  -1.190   1.226  0.00  0.00    +0.159 HD
ATOM      7  H   UNL     1      -3.361  -2.610   0.507  0.00  0.00    +0.159 HD
ATOM      8  H   UNL     1      -6.146  -2.851   3.499  0.00  0.00    +0.159 HD
ATOM      9  H   UNL     1      -5.596  -1.328   2.918  0.00  0.00    +0.159 HD
ENDROOT
BRANCH   1  10
ATOM     10  C   UNL     1      -5.423  -5.205   2.770  0.00  0.00    +0.151 C 
BRANCH  10  11
ATOM     11  C   UNL     1      -6.242  -6.137   1.920  0.00  0.00    -0.028 A 
ATOM     12  C   UNL     1      -7.272  -6.900   2.490  0.00  0.00    +0.005 A 
ATOM     13  C   UNL     1      -5.996  -6.259   0.544  0.00  0.00    +0.005 A 
ATOM     14  C   UNL     1      -8.052  -7.744   1.696  0.00  0.00    +0.000 A 
ATOM     15  C   UNL     1      -6.777  -7.103  -0.245  0.00  0.00    +0.000 A 
ATOM     16  C   UNL     1      -7.806  -7.843   0.330  0.00  0.00    +0.000 A 
ENDBRANCH  10  11
ENDBRANCH   1  10
TORSDOF 2
ENDMDL
MODEL 7
REMARK VINA RESULT:    -5.501      3.174      4.708
REMARK INTER + INTRA:          -6.251
REMARK INTER:                  -6.107
REMARK INTRA:                  -0.145
REMARK UNBOUND:                -0.107
REMARK  Name = 1550473
REMARK  2 active torsions:
REMARK  status: ('A' for Active; 'I' for Inactive)
REMARK    1  A    between atoms: N_1  and  C_4
REMARK    2  A    between atoms: C_4  and  C_5
REMARK                            x       y       z     vdW  Elec       q    Type
REMARK                         _______ _______ _______ _____ _____    ______ ____
ROOT
ATOM      1  N   UNL     1       0.058   6.203   4.074  0.00  0.00    -0.354 N 
ATOM      2  N   UNL     1      -0.736   4.509   2.708  0.00  0.00    -0.372 N 
ATOM      3  N   UNL     1       0.754   6.025   1.844  0.00  0.00    -0.372 N 
ATOM      4  C   UNL     1       0.032   5.592   2.882  0.00  0.00    +0.166 C 
ATOM      5  H   UNL     1      -0.536   5.843   4.813  0.00  0.00    +0.163 HD
ATOM      6  H   UNL     1      -0.774   4.025   1.821  0.00  0.00    +0.159 HD
ATOM      7  H   UNL     1      -1.293   4.125   3.461  0.00  0.00    +0.159 HD
ATOM      8  H   UNL     1       1.349   6.840   1.908  0.00  0.00    +0.159 HD
ATOM      9  H   UNL     1       0.721   5.561   0.945  0.00  0.00    +0.159 HD
ENDROOT
BRANCH   1  10
ATOM     10  C   UNL     1       0.901   7.356   4.384  0.00  0.00    +0.151 C 
BRANCH  10  11
ATOM     11  C   UNL     1       0.040   8.462   4.929  0.00  0.00    -0.028 A 
ATOM     12  C   UNL     1      -1.141   8.835   4.271  0.00  0.00    +0.005 A 
ATOM     13  C   UNL     1       0.397   9.136   6.107  0.00  0.00    +0.005 A 
ATOM     14  C   UNL     1      -1.956   9.842   4.794  0.00  0.00    +0.000 A 
ATOM     15  C   UNL     1      -0.419  10.142   6.625  0.00  0.00    +0.000 A 
ATOM     16  C   UNL     1      -1.597  10.492   5.969  0.00  0.00    +0.000 A 
ENDBRANCH  10  11
ENDBRANCH   1  10
TORSDOF 2
ENDMDL
MODEL 8
REMARK VINA RESULT:    -5.224      3.990      5.443
REMARK INTER + INTRA:          -5.942
REMARK INTER:                  -5.832
REMARK INTRA:                  -0.109
REMARK UNBOUND:                -0.107
REMARK  Name = 1550473
REMARK  2 active torsions:
REMARK  status: ('A' for Active; 'I' for Inactive)
REMARK    1  A    between atoms: N_1  and  C_4
REMARK    2  A    between atoms: C_4  and  C_5
REMARK                            x       y       z     vdW  Elec       q    Type
REMARK                         _______ _______ _______ _____ _____    ______ ____
ROOT
ATOM      1  N   UNL     1       0.143   6.718   4.375  0.00  0.00    -0.354 N 
ATOM      2  N   UNL     1       0.035   4.475   3.808  0.00  0.00    -0.372 N 
ATOM      3  N   UNL     1       0.515   6.010   2.172  0.00  0.00    -0.372 N 
ATOM      4  C   UNL     1       0.232   5.750   3.452  0.00  0.00    +0.166 C 
ATOM      5  H   UNL     1      -0.104   6.458   5.323  0.00  0.00    +0.163 HD
ATOM      6  H   UNL     1       0.098   3.723   3.135  0.00  0.00    +0.159 HD
ATOM      7  H   UNL     1      -0.167   4.213   4.765  0.00  0.00    +0.159 HD
ATOM      8  H   UNL     1       0.670   6.952   1.838  0.00  0.00    +0.159 HD
ATOM      9  H   UNL     1       0.572   5.272   1.481  0.00  0.00    +0.159 HD
ENDROOT
BRANCH   1  10
ATOM     10  C   UNL     1       0.394   8.132   4.102  0.00  0.00    +0.151 C 
BRANCH  10  11
ATOM     11  C   UNL     1       0.917   8.787   5.350  0.00  0.00    -0.028 A 
ATOM     12  C   UNL     1       0.278   8.585   6.582  0.00  0.00    +0.005 A 
ATOM     13  C   UNL     1       2.055   9.607   5.309  0.00  0.00    +0.005 A 
ATOM     14  C   UNL     1       0.781   9.170   7.747  0.00  0.00    +0.000 A 
ATOM     15  C   UNL     1       2.554  10.190   6.474  0.00  0.00    +0.000 A 
ATOM     16  C   UNL     1       1.919   9.969   7.693  0.00  0.00    +0.000 A 
ENDBRANCH  10  11
ENDBRANCH   1  10
TORSDOF 2
ENDMDL
MODEL 9
REMARK VINA RESULT:    -5.141      3.090      4.504
REMARK INTER + INTRA:          -5.849
REMARK INTER:                  -5.724
REMARK INTRA:                  -0.125
REMARK UNBOUND:                -0.107
REMARK  Name = 1550473
REMARK  2 active torsions:
REMARK  status: ('A' for Active; 'I' for Inactive)
REMARK    1  A    between atoms: N_1  and  C_4
REMARK    2  A    between atoms: C_4  and  C_5
REMARK                            x       y       z     vdW  Elec       q    Type
REMARK                         _______ _______ _______ _____ _____    ______ ____
ROOT
ATOM      1  N   UNL     1      -0.526   6.533   3.715  0.00  0.00    -0.354 N 
ATOM      2  N   UNL     1       0.874   5.915   1.977  0.00  0.00    -0.372 N 
ATOM      3  N   UNL     1      -0.913   4.571   2.494  0.00  0.00    -0.372 N 
ATOM      4  C   UNL     1      -0.199   5.675   2.740  0.00  0.00    +0.166 C 
ATOM      5  H   UNL     1       0.073   7.336   3.870  0.00  0.00    +0.163 HD
ATOM      6  H   UNL     1       1.143   5.287   1.231  0.00  0.00    +0.159 HD
ATOM      7  H   UNL     1       1.444   6.742   2.104  0.00  0.00    +0.159 HD
ATOM      8  H   UNL     1      -1.730   4.329   3.039  0.00  0.00    +0.159 HD
ATOM      9  H   UNL     1      -0.652   3.924   1.760  0.00  0.00    +0.159 HD
ENDROOT
BRANCH   1  10
ATOM     10  C   UNL     1      -1.705   6.392   4.568  0.00  0.00    +0.151 C 
BRANCH  10  11
ATOM     11  C   UNL     1      -1.992   7.711   5.231  0.00  0.00    -0.028 A 
ATOM     12  C   UNL     1      -2.829   7.775   6.355  0.00  0.00    +0.005 A 
ATOM     13  C   UNL     1      -1.425   8.899   4.745  0.00  0.00    +0.005 A 
ATOM     14  C   UNL     1      -3.072   8.996   6.990  0.00  0.00    +0.000 A 
ATOM     15  C   UNL     1      -1.671  10.116   5.381  0.00  0.00    +0.000 A 
ATOM     16  C   UNL     1      -2.492  10.163   6.505  0.00  0.00    +0.000 A 
ENDBRANCH  10  11
ENDBRANCH   1  10
TORSDOF 2
ENDMDL
