MODEL 1
REMARK VINA RESULT:    -6.090      0.000      0.000
REMARK INTER + INTRA:          -6.898
REMARK INTER:                  -6.802
REMARK INTRA:                  -0.097
REMARK UNBOUND:                -0.097
REMARK  Name = 1550473
REMARK  2 active torsions:
REMARK  status: ('A' for Active; 'I' for Inactive)
REMARK    1  A    between atoms: N_1  and  C_4
REMARK    2  A    between atoms: C_4  and  C_5
REMARK                            x       y       z     vdW  Elec       q    Type
REMARK                         _______ _______ _______ _____ _____    ______ ____
ROOT
ATOM      1  N   UNL     1      -9.064 -10.586  -7.409  0.00  0.00    -0.354 N 
ATOM      2  N   UNL     1      -8.570  -9.113  -5.691  0.00  0.00    -0.372 N 
ATOM      3  N   UNL     1      -7.869 -11.292  -5.520  0.00  0.00    -0.372 N 
ATOM      4  C   UNL     1      -8.503 -10.343  -6.217  0.00  0.00    +0.166 C 
ATOM      5  H   UNL     1      -9.556  -9.831  -7.872  0.00  0.00    +0.163 HD
ATOM      6  H   UNL     1      -8.153  -8.899  -4.795  0.00  0.00    +0.159 HD
ATOM      7  H   UNL     1      -9.023  -8.349  -6.178  0.00  0.00    +0.159 HD
ATOM      8  H   UNL     1      -7.789 -12.241  -5.859  0.00  0.00    +0.159 HD
ATOM      9  H   UNL     1      -7.456 -11.099  -4.616  0.00  0.00    +0.159 HD
ENDROOT
BRANCH   1  10
ATOM     10  C   UNL     1      -9.001 -11.876  -8.093  0.00  0.00    +0.151 C 
BRANCH  10  11
ATOM     11  C   UNL     1     -10.173 -11.993  -9.029  0.00  0.00    -0.028 A 
ATOM     12  C   UNL     1     -10.229 -11.221 -10.199  0.00  0.00    +0.005 A 
ATOM     13  C   UNL     1     -11.227 -12.878  -8.755  0.00  0.00    +0.005 A 
ATOM     14  C   UNL     1     -11.302 -11.351 -11.084  0.00  0.00    +0.000 A 
ATOM     15  C   UNL     1     -12.297 -13.004  -9.641  0.00  0.00    +0.000 A 
ATOM     16  C   UNL     1     -12.333 -12.242 -10.806  0.00  0.00    +0.000 A 
ENDBRANCH  10  11
ENDBRANCH   1  10
TORSDOF 2
ENDMDL
MODEL 2
REMARK VINA RESULT:    -5.680     12.561     13.441
REMARK INTER + INTRA:          -6.441
REMARK INTER:                  -6.334
REMARK INTRA:                  -0.106
REMARK UNBOUND:                -0.097
REMARK  Name = 1550473
REMARK  2 active torsions:
REMARK  status: ('A' for Active; 'I' for Inactive)
REMARK    1  A    between atoms: N_1  and  C_4
REMARK    2  A    between atoms: C_4  and  C_5
REMARK                            x       y       z     vdW  Elec       q    Type
REMARK                         _______ _______ _______ _____ _____    ______ ____
ROOT
ATOM      1  N   UNL     1      -8.831  -0.981   1.551  0.00  0.00    -0.354 N 
ATOM      2  N   UNL     1      -8.947   0.085   3.604  0.00  0.00    -0.372 N 
ATOM      3  N   UNL     1      -7.605  -1.764   3.388  0.00  0.00    -0.372 N 
ATOM      4  C   UNL     1      -8.458  -0.896   2.835  0.00  0.00    +0.166 C 
ATOM      5  H   UNL     1      -9.504  -0.310   1.199  0.00  0.00    +0.163 HD
ATOM      6  H   UNL     1      -8.681   0.177   4.575  0.00  0.00    +0.159 HD
ATOM      7  H   UNL     1      -9.584   0.781   3.238  0.00  0.00    +0.159 HD
ATOM      8  H   UNL     1      -7.205  -2.531   2.863  0.00  0.00    +0.159 HD
ATOM      9  H   UNL     1      -7.336  -1.696   4.362  0.00  0.00    +0.159 HD
ENDROOT
BRANCH   1  10
ATOM     10  C   UNL     1      -8.316  -1.979   0.615  0.00  0.00    +0.151 C 
BRANCH  10  11
ATOM     11  C   UNL     1      -8.638  -1.547  -0.790  0.00  0.00    -0.028 A 
ATOM     12  C   UNL     1      -7.663  -1.614  -1.796  0.00  0.00    +0.005 A 
ATOM     13  C   UNL     1      -9.918  -1.076  -1.121  0.00  0.00    +0.005 A 
ATOM     14  C   UNL     1      -7.970  -1.241  -3.107  0.00  0.00    +0.000 A 
ATOM     15  C   UNL     1     -10.220  -0.704  -2.431  0.00  0.00    +0.000 A 
ATOM     16  C   UNL     1      -9.247  -0.789  -3.424  0.00  0.00    +0.000 A 
ENDBRANCH  10  11
ENDBRANCH   1  10
TORSDOF 2
ENDMDL
MODEL 3
REMARK VINA RESULT:    -5.330     22.634     24.233
REMARK INTER + INTRA:          -6.050
REMARK INTER:                  -5.928
REMARK INTRA:                  -0.122
REMARK UNBOUND:                -0.097
REMARK  Name = 1550473
REMARK  2 active torsions:
REMARK  status: ('A' for Active; 'I' for Inactive)
REMARK    1  A    between atoms: N_1  and  C_4
REMARK    2  A    between atoms: C_4  and  C_5
REMARK                            x       y       z     vdW  Elec       q    Type
REMARK                         _______ _______ _______ _____ _____    ______ ____
ROOT
ATOM      1  N   UNL     1       4.652   1.421   7.569  0.00  0.00    -0.354 N 
ATOM      2  N   UNL     1       3.806   3.108   8.912  0.00  0.00    -0.372 N 
ATOM      3  N   UNL     1       5.917   3.336   8.042  0.00  0.00    -0.372 N 
ATOM      4  C   UNL     1       4.800   2.611   8.165  0.00  0.00    +0.166 C 
ATOM      5  H   UNL     1       3.792   0.907   7.727  0.00  0.00    +0.163 HD
ATOM      6  H   UNL     1       3.888   4.005   9.371  0.00  0.00    +0.159 HD
ATOM      7  H   UNL     1       2.930   2.613   9.031  0.00  0.00    +0.159 HD
ATOM      8  H   UNL     1       6.706   3.015   7.497  0.00  0.00    +0.159 HD
ATOM      9  H   UNL     1       6.022   4.231   8.503  0.00  0.00    +0.159 HD
ENDROOT
BRANCH   1  10
ATOM     10  C   UNL     1       5.652   0.816   6.691  0.00  0.00    +0.151 C 
BRANCH  10  11
ATOM     11  C   UNL     1       5.143  -0.515   6.210  0.00  0.00    -0.028 A 
ATOM     12  C   UNL     1       5.846  -1.235   5.234  0.00  0.00    +0.005 A 
ATOM     13  C   UNL     1       3.961  -1.063   6.731  0.00  0.00    +0.005 A 
ATOM     14  C   UNL     1       5.390  -2.485   4.809  0.00  0.00    +0.000 A 
ATOM     15  C   UNL     1       3.508  -2.311   6.303  0.00  0.00    +0.000 A 
ATOM     16  C   UNL     1       4.225  -3.023   5.344  0.00  0.00    +0.000 A 
ENDBRANCH  10  11
ENDBRANCH   1  10
TORSDOF 2
ENDMDL
MODEL 4
REMARK VINA RESULT:    -5.159     21.608     24.172
REMARK INTER + INTRA:          -5.859
REMARK INTER:                  -5.737
REMARK INTRA:                  -0.122
REMARK UNBOUND:                -0.097
REMARK  Name = 1550473
REMARK  2 active torsions:
REMARK  status: ('A' for Active; 'I' for Inactive)
REMARK    1  A    between atoms: N_1  and  C_4
REMARK    2  A    between atoms: C_4  and  C_5
REMARK                            x       y       z     vdW  Elec       q    Type
REMARK                         _______ _______ _______ _____ _____    ______ ____
ROOT
ATOM      1  N   UNL     1       4.848  -1.946   5.435  0.00  0.00    -0.354 N 
ATOM      2  N   UNL     1       5.258  -3.845   4.174  0.00  0.00    -0.372 N 
ATOM      3  N   UNL     1       3.620  -3.912   5.780  0.00  0.00    -0.372 N 
ATOM      4  C   UNL     1       4.571  -3.223   5.140  0.00  0.00    +0.166 C 
ATOM      5  H   UNL     1       5.601  -1.489   4.934  0.00  0.00    +0.163 HD
ATOM      6  H   UNL     1       5.069  -4.807   3.926  0.00  0.00    +0.159 HD
ATOM      7  H   UNL     1       5.978  -3.371   3.643  0.00  0.00    +0.159 HD
ATOM      8  H   UNL     1       3.070  -3.502   6.522  0.00  0.00    +0.159 HD
ATOM      9  H   UNL     1       3.424  -4.880   5.554  0.00  0.00    +0.159 HD
ENDROOT
BRANCH   1  10
ATOM     10  C   UNL     1       4.122  -1.161   6.432  0.00  0.00    +0.151 C 
BRANCH  10  11
ATOM     11  C   UNL     1       4.858   0.128   6.674  0.00  0.00    -0.028 A 
ATOM     12  C   UNL     1       4.198   1.229   7.237  0.00  0.00    +0.005 A 
ATOM     13  C   UNL     1       6.217   0.252   6.346  0.00  0.00    +0.005 A 
ATOM     14  C   UNL     1       4.889   2.417   7.490  0.00  0.00    +0.000 A 
ATOM     15  C   UNL     1       6.903   1.440   6.599  0.00  0.00    +0.000 A 
ATOM     16  C   UNL     1       6.239   2.521   7.173  0.00  0.00    +0.000 A 
ENDBRANCH  10  11
ENDBRANCH   1  10
TORSDOF 2
ENDMDL
MODEL 5
REMARK VINA RESULT:    -5.135      1.528      2.397
REMARK INTER + INTRA:          -5.832
REMARK INTER:                  -5.663
REMARK INTRA:                  -0.169
REMARK UNBOUND:                -0.097
REMARK  Name = 1550473
REMARK  2 active torsions:
REMARK  status: ('A' for Active; 'I' for Inactive)
REMARK    1  A    between atoms: N_1  and  C_4
REMARK    2  A    between atoms: C_4  and  C_5
REMARK                            x       y       z     vdW  Elec       q    Type
REMARK                         _______ _______ _______ _____ _____    ______ ____
ROOT
ATOM      1  N   UNL     1      -9.620 -10.749  -7.915  0.00  0.00    -0.354 N 
ATOM      2  N   UNL     1      -9.051  -9.433  -6.096  0.00  0.00    -0.372 N 
ATOM      3  N   UNL     1      -7.897 -11.382  -6.459  0.00  0.00    -0.372 N 
ATOM      4  C   UNL     1      -8.858 -10.532  -6.835  0.00  0.00    +0.166 C 
ATOM      5  H   UNL     1     -10.351 -10.081  -8.130  0.00  0.00    +0.163 HD
ATOM      6  H   UNL     1      -8.489  -9.241  -5.278  0.00  0.00    +0.159 HD
ATOM      7  H   UNL     1      -9.752  -8.744  -6.339  0.00  0.00    +0.159 HD
ATOM      8  H   UNL     1      -7.705 -12.233  -6.970  0.00  0.00    +0.159 HD
ATOM      9  H   UNL     1      -7.332 -11.214  -5.636  0.00  0.00    +0.159 HD
ENDROOT
BRANCH   1  10
ATOM     10  C   UNL     1      -9.455 -11.887  -8.817  0.00  0.00    +0.151 C 
BRANCH  10  11
ATOM     11  C   UNL     1     -10.389 -12.988  -8.394  0.00  0.00    -0.028 A 
ATOM     12  C   UNL     1     -11.776 -12.840  -8.540  0.00  0.00    +0.005 A 
ATOM     13  C   UNL     1      -9.892 -14.183  -7.852  0.00  0.00    +0.005 A 
ATOM     14  C   UNL     1     -12.641 -13.874  -8.175  0.00  0.00    +0.000 A 
ATOM     15  C   UNL     1     -10.760 -15.213  -7.488  0.00  0.00    +0.000 A 
ATOM     16  C   UNL     1     -12.134 -15.059  -7.652  0.00  0.00    +0.000 A 
ENDBRANCH  10  11
ENDBRANCH   1  10
TORSDOF 2
ENDMDL
MODEL 6
REMARK VINA RESULT:    -5.110     15.719     16.533
REMARK INTER + INTRA:          -5.805
REMARK INTER:                  -5.644
REMARK INTRA:                  -0.161
REMARK UNBOUND:                -0.097
REMARK  Name = 1550473
REMARK  2 active torsions:
REMARK  status: ('A' for Active; 'I' for Inactive)
REMARK    1  A    between atoms: N_1  and  C_4
REMARK    2  A    between atoms: C_4  and  C_5
REMARK                            x       y       z     vdW  Elec       q    Type
REMARK                         _______ _______ _______ _____ _____    ______ ____
ROOT
ATOM      1  N   UNL     1      -7.059 -19.053 -23.480  0.00  0.00    -0.354 N 
ATOM      2  N   UNL     1      -7.566 -20.511 -21.754  0.00  0.00    -0.372 N 
ATOM      3  N   UNL     1      -5.696 -19.192 -21.579  0.00  0.00    -0.372 N 
ATOM      4  C   UNL     1      -6.768 -19.575 -22.282  0.00  0.00    +0.166 C 
ATOM      5  H   UNL     1      -7.869 -19.407 -23.976  0.00  0.00    +0.163 HD
ATOM      6  H   UNL     1      -7.373 -20.920 -20.850  0.00  0.00    +0.159 HD
ATOM      7  H   UNL     1      -8.400 -20.830 -22.230  0.00  0.00    +0.159 HD
ATOM      8  H   UNL     1      -5.051 -18.494 -21.924  0.00  0.00    +0.159 HD
ATOM      9  H   UNL     1      -5.480 -19.599 -20.678  0.00  0.00    +0.159 HD
ENDROOT
BRANCH   1  10
ATOM     10  C   UNL     1      -6.285 -17.990 -24.119  0.00  0.00    +0.151 C 
BRANCH  10  11
ATOM     11  C   UNL     1      -6.984 -16.676 -23.904  0.00  0.00    -0.028 A 
ATOM     12  C   UNL     1      -8.384 -16.614 -23.852  0.00  0.00    +0.005 A 
ATOM     13  C   UNL     1      -6.251 -15.490 -23.745  0.00  0.00    +0.005 A 
ATOM     14  C   UNL     1      -9.032 -15.398 -23.621  0.00  0.00    +0.000 A 
ATOM     15  C   UNL     1      -6.902 -14.278 -23.517  0.00  0.00    +0.000 A 
ATOM     16  C   UNL     1      -8.293 -14.233 -23.452  0.00  0.00    +0.000 A 
ENDBRANCH  10  11
ENDBRANCH   1  10
TORSDOF 2
ENDMDL
MODEL 7
REMARK VINA RESULT:    -4.922     23.317     25.023
REMARK INTER + INTRA:          -5.594
REMARK INTER:                  -5.476
REMARK INTRA:                  -0.119
REMARK UNBOUND:                -0.097
REMARK  Name = 1550473
REMARK  2 active torsions:
REMARK  status: ('A' for Active; 'I' for Inactive)
REMARK    1  A    between atoms: N_1  and  C_4
REMARK    2  A    between atoms: C_4  and  C_5
REMARK                            x       y       z     vdW  Elec       q    Type
REMARK                         _______ _______ _______ _____ _____    ______ ____
ROOT
ATOM      1  N   UNL     1       6.710   1.979   6.571  0.00  0.00    -0.354 N 
ATOM      2  N   UNL     1       7.858   3.955   6.198  0.00  0.00    -0.372 N 
ATOM      3  N   UNL     1       6.606   3.743   8.110  0.00  0.00    -0.372 N 
ATOM      4  C   UNL     1       7.049   3.214   6.964  0.00  0.00    +0.166 C 
ATOM      5  H   UNL     1       7.054   1.647   5.677  0.00  0.00    +0.163 HD
ATOM      6  H   UNL     1       8.134   4.889   6.471  0.00  0.00    +0.159 HD
ATOM      7  H   UNL     1       8.238   3.604   5.328  0.00  0.00    +0.159 HD
ATOM      8  H   UNL     1       5.988   3.237   8.730  0.00  0.00    +0.159 HD
ATOM      9  H   UNL     1       6.862   4.680   8.394  0.00  0.00    +0.159 HD
ENDROOT
BRANCH   1  10
ATOM     10  C   UNL     1       5.878   1.069   7.357  0.00  0.00    +0.151 C 
BRANCH  10  11
ATOM     11  C   UNL     1       5.603  -0.168   6.548  0.00  0.00    -0.028 A 
ATOM     12  C   UNL     1       4.484  -0.967   6.827  0.00  0.00    +0.005 A 
ATOM     13  C   UNL     1       6.454  -0.544   5.497  0.00  0.00    +0.005 A 
ATOM     14  C   UNL     1       4.212  -2.100   6.057  0.00  0.00    +0.000 A 
ATOM     15  C   UNL     1       6.179  -1.677   4.731  0.00  0.00    +0.000 A 
ATOM     16  C   UNL     1       5.056  -2.453   5.010  0.00  0.00    +0.000 A 
ENDBRANCH  10  11
ENDBRANCH   1  10
TORSDOF 2
ENDMDL
MODEL 8
REMARK VINA RESULT:    -4.919      2.908      3.526
REMARK INTER + INTRA:          -5.590
REMARK INTER:                  -5.424
REMARK INTRA:                  -0.166
REMARK UNBOUND:                -0.097
REMARK  Name = 1550473
REMARK  2 active torsions:
REMARK  status: ('A' for Active; 'I' for Inactive)
REMARK    1  A    between atoms: N_1  and  C_4
REMARK    2  A    between atoms: C_4  and  C_5
REMARK                            x       y       z     vdW  Elec       q    Type
REMARK                         _______ _______ _______ _____ _____    ______ ____
ROOT
ATOM      1  N   UNL     1      -8.019 -14.338  -8.420  0.00  0.00    -0.354 N 
ATOM      2  N   UNL     1      -7.517 -16.599  -8.434  0.00  0.00    -0.372 N 
ATOM      3  N   UNL     1      -8.568 -15.707  -6.600  0.00  0.00    -0.372 N 
ATOM      4  C   UNL     1      -8.039 -15.533  -7.815  0.00  0.00    +0.166 C 
ATOM      5  H   UNL     1      -7.577 -14.266  -9.329  0.00  0.00    +0.163 HD
ATOM      6  H   UNL     1      -7.521 -17.514  -8.004  0.00  0.00    +0.159 HD
ATOM      7  H   UNL     1      -7.117 -16.533  -9.362  0.00  0.00    +0.159 HD
ATOM      8  H   UNL     1      -8.972 -14.942  -6.077  0.00  0.00    +0.159 HD
ATOM      9  H   UNL     1      -8.570 -16.613  -6.148  0.00  0.00    +0.159 HD
ENDROOT
BRANCH   1  10
ATOM     10  C   UNL     1      -8.609 -13.125  -7.855  0.00  0.00    +0.151 C 
BRANCH  10  11
ATOM     11  C   UNL     1      -9.793 -12.721  -8.689  0.00  0.00    -0.028 A 
ATOM     12  C   UNL     1      -9.687 -11.673  -9.616  0.00  0.00    +0.005 A 
ATOM     13  C   UNL     1     -11.023 -13.385  -8.561  0.00  0.00    +0.005 A 
ATOM     14  C   UNL     1     -10.779 -11.317 -10.412  0.00  0.00    +0.000 A 
ATOM     15  C   UNL     1     -12.111 -13.025  -9.357  0.00  0.00    +0.000 A 
ATOM     16  C   UNL     1     -11.987 -11.993 -10.284  0.00  0.00    +0.000 A 
ENDBRANCH  10  11
ENDBRANCH   1  10
TORSDOF 2
ENDMDL
MODEL 9
REMARK VINA RESULT:    -4.894      1.738      2.415
REMARK INTER + INTRA:          -5.563
REMARK INTER:                  -5.387
REMARK INTRA:                  -0.176
REMARK UNBOUND:                -0.097
REMARK  Name = 1550473
REMARK  2 active torsions:
REMARK  status: ('A' for Active; 'I' for Inactive)
REMARK    1  A    between atoms: N_1  and  C_4
REMARK    2  A    between atoms: C_4  and  C_5
REMARK                            x       y       z     vdW  Elec       q    Type
REMARK                         _______ _______ _______ _____ _____    ______ ____
ROOT
ATOM      1  N   UNL     1      -7.872 -13.457  -5.904  0.00  0.00    -0.354 N 
ATOM      2  N   UNL     1      -8.000 -13.045  -3.629  0.00  0.00    -0.372 N 
ATOM      3  N   UNL     1      -7.572 -11.296  -5.050  0.00  0.00    -0.372 N 
ATOM      4  C   UNL     1      -7.813 -12.599  -4.877  0.00  0.00    +0.166 C 
ATOM      5  H   UNL     1      -8.028 -14.438  -5.704  0.00  0.00    +0.163 HD
ATOM      6  H   UNL     1      -7.965 -12.421  -2.834  0.00  0.00    +0.159 HD
ATOM      7  H   UNL     1      -8.202 -14.019  -3.435  0.00  0.00    +0.159 HD
ATOM      8  H   UNL     1      -7.417 -10.897  -5.966  0.00  0.00    +0.159 HD
ATOM      9  H   UNL     1      -7.522 -10.657  -4.266  0.00  0.00    +0.159 HD
ENDROOT
BRANCH   1  10
ATOM     10  C   UNL     1      -7.735 -13.065  -7.306  0.00  0.00    +0.151 C 
BRANCH  10  11
ATOM     11  C   UNL     1      -9.104 -12.920  -7.911  0.00  0.00    -0.028 A 
ATOM     12  C   UNL     1      -9.452 -11.760  -8.617  0.00  0.00    +0.005 A 
ATOM     13  C   UNL     1     -10.057 -13.943  -7.786  0.00  0.00    +0.005 A 
ATOM     14  C   UNL     1     -10.713 -11.638  -9.205  0.00  0.00    +0.000 A 
ATOM     15  C   UNL     1     -11.316 -13.818  -8.374  0.00  0.00    +0.000 A 
ATOM     16  C   UNL     1     -11.642 -12.666  -9.085  0.00  0.00    +0.000 A 
ENDBRANCH  10  11
ENDBRANCH   1  10
TORSDOF 2
ENDMDL
