MODEL 1
REMARK VINA RESULT:    -5.632      0.000      0.000
REMARK INTER + INTRA:          -6.470
REMARK INTER:                  -6.290
REMARK INTRA:                  -0.180
REMARK UNBOUND:                -0.180
REMARK  Name = 1550473
REMARK  2 active torsions:
REMARK  status: ('A' for Active; 'I' for Inactive)
REMARK    1  A    between atoms: N_1  and  C_4
REMARK    2  A    between atoms: C_4  and  C_5
REMARK                            x       y       z     vdW  Elec       q    Type
REMARK                         _______ _______ _______ _____ _____    ______ ____
ROOT
ATOM      1  N   UNL     1     -15.228 -11.895 -19.693  0.00  0.00    -0.354 N 
ATOM      2  N   UNL     1     -15.220 -13.795 -18.369  0.00  0.00    -0.372 N 
ATOM      3  N   UNL     1     -13.643 -13.589 -20.023  0.00  0.00    -0.372 N 
ATOM      4  C   UNL     1     -14.695 -13.081 -19.373  0.00  0.00    +0.166 C 
ATOM      5  H   UNL     1     -16.044 -11.580 -19.181  0.00  0.00    +0.163 HD
ATOM      6  H   UNL     1     -14.837 -14.692 -18.102  0.00  0.00    +0.159 HD
ATOM      7  H   UNL     1     -16.007 -13.457 -17.829  0.00  0.00    +0.159 HD
ATOM      8  H   UNL     1     -13.205 -13.103 -20.794  0.00  0.00    +0.159 HD
ATOM      9  H   UNL     1     -13.253 -14.491 -19.778  0.00  0.00    +0.159 HD
ENDROOT
BRANCH   1  10
ATOM     10  C   UNL     1     -14.699 -11.015 -20.734  0.00  0.00    +0.151 C 
BRANCH  10  11
ATOM     11  C   UNL     1     -15.552 -11.142 -21.966  0.00  0.00    -0.028 A 
ATOM     12  C   UNL     1     -15.019 -11.674 -23.149  0.00  0.00    +0.005 A 
ATOM     13  C   UNL     1     -16.895 -10.738 -21.954  0.00  0.00    +0.005 A 
ATOM     14  C   UNL     1     -15.819 -11.820 -24.285  0.00  0.00    +0.000 A 
ATOM     15  C   UNL     1     -17.691 -10.884 -23.091  0.00  0.00    +0.000 A 
ATOM     16  C   UNL     1     -17.153 -11.428 -24.255  0.00  0.00    +0.000 A 
ENDBRANCH  10  11
ENDBRANCH   1  10
TORSDOF 2
ENDMDL
MODEL 2
REMARK VINA RESULT:    -5.171      3.064      3.903
REMARK INTER + INTRA:          -5.956
REMARK INTER:                  -5.825
REMARK INTRA:                  -0.131
REMARK UNBOUND:                -0.180
REMARK  Name = 1550473
REMARK  2 active torsions:
REMARK  status: ('A' for Active; 'I' for Inactive)
REMARK    1  A    between atoms: N_1  and  C_4
REMARK    2  A    between atoms: C_4  and  C_5
REMARK                            x       y       z     vdW  Elec       q    Type
REMARK                         _______ _______ _______ _____ _____    ______ ____
ROOT
ATOM      1  N   UNL     1     -18.115  -9.372 -20.609  0.00  0.00    -0.354 N 
ATOM      2  N   UNL     1     -18.931  -7.274 -20.063  0.00  0.00    -0.372 N 
ATOM      3  N   UNL     1     -16.974  -7.988 -19.100  0.00  0.00    -0.372 N 
ATOM      4  C   UNL     1     -17.999  -8.225 -19.926  0.00  0.00    +0.166 C 
ATOM      5  H   UNL     1     -18.931  -9.503 -21.195  0.00  0.00    +0.163 HD
ATOM      6  H   UNL     1     -18.869  -6.398 -19.563  0.00  0.00    +0.159 HD
ATOM      7  H   UNL     1     -19.722  -7.389 -20.685  0.00  0.00    +0.159 HD
ATOM      8  H   UNL     1     -16.241  -8.667 -18.948  0.00  0.00    +0.159 HD
ATOM      9  H   UNL     1     -16.901  -7.121 -18.582  0.00  0.00    +0.159 HD
ENDROOT
BRANCH   1  10
ATOM     10  C   UNL     1     -17.127 -10.449 -20.572  0.00  0.00    +0.151 C 
BRANCH  10  11
ATOM     11  C   UNL     1     -16.759 -10.826 -21.980  0.00  0.00    -0.028 A 
ATOM     12  C   UNL     1     -15.434 -11.152 -22.306  0.00  0.00    +0.005 A 
ATOM     13  C   UNL     1     -17.730 -10.865 -22.992  0.00  0.00    +0.005 A 
ATOM     14  C   UNL     1     -15.097 -11.532 -23.608  0.00  0.00    +0.000 A 
ATOM     15  C   UNL     1     -17.389 -11.244 -24.290  0.00  0.00    +0.000 A 
ATOM     16  C   UNL     1     -16.073 -11.579 -24.597  0.00  0.00    +0.000 A 
ENDBRANCH  10  11
ENDBRANCH   1  10
TORSDOF 2
ENDMDL
MODEL 3
REMARK VINA RESULT:    -4.913     35.217     36.070
REMARK INTER + INTRA:          -5.667
REMARK INTER:                  -5.528
REMARK INTRA:                  -0.139
REMARK UNBOUND:                -0.180
REMARK  Name = 1550473
REMARK  2 active torsions:
REMARK  status: ('A' for Active; 'I' for Inactive)
REMARK    1  A    between atoms: N_1  and  C_4
REMARK    2  A    between atoms: C_4  and  C_5
REMARK                            x       y       z     vdW  Elec       q    Type
REMARK                         _______ _______ _______ _____ _____    ______ ____
ROOT
ATOM      1  N   UNL     1       1.597   6.636   3.184  0.00  0.00    -0.354 N 
ATOM      2  N   UNL     1       3.812   6.169   2.698  0.00  0.00    -0.372 N 
ATOM      3  N   UNL     1       3.218   8.328   3.197  0.00  0.00    -0.372 N 
ATOM      4  C   UNL     1       2.861   7.050   3.030  0.00  0.00    +0.166 C 
ATOM      5  H   UNL     1       1.386   5.659   3.013  0.00  0.00    +0.163 HD
ATOM      6  H   UNL     1       4.776   6.451   2.579  0.00  0.00    +0.159 HD
ATOM      7  H   UNL     1       3.607   5.185   2.573  0.00  0.00    +0.159 HD
ATOM      8  H   UNL     1       2.547   9.043   3.442  0.00  0.00    +0.159 HD
ATOM      9  H   UNL     1       4.175   8.632   3.071  0.00  0.00    +0.159 HD
ENDROOT
BRANCH   1  10
ATOM     10  C   UNL     1       0.496   7.505   3.596  0.00  0.00    +0.151 C 
BRANCH  10  11
ATOM     11  C   UNL     1      -0.271   6.835   4.703  0.00  0.00    -0.028 A 
ATOM     12  C   UNL     1      -1.670   6.743   4.645  0.00  0.00    +0.005 A 
ATOM     13  C   UNL     1       0.395   6.284   5.808  0.00  0.00    +0.005 A 
ATOM     14  C   UNL     1      -2.380   6.094   5.658  0.00  0.00    +0.000 A 
ATOM     15  C   UNL     1      -0.319   5.638   6.818  0.00  0.00    +0.000 A 
ATOM     16  C   UNL     1      -1.706   5.541   6.741  0.00  0.00    +0.000 A 
ENDBRANCH  10  11
ENDBRANCH   1  10
TORSDOF 2
ENDMDL
MODEL 4
REMARK VINA RESULT:    -4.887      4.283      5.789
REMARK INTER + INTRA:          -5.638
REMARK INTER:                  -5.505
REMARK INTRA:                  -0.134
REMARK UNBOUND:                -0.180
REMARK  Name = 1550473
REMARK  2 active torsions:
REMARK  status: ('A' for Active; 'I' for Inactive)
REMARK    1  A    between atoms: N_1  and  C_4
REMARK    2  A    between atoms: C_4  and  C_5
REMARK                            x       y       z     vdW  Elec       q    Type
REMARK                         _______ _______ _______ _____ _____    ______ ____
ROOT
ATOM      1  N   UNL     1     -20.006 -10.970 -24.295  0.00  0.00    -0.354 N 
ATOM      2  N   UNL     1     -22.122 -11.792 -23.835  0.00  0.00    -0.372 N 
ATOM      3  N   UNL     1     -21.106 -12.384 -25.806  0.00  0.00    -0.372 N 
ATOM      4  C   UNL     1     -21.064 -11.711 -24.651  0.00  0.00    +0.166 C 
ATOM      5  H   UNL     1     -20.048 -10.460 -23.420  0.00  0.00    +0.163 HD
ATOM      6  H   UNL     1     -22.933 -12.346 -24.075  0.00  0.00    +0.159 HD
ATOM      7  H   UNL     1     -22.142 -11.318 -22.940  0.00  0.00    +0.159 HD
ATOM      8  H   UNL     1     -20.343 -12.359 -26.468  0.00  0.00    +0.159 HD
ATOM      9  H   UNL     1     -21.914 -12.934 -26.069  0.00  0.00    +0.159 HD
ENDROOT
BRANCH   1  10
ATOM     10  C   UNL     1     -18.782 -10.859 -25.086  0.00  0.00    +0.151 C 
BRANCH  10  11
ATOM     11  C   UNL     1     -17.593 -10.996 -24.175  0.00  0.00    -0.028 A 
ATOM     12  C   UNL     1     -17.704 -10.691 -22.810  0.00  0.00    +0.005 A 
ATOM     13  C   UNL     1     -16.356 -11.436 -24.669  0.00  0.00    +0.005 A 
ATOM     14  C   UNL     1     -16.608 -10.847 -21.958  0.00  0.00    +0.000 A 
ATOM     15  C   UNL     1     -15.264 -11.589 -23.815  0.00  0.00    +0.000 A 
ATOM     16  C   UNL     1     -15.391 -11.297 -22.459  0.00  0.00    +0.000 A 
ENDBRANCH  10  11
ENDBRANCH   1  10
TORSDOF 2
ENDMDL
MODEL 5
REMARK VINA RESULT:    -4.786     12.344     13.704
REMARK INTER + INTRA:          -5.526
REMARK INTER:                  -5.364
REMARK INTRA:                  -0.161
REMARK UNBOUND:                -0.180
REMARK  Name = 1550473
REMARK  2 active torsions:
REMARK  status: ('A' for Active; 'I' for Inactive)
REMARK    1  A    between atoms: N_1  and  C_4
REMARK    2  A    between atoms: C_4  and  C_5
REMARK                            x       y       z     vdW  Elec       q    Type
REMARK                         _______ _______ _______ _____ _____    ______ ____
ROOT
ATOM      1  N   UNL     1      -8.422 -11.299 -32.168  0.00  0.00    -0.354 N 
ATOM      2  N   UNL     1      -9.454 -11.775 -34.186  0.00  0.00    -0.372 N 
ATOM      3  N   UNL     1      -7.290 -11.012 -34.200  0.00  0.00    -0.372 N 
ATOM      4  C   UNL     1      -8.379 -11.358 -33.506  0.00  0.00    +0.166 C 
ATOM      5  H   UNL     1      -9.287 -11.546 -31.703  0.00  0.00    +0.163 HD
ATOM      6  H   UNL     1      -9.450 -11.833 -35.196  0.00  0.00    +0.159 HD
ATOM      7  H   UNL     1     -10.302 -12.065 -33.716  0.00  0.00    +0.159 HD
ATOM      8  H   UNL     1      -6.448 -10.683 -33.746  0.00  0.00    +0.159 HD
ATOM      9  H   UNL     1      -7.271 -11.052 -35.211  0.00  0.00    +0.159 HD
ENDROOT
BRANCH   1  10
ATOM     10  C   UNL     1      -7.289 -10.910 -31.330  0.00  0.00    +0.151 C 
BRANCH  10  11
ATOM     11  C   UNL     1      -7.387  -9.442 -31.022  0.00  0.00    -0.028 A 
ATOM     12  C   UNL     1      -8.313  -8.972 -30.079  0.00  0.00    +0.005 A 
ATOM     13  C   UNL     1      -6.553  -8.514 -31.666  0.00  0.00    +0.005 A 
ATOM     14  C   UNL     1      -8.385  -7.612 -29.771  0.00  0.00    +0.000 A 
ATOM     15  C   UNL     1      -6.627  -7.157 -31.355  0.00  0.00    +0.000 A 
ATOM     16  C   UNL     1      -7.542  -6.706 -30.406  0.00  0.00    +0.000 A 
ENDBRANCH  10  11
ENDBRANCH   1  10
TORSDOF 2
ENDMDL
MODEL 6
REMARK VINA RESULT:    -4.626     48.595     50.237
REMARK INTER + INTRA:          -5.347
REMARK INTER:                  -5.229
REMARK INTRA:                  -0.118
REMARK UNBOUND:                -0.180
REMARK  Name = 1550473
REMARK  2 active torsions:
REMARK  status: ('A' for Active; 'I' for Inactive)
REMARK    1  A    between atoms: N_1  and  C_4
REMARK    2  A    between atoms: C_4  and  C_5
REMARK                            x       y       z     vdW  Elec       q    Type
REMARK                         _______ _______ _______ _____ _____    ______ ____
ROOT
ATOM      1  N   UNL     1      15.821   9.982   9.404  0.00  0.00    -0.354 N 
ATOM      2  N   UNL     1      15.705  11.612   7.763  0.00  0.00    -0.372 N 
ATOM      3  N   UNL     1      14.939   9.502   7.286  0.00  0.00    -0.372 N 
ATOM      4  C   UNL     1      15.488  10.352   8.160  0.00  0.00    +0.166 C 
ATOM      5  H   UNL     1      16.261  10.666  10.008  0.00  0.00    +0.163 HD
ATOM      6  H   UNL     1      15.461  11.922   6.831  0.00  0.00    +0.159 HD
ATOM      7  H   UNL     1      16.103  12.306   8.384  0.00  0.00    +0.159 HD
ATOM      8  H   UNL     1      14.755   8.536   7.522  0.00  0.00    +0.159 HD
ATOM      9  H   UNL     1      14.699   9.790   6.346  0.00  0.00    +0.159 HD
ENDROOT
BRANCH   1  10
ATOM     10  C   UNL     1      15.577   8.649   9.952  0.00  0.00    +0.151 C 
BRANCH  10  11
ATOM     11  C   UNL     1      16.500   8.421  11.118  0.00  0.00    -0.028 A 
ATOM     12  C   UNL     1      16.952   9.502  11.889  0.00  0.00    +0.005 A 
ATOM     13  C   UNL     1      16.921   7.127  11.459  0.00  0.00    +0.005 A 
ATOM     14  C   UNL     1      17.785   9.288  12.990  0.00  0.00    +0.000 A 
ATOM     15  C   UNL     1      17.754   6.918  12.558  0.00  0.00    +0.000 A 
ATOM     16  C   UNL     1      18.184   7.998  13.325  0.00  0.00    +0.000 A 
ENDBRANCH  10  11
ENDBRANCH   1  10
TORSDOF 2
ENDMDL
MODEL 7
REMARK VINA RESULT:    -4.573     41.112     42.323
REMARK INTER + INTRA:          -5.288
REMARK INTER:                  -5.149
REMARK INTRA:                  -0.139
REMARK UNBOUND:                -0.180
REMARK  Name = 1550473
REMARK  2 active torsions:
REMARK  status: ('A' for Active; 'I' for Inactive)
REMARK    1  A    between atoms: N_1  and  C_4
REMARK    2  A    between atoms: C_4  and  C_5
REMARK                            x       y       z     vdW  Elec       q    Type
REMARK                         _______ _______ _______ _____ _____    ______ ____
ROOT
ATOM      1  N   UNL     1      -1.546  -0.017  16.558  0.00  0.00    -0.354 N 
ATOM      2  N   UNL     1      -1.216  -1.119  18.568  0.00  0.00    -0.372 N 
ATOM      3  N   UNL     1      -3.349  -0.522  17.968  0.00  0.00    -0.372 N 
ATOM      4  C   UNL     1      -2.042  -0.545  17.685  0.00  0.00    +0.166 C 
ATOM      5  H   UNL     1      -0.543  -0.039  16.417  0.00  0.00    +0.163 HD
ATOM      6  H   UNL     1      -1.561  -1.529  19.425  0.00  0.00    +0.159 HD
ATOM      7  H   UNL     1      -0.219  -1.181  18.402  0.00  0.00    +0.159 HD
ATOM      8  H   UNL     1      -4.024  -0.098  17.346  0.00  0.00    +0.159 HD
ATOM      9  H   UNL     1      -3.712  -0.916  18.827  0.00  0.00    +0.159 HD
ENDROOT
BRANCH   1  10
ATOM     10  C   UNL     1      -2.366   0.584  15.507  0.00  0.00    +0.151 C 
BRANCH  10  11
ATOM     11  C   UNL     1      -1.843   1.961  15.203  0.00  0.00    -0.028 A 
ATOM     12  C   UNL     1      -1.366   2.785  16.232  0.00  0.00    +0.005 A 
ATOM     13  C   UNL     1      -1.815   2.444  13.885  0.00  0.00    +0.005 A 
ATOM     14  C   UNL     1      -0.852   4.052  15.946  0.00  0.00    +0.000 A 
ATOM     15  C   UNL     1      -1.302   3.710  13.604  0.00  0.00    +0.000 A 
ATOM     16  C   UNL     1      -0.818   4.513  14.634  0.00  0.00    +0.000 A 
ENDBRANCH  10  11
ENDBRANCH   1  10
TORSDOF 2
ENDMDL
MODEL 8
REMARK VINA RESULT:    -4.550     14.049     15.241
REMARK INTER + INTRA:          -5.263
REMARK INTER:                  -5.083
REMARK INTRA:                  -0.180
REMARK UNBOUND:                -0.180
REMARK  Name = 1550473
REMARK  2 active torsions:
REMARK  status: ('A' for Active; 'I' for Inactive)
REMARK    1  A    between atoms: N_1  and  C_4
REMARK    2  A    between atoms: C_4  and  C_5
REMARK                            x       y       z     vdW  Elec       q    Type
REMARK                         _______ _______ _______ _____ _____    ______ ____
ROOT
ATOM      1  N   UNL     1     -10.611  -2.387 -32.540  0.00  0.00    -0.354 N 
ATOM      2  N   UNL     1     -12.384  -2.646 -34.007  0.00  0.00    -0.372 N 
ATOM      3  N   UNL     1     -12.407  -3.801 -32.025  0.00  0.00    -0.372 N 
ATOM      4  C   UNL     1     -11.790  -2.945 -32.846  0.00  0.00    +0.166 C 
ATOM      5  H   UNL     1     -10.180  -1.769 -33.218  0.00  0.00    +0.163 HD
ATOM      6  H   UNL     1     -13.276  -3.049 -34.263  0.00  0.00    +0.159 HD
ATOM      7  H   UNL     1     -11.974  -1.993 -34.663  0.00  0.00    +0.159 HD
ATOM      8  H   UNL     1     -12.009  -4.073 -31.136  0.00  0.00    +0.159 HD
ATOM      9  H   UNL     1     -13.294  -4.224 -32.269  0.00  0.00    +0.159 HD
ENDROOT
BRANCH   1  10
ATOM     10  C   UNL     1      -9.906  -2.605 -31.278  0.00  0.00    +0.151 C 
BRANCH  10  11
ATOM     11  C   UNL     1      -8.840  -3.644 -31.484  0.00  0.00    -0.028 A 
ATOM     12  C   UNL     1      -7.742  -3.383 -32.317  0.00  0.00    +0.005 A 
ATOM     13  C   UNL     1      -8.918  -4.891 -30.844  0.00  0.00    +0.005 A 
ATOM     14  C   UNL     1      -6.736  -4.337 -32.485  0.00  0.00    +0.000 A 
ATOM     15  C   UNL     1      -7.911  -5.841 -31.014  0.00  0.00    +0.000 A 
ATOM     16  C   UNL     1      -6.819  -5.563 -31.833  0.00  0.00    +0.000 A 
ENDBRANCH  10  11
ENDBRANCH   1  10
TORSDOF 2
ENDMDL
MODEL 9
REMARK VINA RESULT:    -4.417     23.188     24.895
REMARK INTER + INTRA:          -5.114
REMARK INTER:                  -4.962
REMARK INTRA:                  -0.153
REMARK UNBOUND:                -0.180
REMARK  Name = 1550473
REMARK  2 active torsions:
REMARK  status: ('A' for Active; 'I' for Inactive)
REMARK    1  A    between atoms: N_1  and  C_4
REMARK    2  A    between atoms: C_4  and  C_5
REMARK                            x       y       z     vdW  Elec       q    Type
REMARK                         _______ _______ _______ _____ _____    ______ ____
ROOT
ATOM      1  N   UNL     1       5.977  -8.267  -6.998  0.00  0.00    -0.354 N 
ATOM      2  N   UNL     1       7.882  -7.490  -5.934  0.00  0.00    -0.372 N 
ATOM      3  N   UNL     1       5.886  -7.452  -4.803  0.00  0.00    -0.372 N 
ATOM      4  C   UNL     1       6.567  -7.741  -5.917  0.00  0.00    +0.166 C 
ATOM      5  H   UNL     1       6.543  -8.435  -7.822  0.00  0.00    +0.163 HD
ATOM      6  H   UNL     1       8.355  -7.096  -5.132  0.00  0.00    +0.159 HD
ATOM      7  H   UNL     1       8.454  -7.702  -6.743  0.00  0.00    +0.159 HD
ATOM      8  H   UNL     1       4.890  -7.612  -4.728  0.00  0.00    +0.159 HD
ATOM      9  H   UNL     1       6.340  -7.046  -3.994  0.00  0.00    +0.159 HD
ENDROOT
BRANCH   1  10
ATOM     10  C   UNL     1       4.562  -8.628  -7.063  0.00  0.00    +0.151 C 
BRANCH  10  11
ATOM     11  C   UNL     1       3.923  -7.903  -8.216  0.00  0.00    -0.028 A 
ATOM     12  C   UNL     1       3.895  -6.501  -8.247  0.00  0.00    +0.005 A 
ATOM     13  C   UNL     1       3.348  -8.612  -9.281  0.00  0.00    +0.005 A 
ATOM     14  C   UNL     1       3.328  -5.827  -9.332  0.00  0.00    +0.000 A 
ATOM     15  C   UNL     1       2.782  -7.936 -10.362  0.00  0.00    +0.000 A 
ATOM     16  C   UNL     1       2.775  -6.543 -10.388  0.00  0.00    +0.000 A 
ENDBRANCH  10  11
ENDBRANCH   1  10
TORSDOF 2
ENDMDL
