MODEL 1
REMARK VINA RESULT:    -5.081      0.000      0.000
REMARK INTER + INTRA:          -5.803
REMARK INTER:                  -5.675
REMARK INTRA:                  -0.128
REMARK UNBOUND:                -0.128
REMARK  Name = 1550473
REMARK  2 active torsions:
REMARK  status: ('A' for Active; 'I' for Inactive)
REMARK    1  A    between atoms: N_1  and  C_4
REMARK    2  A    between atoms: C_4  and  C_5
REMARK                            x       y       z     vdW  Elec       q    Type
REMARK                         _______ _______ _______ _____ _____    ______ ____
ROOT
ATOM      1  N   UNL     1       2.631 -13.182  -5.385  0.00  0.00    -0.354 N 
ATOM      2  N   UNL     1       2.697 -15.494  -5.501  0.00  0.00    -0.372 N 
ATOM      3  N   UNL     1       1.966 -14.312  -7.327  0.00  0.00    -0.372 N 
ATOM      4  C   UNL     1       2.430 -14.314  -6.073  0.00  0.00    +0.166 C 
ATOM      5  H   UNL     1       2.956 -13.252  -4.428  0.00  0.00    +0.163 HD
ATOM      6  H   UNL     1       2.557 -16.365  -5.997  0.00  0.00    +0.159 HD
ATOM      7  H   UNL     1       3.065 -15.559  -4.560  0.00  0.00    +0.159 HD
ATOM      8  H   UNL     1       1.739 -13.455  -7.813  0.00  0.00    +0.159 HD
ATOM      9  H   UNL     1       1.809 -15.173  -7.835  0.00  0.00    +0.159 HD
ENDROOT
BRANCH   1  10
ATOM     10  C   UNL     1       2.423 -11.843  -5.934  0.00  0.00    +0.151 C 
BRANCH  10  11
ATOM     11  C   UNL     1       2.028 -10.912  -4.821  0.00  0.00    -0.028 A 
ATOM     12  C   UNL     1       1.255 -11.375  -3.746  0.00  0.00    +0.005 A 
ATOM     13  C   UNL     1       2.428  -9.567  -4.833  0.00  0.00    +0.005 A 
ATOM     14  C   UNL     1       0.913 -10.518  -2.698  0.00  0.00    +0.000 A 
ATOM     15  C   UNL     1       2.083  -8.714  -3.785  0.00  0.00    +0.000 A 
ATOM     16  C   UNL     1       1.328  -9.190  -2.716  0.00  0.00    +0.000 A 
ENDBRANCH  10  11
ENDBRANCH   1  10
TORSDOF 2
ENDMDL
MODEL 2
REMARK VINA RESULT:    -5.056      9.008     10.082
REMARK INTER + INTRA:          -5.775
REMARK INTER:                  -5.599
REMARK INTRA:                  -0.176
REMARK UNBOUND:                -0.128
REMARK  Name = 1550473
REMARK  2 active torsions:
REMARK  status: ('A' for Active; 'I' for Inactive)
REMARK    1  A    between atoms: N_1  and  C_4
REMARK    2  A    between atoms: C_4  and  C_5
REMARK                            x       y       z     vdW  Elec       q    Type
REMARK                         _______ _______ _______ _____ _____    ______ ____
ROOT
ATOM      1  N   UNL     1       3.224  -3.188  -0.438  0.00  0.00    -0.354 N 
ATOM      2  N   UNL     1       5.132  -4.479  -0.208  0.00  0.00    -0.372 N 
ATOM      3  N   UNL     1       4.188  -3.552   1.666  0.00  0.00    -0.372 N 
ATOM      4  C   UNL     1       4.168  -3.730   0.341  0.00  0.00    +0.166 C 
ATOM      5  H   UNL     1       3.282  -3.336  -1.439  0.00  0.00    +0.163 HD
ATOM      6  H   UNL     1       5.857  -4.904   0.356  0.00  0.00    +0.159 HD
ATOM      7  H   UNL     1       5.162  -4.663  -1.203  0.00  0.00    +0.159 HD
ATOM      8  H   UNL     1       3.492  -2.992   2.142  0.00  0.00    +0.159 HD
ATOM      9  H   UNL     1       4.911  -3.959   2.246  0.00  0.00    +0.159 HD
ENDROOT
BRANCH   1  10
ATOM     10  C   UNL     1       2.100  -2.401   0.066  0.00  0.00    +0.151 C 
BRANCH  10  11
ATOM     11  C   UNL     1       0.866  -3.260   0.080  0.00  0.00    -0.028 A 
ATOM     12  C   UNL     1       0.424  -3.891  -1.092  0.00  0.00    +0.005 A 
ATOM     13  C   UNL     1       0.136  -3.451   1.264  0.00  0.00    +0.005 A 
ATOM     14  C   UNL     1      -0.705  -4.713  -1.073  0.00  0.00    +0.000 A 
ATOM     15  C   UNL     1      -0.992  -4.272   1.278  0.00  0.00    +0.000 A 
ATOM     16  C   UNL     1      -1.410  -4.904   0.110  0.00  0.00    +0.000 A 
ENDBRANCH  10  11
ENDBRANCH   1  10
TORSDOF 2
ENDMDL
MODEL 3
REMARK VINA RESULT:    -4.830     11.377     13.252
REMARK INTER + INTRA:          -5.523
REMARK INTER:                  -5.405
REMARK INTRA:                  -0.117
REMARK UNBOUND:                -0.128
REMARK  Name = 1550473
REMARK  2 active torsions:
REMARK  status: ('A' for Active; 'I' for Inactive)
REMARK    1  A    between atoms: N_1  and  C_4
REMARK    2  A    between atoms: C_4  and  C_5
REMARK                            x       y       z     vdW  Elec       q    Type
REMARK                         _______ _______ _______ _____ _____    ______ ____
ROOT
ATOM      1  N   UNL     1       1.458  -1.850   1.922  0.00  0.00    -0.354 N 
ATOM      2  N   UNL     1      -0.533  -3.012   2.141  0.00  0.00    -0.372 N 
ATOM      3  N   UNL     1       1.034  -3.770   0.646  0.00  0.00    -0.372 N 
ATOM      4  C   UNL     1       0.667  -2.871   1.566  0.00  0.00    +0.166 C 
ATOM      5  H   UNL     1       1.109  -1.186   2.603  0.00  0.00    +0.163 HD
ATOM      6  H   UNL     1      -1.151  -3.775   1.895  0.00  0.00    +0.159 HD
ATOM      7  H   UNL     1      -0.861  -2.373   2.855  0.00  0.00    +0.159 HD
ATOM      8  H   UNL     1       1.925  -3.717   0.171  0.00  0.00    +0.159 HD
ATOM      9  H   UNL     1       0.425  -4.533   0.379  0.00  0.00    +0.159 HD
ENDROOT
BRANCH   1  10
ATOM     10  C   UNL     1       2.805  -1.638   1.395  0.00  0.00    +0.151 C 
BRANCH  10  11
ATOM     11  C   UNL     1       3.334  -0.329   1.913  0.00  0.00    -0.028 A 
ATOM     12  C   UNL     1       4.301   0.385   1.190  0.00  0.00    +0.005 A 
ATOM     13  C   UNL     1       2.867   0.207   3.123  0.00  0.00    +0.005 A 
ATOM     14  C   UNL     1       4.771   1.615   1.655  0.00  0.00    +0.000 A 
ATOM     15  C   UNL     1       3.339   1.436   3.585  0.00  0.00    +0.000 A 
ATOM     16  C   UNL     1       4.289   2.141   2.849  0.00  0.00    +0.000 A 
ENDBRANCH  10  11
ENDBRANCH   1  10
TORSDOF 2
ENDMDL
MODEL 4
REMARK VINA RESULT:    -4.782     12.961     14.100
REMARK INTER + INTRA:          -5.469
REMARK INTER:                  -5.301
REMARK INTRA:                  -0.169
REMARK UNBOUND:                -0.128
REMARK  Name = 1550473
REMARK  2 active torsions:
REMARK  status: ('A' for Active; 'I' for Inactive)
REMARK    1  A    between atoms: N_1  and  C_4
REMARK    2  A    between atoms: C_4  and  C_5
REMARK                            x       y       z     vdW  Elec       q    Type
REMARK                         _______ _______ _______ _____ _____    ______ ____
ROOT
ATOM      1  N   UNL     1       7.825   0.597  -0.142  0.00  0.00    -0.354 N 
ATOM      2  N   UNL     1       9.778  -0.647  -0.069  0.00  0.00    -0.372 N 
ATOM      3  N   UNL     1       8.020  -1.415  -1.328  0.00  0.00    -0.372 N 
ATOM      4  C   UNL     1       8.527  -0.482  -0.515  0.00  0.00    +0.166 C 
ATOM      5  H   UNL     1       8.256   1.253   0.501  0.00  0.00    +0.163 HD
ATOM      6  H   UNL     1      10.332  -1.449  -0.335  0.00  0.00    +0.159 HD
ATOM      7  H   UNL     1      10.221   0.033   0.537  0.00  0.00    +0.159 HD
ATOM      8  H   UNL     1       7.080  -1.352  -1.695  0.00  0.00    +0.159 HD
ATOM      9  H   UNL     1       8.556  -2.230  -1.597  0.00  0.00    +0.159 HD
ENDROOT
BRANCH   1  10
ATOM     10  C   UNL     1       6.475   0.898  -0.614  0.00  0.00    +0.151 C 
BRANCH  10  11
ATOM     11  C   UNL     1       5.514   0.777   0.536  0.00  0.00    -0.028 A 
ATOM     12  C   UNL     1       5.221   1.889   1.339  0.00  0.00    +0.005 A 
ATOM     13  C   UNL     1       4.888  -0.445   0.824  0.00  0.00    +0.005 A 
ATOM     14  C   UNL     1       4.306   1.785   2.389  0.00  0.00    +0.000 A 
ATOM     15  C   UNL     1       3.975  -0.545   1.874  0.00  0.00    +0.000 A 
ATOM     16  C   UNL     1       3.683   0.570   2.654  0.00  0.00    +0.000 A 
ENDBRANCH  10  11
ENDBRANCH   1  10
TORSDOF 2
ENDMDL
MODEL 5
REMARK VINA RESULT:    -4.779     14.526     16.112
REMARK INTER + INTRA:          -5.466
REMARK INTER:                  -5.352
REMARK INTRA:                  -0.114
REMARK UNBOUND:                -0.128
REMARK  Name = 1550473
REMARK  2 active torsions:
REMARK  status: ('A' for Active; 'I' for Inactive)
REMARK    1  A    between atoms: N_1  and  C_4
REMARK    2  A    between atoms: C_4  and  C_5
REMARK                            x       y       z     vdW  Elec       q    Type
REMARK                         _______ _______ _______ _____ _____    ______ ____
ROOT
ATOM      1  N   UNL     1       2.544   3.783   1.192  0.00  0.00    -0.354 N 
ATOM      2  N   UNL     1       1.133   5.598   0.908  0.00  0.00    -0.372 N 
ATOM      3  N   UNL     1       2.877   5.310  -0.555  0.00  0.00    -0.372 N 
ATOM      4  C   UNL     1       2.196   4.886   0.515  0.00  0.00    +0.166 C 
ATOM      5  H   UNL     1       2.004   3.531   2.012  0.00  0.00    +0.163 HD
ATOM      6  H   UNL     1       0.845   6.432   0.415  0.00  0.00    +0.159 HD
ATOM      7  H   UNL     1       0.568   5.319   1.701  0.00  0.00    +0.159 HD
ATOM      8  H   UNL     1       3.692   4.820  -0.899  0.00  0.00    +0.159 HD
ATOM      9  H   UNL     1       2.611   6.149  -1.054  0.00  0.00    +0.159 HD
ENDROOT
BRANCH   1  10
ATOM     10  C   UNL     1       3.651   2.907   0.814  0.00  0.00    +0.151 C 
BRANCH  10  11
ATOM     11  C   UNL     1       3.568   1.636   1.614  0.00  0.00    -0.028 A 
ATOM     12  C   UNL     1       3.093   1.656   2.933  0.00  0.00    +0.005 A 
ATOM     13  C   UNL     1       3.957   0.409   1.056  0.00  0.00    +0.005 A 
ATOM     14  C   UNL     1       2.986   0.471   3.666  0.00  0.00    +0.000 A 
ATOM     15  C   UNL     1       3.850  -0.771   1.792  0.00  0.00    +0.000 A 
ATOM     16  C   UNL     1       3.362  -0.740   3.096  0.00  0.00    +0.000 A 
ENDBRANCH  10  11
ENDBRANCH   1  10
TORSDOF 2
ENDMDL
MODEL 6
REMARK VINA RESULT:    -4.696      1.742      2.195
REMARK INTER + INTRA:          -5.373
REMARK INTER:                  -5.218
REMARK INTRA:                  -0.155
REMARK UNBOUND:                -0.128
REMARK  Name = 1550473
REMARK  2 active torsions:
REMARK  status: ('A' for Active; 'I' for Inactive)
REMARK    1  A    between atoms: N_1  and  C_4
REMARK    2  A    between atoms: C_4  and  C_5
REMARK                            x       y       z     vdW  Elec       q    Type
REMARK                         _______ _______ _______ _____ _____    ______ ____
ROOT
ATOM      1  N   UNL     1       1.227 -10.809  -6.898  0.00  0.00    -0.354 N 
ATOM      2  N   UNL     1       0.037 -12.354  -8.146  0.00  0.00    -0.372 N 
ATOM      3  N   UNL     1       2.203 -12.834  -7.561  0.00  0.00    -0.372 N 
ATOM      4  C   UNL     1       1.166 -11.990  -7.527  0.00  0.00    +0.166 C 
ATOM      5  H   UNL     1       0.417 -10.202  -6.934  0.00  0.00    +0.163 HD
ATOM      6  H   UNL     1      -0.041 -13.241  -8.626  0.00  0.00    +0.159 HD
ATOM      7  H   UNL     1      -0.787 -11.765  -8.142  0.00  0.00    +0.159 HD
ATOM      8  H   UNL     1       3.085 -12.616  -7.118  0.00  0.00    +0.159 HD
ATOM      9  H   UNL     1       2.149 -13.721  -8.046  0.00  0.00    +0.159 HD
ENDROOT
BRANCH   1  10
ATOM     10  C   UNL     1       2.392 -10.342  -6.148  0.00  0.00    +0.151 C 
BRANCH  10  11
ATOM     11  C   UNL     1       2.001 -10.141  -4.709  0.00  0.00    -0.028 A 
ATOM     12  C   UNL     1       1.942 -11.231  -3.828  0.00  0.00    +0.005 A 
ATOM     13  C   UNL     1       1.694  -8.862  -4.220  0.00  0.00    +0.005 A 
ATOM     14  C   UNL     1       1.609 -11.040  -2.485  0.00  0.00    +0.000 A 
ATOM     15  C   UNL     1       1.361  -8.676  -2.878  0.00  0.00    +0.000 A 
ATOM     16  C   UNL     1       1.320  -9.765  -2.011  0.00  0.00    +0.000 A 
ENDBRANCH  10  11
ENDBRANCH   1  10
TORSDOF 2
ENDMDL
MODEL 7
REMARK VINA RESULT:    -4.648      9.471     10.266
REMARK INTER + INTRA:          -5.319
REMARK INTER:                  -5.187
REMARK INTRA:                  -0.132
REMARK UNBOUND:                -0.128
REMARK  Name = 1550473
REMARK  2 active torsions:
REMARK  status: ('A' for Active; 'I' for Inactive)
REMARK    1  A    between atoms: N_1  and  C_4
REMARK    2  A    between atoms: C_4  and  C_5
REMARK                            x       y       z     vdW  Elec       q    Type
REMARK                         _______ _______ _______ _____ _____    ______ ____
ROOT
ATOM      1  N   UNL     1      -1.520  -2.457  -3.379  0.00  0.00    -0.354 N 
ATOM      2  N   UNL     1      -1.872  -0.425  -4.432  0.00  0.00    -0.372 N 
ATOM      3  N   UNL     1       0.005  -1.636  -4.958  0.00  0.00    -0.372 N 
ATOM      4  C   UNL     1      -1.124  -1.520  -4.250  0.00  0.00    +0.166 C 
ATOM      5  H   UNL     1      -2.371  -2.296  -2.852  0.00  0.00    +0.163 HD
ATOM      6  H   UNL     1      -1.600   0.298  -5.085  0.00  0.00    +0.159 HD
ATOM      7  H   UNL     1      -2.745  -0.287  -3.937  0.00  0.00    +0.159 HD
ATOM      8  H   UNL     1       0.616  -2.436  -4.862  0.00  0.00    +0.159 HD
ATOM      9  H   UNL     1       0.299  -0.918  -5.607  0.00  0.00    +0.159 HD
ENDROOT
BRANCH   1  10
ATOM     10  C   UNL     1      -0.807  -3.712  -3.147  0.00  0.00    +0.151 C 
BRANCH  10  11
ATOM     11  C   UNL     1      -0.646  -3.919  -1.666  0.00  0.00    -0.028 A 
ATOM     12  C   UNL     1       0.346  -3.228  -0.955  0.00  0.00    +0.005 A 
ATOM     13  C   UNL     1      -1.486  -4.800  -0.968  0.00  0.00    +0.005 A 
ATOM     14  C   UNL     1       0.476  -3.398   0.426  0.00  0.00    +0.000 A 
ATOM     15  C   UNL     1      -1.352  -4.967   0.410  0.00  0.00    +0.000 A 
ATOM     16  C   UNL     1      -0.372  -4.264   1.107  0.00  0.00    +0.000 A 
ENDBRANCH  10  11
ENDBRANCH   1  10
TORSDOF 2
ENDMDL
MODEL 8
REMARK VINA RESULT:    -4.604     10.060     11.475
REMARK INTER + INTRA:          -5.270
REMARK INTER:                  -5.146
REMARK INTRA:                  -0.125
REMARK UNBOUND:                -0.128
REMARK  Name = 1550473
REMARK  2 active torsions:
REMARK  status: ('A' for Active; 'I' for Inactive)
REMARK    1  A    between atoms: N_1  and  C_4
REMARK    2  A    between atoms: C_4  and  C_5
REMARK                            x       y       z     vdW  Elec       q    Type
REMARK                         _______ _______ _______ _____ _____    ______ ____
ROOT
ATOM      1  N   UNL     1       1.993  -2.076   1.668  0.00  0.00    -0.354 N 
ATOM      2  N   UNL     1       2.895  -0.743   3.334  0.00  0.00    -0.372 N 
ATOM      3  N   UNL     1       3.489  -0.347   1.153  0.00  0.00    -0.372 N 
ATOM      4  C   UNL     1       2.788  -1.063   2.039  0.00  0.00    +0.166 C 
ATOM      5  H   UNL     1       1.512  -2.599   2.391  0.00  0.00    +0.163 HD
ATOM      6  H   UNL     1       3.484   0.018   3.643  0.00  0.00    +0.159 HD
ATOM      7  H   UNL     1       2.377  -1.238   4.050  0.00  0.00    +0.159 HD
ATOM      8  H   UNL     1       3.457  -0.542   0.162  0.00  0.00    +0.159 HD
ATOM      9  H   UNL     1       4.094   0.411   1.445  0.00  0.00    +0.159 HD
ENDROOT
BRANCH   1  10
ATOM     10  C   UNL     1       1.765  -2.471   0.279  0.00  0.00    +0.151 C 
BRANCH  10  11
ATOM     11  C   UNL     1       0.596  -3.414   0.223  0.00  0.00    -0.028 A 
ATOM     12  C   UNL     1      -0.067  -3.799   1.398  0.00  0.00    +0.005 A 
ATOM     13  C   UNL     1       0.141  -3.922  -1.004  0.00  0.00    +0.005 A 
ATOM     14  C   UNL     1      -1.172  -4.651   1.342  0.00  0.00    +0.000 A 
ATOM     15  C   UNL     1      -0.962  -4.774  -1.055  0.00  0.00    +0.000 A 
ATOM     16  C   UNL     1      -1.620  -5.136   0.118  0.00  0.00    +0.000 A 
ENDBRANCH  10  11
ENDBRANCH   1  10
TORSDOF 2
ENDMDL
MODEL 9
REMARK VINA RESULT:    -4.410     14.071     15.233
REMARK INTER + INTRA:          -5.054
REMARK INTER:                  -4.915
REMARK INTRA:                  -0.139
REMARK UNBOUND:                -0.128
REMARK  Name = 1550473
REMARK  2 active torsions:
REMARK  status: ('A' for Active; 'I' for Inactive)
REMARK    1  A    between atoms: N_1  and  C_4
REMARK    2  A    between atoms: C_4  and  C_5
REMARK                            x       y       z     vdW  Elec       q    Type
REMARK                         _______ _______ _______ _____ _____    ______ ____
ROOT
ATOM      1  N   UNL     1       6.514   1.969   0.201  0.00  0.00    -0.354 N 
ATOM      2  N   UNL     1       7.462   3.879  -0.703  0.00  0.00    -0.372 N 
ATOM      3  N   UNL     1       6.251   2.488  -2.069  0.00  0.00    -0.372 N 
ATOM      4  C   UNL     1       6.735   2.765  -0.854  0.00  0.00    +0.166 C 
ATOM      5  H   UNL     1       6.934   2.219   1.089  0.00  0.00    +0.163 HD
ATOM      6  H   UNL     1       7.643   4.500  -1.480  0.00  0.00    +0.159 HD
ATOM      7  H   UNL     1       7.842   4.150   0.195  0.00  0.00    +0.159 HD
ATOM      8  H   UNL     1       5.699   1.660  -2.250  0.00  0.00    +0.159 HD
ATOM      9  H   UNL     1       6.431   3.092  -2.861  0.00  0.00    +0.159 HD
ENDROOT
BRANCH   1  10
ATOM     10  C   UNL     1       5.691   0.762   0.156  0.00  0.00    +0.151 C 
BRANCH  10  11
ATOM     11  C   UNL     1       4.783   0.741   1.355  0.00  0.00    -0.028 A 
ATOM     12  C   UNL     1       4.565   1.907   2.103  0.00  0.00    +0.005 A 
ATOM     13  C   UNL     1       4.134  -0.441   1.744  0.00  0.00    +0.005 A 
ATOM     14  C   UNL     1       3.698   1.895   3.199  0.00  0.00    +0.000 A 
ATOM     15  C   UNL     1       3.271  -0.449   2.840  0.00  0.00    +0.000 A 
ATOM     16  C   UNL     1       3.051   0.720   3.565  0.00  0.00    +0.000 A 
ENDBRANCH  10  11
ENDBRANCH   1  10
TORSDOF 2
ENDMDL
