MODEL 1
REMARK VINA RESULT:    -4.857      0.000      0.000
REMARK INTER + INTRA:          -5.534
REMARK INTER:                  -5.425
REMARK INTRA:                  -0.109
REMARK UNBOUND:                -0.109
REMARK  Name = 1550473
REMARK  2 active torsions:
REMARK  status: ('A' for Active; 'I' for Inactive)
REMARK    1  A    between atoms: N_1  and  C_4
REMARK    2  A    between atoms: C_4  and  C_5
REMARK                            x       y       z     vdW  Elec       q    Type
REMARK                         _______ _______ _______ _____ _____    ______ ____
ROOT
ATOM      1  N   UNL     1      13.065   1.305   2.533  0.00  0.00    -0.354 N 
ATOM      2  N   UNL     1      12.378   3.471   2.979  0.00  0.00    -0.372 N 
ATOM      3  N   UNL     1      13.092   2.154   4.717  0.00  0.00    -0.372 N 
ATOM      4  C   UNL     1      12.850   2.295   3.410  0.00  0.00    +0.166 C 
ATOM      5  H   UNL     1      12.832   1.465   1.560  0.00  0.00    +0.163 HD
ATOM      6  H   UNL     1      12.209   4.238   3.617  0.00  0.00    +0.159 HD
ATOM      7  H   UNL     1      12.190   3.644   1.999  0.00  0.00    +0.159 HD
ATOM      8  H   UNL     1      13.443   1.289   5.107  0.00  0.00    +0.159 HD
ATOM      9  H   UNL     1      12.918   2.906   5.373  0.00  0.00    +0.159 HD
ENDROOT
BRANCH   1  10
ATOM     10  C   UNL     1      13.627   0.004   2.891  0.00  0.00    +0.151 C 
BRANCH  10  11
ATOM     11  C   UNL     1      13.161  -1.023   1.896  0.00  0.00    -0.028 A 
ATOM     12  C   UNL     1      12.670  -2.263   2.330  0.00  0.00    +0.005 A 
ATOM     13  C   UNL     1      13.202  -0.760   0.518  0.00  0.00    +0.005 A 
ATOM     14  C   UNL     1      12.209  -3.206   1.408  0.00  0.00    +0.000 A 
ATOM     15  C   UNL     1      12.742  -1.704  -0.399  0.00  0.00    +0.000 A 
ATOM     16  C   UNL     1      12.243  -2.926   0.046  0.00  0.00    +0.000 A 
ENDBRANCH  10  11
ENDBRANCH   1  10
TORSDOF 2
ENDMDL
MODEL 2
REMARK VINA RESULT:    -4.590      1.697      2.526
REMARK INTER + INTRA:          -5.236
REMARK INTER:                  -5.109
REMARK INTRA:                  -0.127
REMARK UNBOUND:                -0.109
REMARK  Name = 1550473
REMARK  2 active torsions:
REMARK  status: ('A' for Active; 'I' for Inactive)
REMARK    1  A    between atoms: N_1  and  C_4
REMARK    2  A    between atoms: C_4  and  C_5
REMARK                            x       y       z     vdW  Elec       q    Type
REMARK                         _______ _______ _______ _____ _____    ______ ____
ROOT
ATOM      1  N   UNL     1      13.240   1.137   5.487  0.00  0.00    -0.354 N 
ATOM      2  N   UNL     1      12.632   1.774   7.629  0.00  0.00    -0.372 N 
ATOM      3  N   UNL     1      12.875   3.390   6.018  0.00  0.00    -0.372 N 
ATOM      4  C   UNL     1      12.920   2.099   6.363  0.00  0.00    +0.166 C 
ATOM      5  H   UNL     1      13.286   0.180   5.818  0.00  0.00    +0.163 HD
ATOM      6  H   UNL     1      12.383   2.478   8.311  0.00  0.00    +0.159 HD
ATOM      7  H   UNL     1      12.633   0.812   7.946  0.00  0.00    +0.159 HD
ATOM      8  H   UNL     1      13.087   3.701   5.080  0.00  0.00    +0.159 HD
ATOM      9  H   UNL     1      12.640   4.110   6.690  0.00  0.00    +0.159 HD
ENDROOT
BRANCH   1  10
ATOM     10  C   UNL     1      13.518   1.379   4.073  0.00  0.00    +0.151 C 
BRANCH  10  11
ATOM     11  C   UNL     1      13.233   0.124   3.294  0.00  0.00    -0.028 A 
ATOM     12  C   UNL     1      12.993  -1.087   3.960  0.00  0.00    +0.005 A 
ATOM     13  C   UNL     1      13.195   0.141   1.892  0.00  0.00    +0.005 A 
ATOM     14  C   UNL     1      12.698  -2.247   3.238  0.00  0.00    +0.000 A 
ATOM     15  C   UNL     1      12.901  -1.019   1.175  0.00  0.00    +0.000 A 
ATOM     16  C   UNL     1      12.651  -2.212   1.849  0.00  0.00    +0.000 A 
ENDBRANCH  10  11
ENDBRANCH   1  10
TORSDOF 2
ENDMDL
MODEL 3
REMARK VINA RESULT:    -4.504      3.269      4.574
REMARK INTER + INTRA:          -5.140
REMARK INTER:                  -5.015
REMARK INTRA:                  -0.124
REMARK UNBOUND:                -0.109
REMARK  Name = 1550473
REMARK  2 active torsions:
REMARK  status: ('A' for Active; 'I' for Inactive)
REMARK    1  A    between atoms: N_1  and  C_4
REMARK    2  A    between atoms: C_4  and  C_5
REMARK                            x       y       z     vdW  Elec       q    Type
REMARK                         _______ _______ _______ _____ _____    ______ ____
ROOT
ATOM      1  N   UNL     1      12.493  -0.357  -1.661  0.00  0.00    -0.354 N 
ATOM      2  N   UNL     1      12.387   1.376  -3.194  0.00  0.00    -0.372 N 
ATOM      3  N   UNL     1      13.774  -0.401  -3.623  0.00  0.00    -0.372 N 
ATOM      4  C   UNL     1      12.888   0.193  -2.817  0.00  0.00    +0.166 C 
ATOM      5  H   UNL     1      11.841   0.158  -1.081  0.00  0.00    +0.163 HD
ATOM      6  H   UNL     1      12.663   1.813  -4.063  0.00  0.00    +0.159 HD
ATOM      7  H   UNL     1      11.701   1.867  -2.634  0.00  0.00    +0.159 HD
ATOM      8  H   UNL     1      14.194  -1.292  -3.393  0.00  0.00    +0.159 HD
ATOM      9  H   UNL     1      14.072   0.027  -4.491  0.00  0.00    +0.159 HD
ENDROOT
BRANCH   1  10
ATOM     10  C   UNL     1      12.937  -1.666  -1.185  0.00  0.00    +0.151 C 
BRANCH  10  11
ATOM     11  C   UNL     1      12.850  -1.698   0.316  0.00  0.00    -0.028 A 
ATOM     12  C   UNL     1      12.524  -2.887   0.985  0.00  0.00    +0.005 A 
ATOM     13  C   UNL     1      13.099  -0.544   1.075  0.00  0.00    +0.005 A 
ATOM     14  C   UNL     1      12.473  -2.924   2.381  0.00  0.00    +0.000 A 
ATOM     15  C   UNL     1      13.046  -0.585   2.468  0.00  0.00    +0.000 A 
ATOM     16  C   UNL     1      12.735  -1.776   3.121  0.00  0.00    +0.000 A 
ENDBRANCH  10  11
ENDBRANCH   1  10
TORSDOF 2
ENDMDL
MODEL 4
REMARK VINA RESULT:    -4.482      5.551      6.847
REMARK INTER + INTRA:          -5.115
REMARK INTER:                  -4.991
REMARK INTRA:                  -0.124
REMARK UNBOUND:                -0.109
REMARK  Name = 1550473
REMARK  2 active torsions:
REMARK  status: ('A' for Active; 'I' for Inactive)
REMARK    1  A    between atoms: N_1  and  C_4
REMARK    2  A    between atoms: C_4  and  C_5
REMARK                            x       y       z     vdW  Elec       q    Type
REMARK                         _______ _______ _______ _____ _____    ______ ____
ROOT
ATOM      1  N   UNL     1      13.854   0.038  -3.820  0.00  0.00    -0.354 N 
ATOM      2  N   UNL     1      12.286   1.572  -4.563  0.00  0.00    -0.372 N 
ATOM      3  N   UNL     1      11.860   0.392  -2.641  0.00  0.00    -0.372 N 
ATOM      4  C   UNL     1      12.675   0.656  -3.668  0.00  0.00    +0.166 C 
ATOM      5  H   UNL     1      14.413   0.261  -4.636  0.00  0.00    +0.163 HD
ATOM      6  H   UNL     1      11.403   2.057  -4.472  0.00  0.00    +0.159 HD
ATOM      7  H   UNL     1      12.867   1.826  -5.352  0.00  0.00    +0.159 HD
ATOM      8  H   UNL     1      12.093  -0.293  -1.935  0.00  0.00    +0.159 HD
ATOM      9  H   UNL     1      10.967   0.858  -2.540  0.00  0.00    +0.159 HD
ENDROOT
BRANCH   1  10
ATOM     10  C   UNL     1      14.396  -0.935  -2.873  0.00  0.00    +0.151 C 
BRANCH  10  11
ATOM     11  C   UNL     1      15.898  -0.890  -2.927  0.00  0.00    -0.028 A 
ATOM     12  C   UNL     1      16.555  -0.384  -4.058  0.00  0.00    +0.005 A 
ATOM     13  C   UNL     1      16.670  -1.346  -1.848  0.00  0.00    +0.005 A 
ATOM     14  C   UNL     1      17.949  -0.314  -4.097  0.00  0.00    +0.000 A 
ATOM     15  C   UNL     1      18.062  -1.275  -1.890  0.00  0.00    +0.000 A 
ATOM     16  C   UNL     1      18.702  -0.757  -3.014  0.00  0.00    +0.000 A 
ENDBRANCH  10  11
ENDBRANCH   1  10
TORSDOF 2
ENDMDL
MODEL 5
REMARK VINA RESULT:    -4.449     21.141     22.113
REMARK INTER + INTRA:          -5.079
REMARK INTER:                  -4.937
REMARK INTRA:                  -0.142
REMARK UNBOUND:                -0.109
REMARK  Name = 1550473
REMARK  2 active torsions:
REMARK  status: ('A' for Active; 'I' for Inactive)
REMARK    1  A    between atoms: N_1  and  C_4
REMARK    2  A    between atoms: C_4  and  C_5
REMARK                            x       y       z     vdW  Elec       q    Type
REMARK                         _______ _______ _______ _____ _____    ______ ____
ROOT
ATOM      1  N   UNL     1      -7.636  -6.844   0.235  0.00  0.00    -0.354 N 
ATOM      2  N   UNL     1      -5.981  -5.768   1.447  0.00  0.00    -0.372 N 
ATOM      3  N   UNL     1      -5.976  -8.061   1.355  0.00  0.00    -0.372 N 
ATOM      4  C   UNL     1      -6.541  -6.901   1.005  0.00  0.00    +0.166 C 
ATOM      5  H   UNL     1      -8.033  -5.934   0.030  0.00  0.00    +0.163 HD
ATOM      6  H   UNL     1      -5.153  -5.780   2.027  0.00  0.00    +0.159 HD
ATOM      7  H   UNL     1      -6.353  -4.859   1.203  0.00  0.00    +0.159 HD
ATOM      8  H   UNL     1      -6.354  -8.951   1.059  0.00  0.00    +0.159 HD
ATOM      9  H   UNL     1      -5.154  -8.094   1.945  0.00  0.00    +0.159 HD
ENDROOT
BRANCH   1  10
ATOM     10  C   UNL     1      -8.292  -8.016  -0.342  0.00  0.00    +0.151 C 
BRANCH  10  11
ATOM     11  C   UNL     1      -8.258  -7.908  -1.842  0.00  0.00    -0.028 A 
ATOM     12  C   UNL     1      -8.714  -8.967  -2.642  0.00  0.00    +0.005 A 
ATOM     13  C   UNL     1      -7.778  -6.748  -2.469  0.00  0.00    +0.005 A 
ATOM     14  C   UNL     1      -8.711  -8.856  -4.034  0.00  0.00    +0.000 A 
ATOM     15  C   UNL     1      -7.776  -6.642  -3.860  0.00  0.00    +0.000 A 
ATOM     16  C   UNL     1      -8.245  -7.695  -4.642  0.00  0.00    +0.000 A 
ENDBRANCH  10  11
ENDBRANCH   1  10
TORSDOF 2
ENDMDL
MODEL 6
REMARK VINA RESULT:    -4.414      2.809      3.217
REMARK INTER + INTRA:          -5.039
REMARK INTER:                  -4.890
REMARK INTRA:                  -0.149
REMARK UNBOUND:                -0.109
REMARK  Name = 1550473
REMARK  2 active torsions:
REMARK  status: ('A' for Active; 'I' for Inactive)
REMARK    1  A    between atoms: N_1  and  C_4
REMARK    2  A    between atoms: C_4  and  C_5
REMARK                            x       y       z     vdW  Elec       q    Type
REMARK                         _______ _______ _______ _____ _____    ______ ____
ROOT
ATOM      1  N   UNL     1      12.709  -1.529   5.422  0.00  0.00    -0.354 N 
ATOM      2  N   UNL     1      11.868   0.027   6.916  0.00  0.00    -0.372 N 
ATOM      3  N   UNL     1      14.123  -0.397   6.910  0.00  0.00    -0.372 N 
ATOM      4  C   UNL     1      12.908  -0.643   6.407  0.00  0.00    +0.166 C 
ATOM      5  H   UNL     1      11.760  -1.692   5.105  0.00  0.00    +0.163 HD
ATOM      6  H   UNL     1      11.987   0.704   7.658  0.00  0.00    +0.159 HD
ATOM      7  H   UNL     1      10.926  -0.104   6.567  0.00  0.00    +0.159 HD
ATOM      8  H   UNL     1      14.948  -0.874   6.573  0.00  0.00    +0.159 HD
ATOM      9  H   UNL     1      14.261   0.268   7.660  0.00  0.00    +0.159 HD
ENDROOT
BRANCH   1  10
ATOM     10  C   UNL     1      13.781  -2.272   4.762  0.00  0.00    +0.151 C 
BRANCH  10  11
ATOM     11  C   UNL     1      13.792  -1.924   3.299  0.00  0.00    -0.028 A 
ATOM     12  C   UNL     1      12.656  -1.367   2.691  0.00  0.00    +0.005 A 
ATOM     13  C   UNL     1      14.935  -2.142   2.516  0.00  0.00    +0.005 A 
ATOM     14  C   UNL     1      12.675  -1.016   1.339  0.00  0.00    +0.000 A 
ATOM     15  C   UNL     1      14.950  -1.791   1.166  0.00  0.00    +0.000 A 
ATOM     16  C   UNL     1      13.821  -1.225   0.579  0.00  0.00    +0.000 A 
ENDBRANCH  10  11
ENDBRANCH   1  10
TORSDOF 2
ENDMDL
MODEL 7
REMARK VINA RESULT:    -4.413      2.529      3.869
REMARK INTER + INTRA:          -5.038
REMARK INTER:                  -4.947
REMARK INTRA:                  -0.091
REMARK UNBOUND:                -0.109
REMARK  Name = 1550473
REMARK  2 active torsions:
REMARK  status: ('A' for Active; 'I' for Inactive)
REMARK    1  A    between atoms: N_1  and  C_4
REMARK    2  A    between atoms: C_4  and  C_5
REMARK                            x       y       z     vdW  Elec       q    Type
REMARK                         _______ _______ _______ _____ _____    ______ ____
ROOT
ATOM      1  N   UNL     1      12.937  -0.426   1.000  0.00  0.00    -0.354 N 
ATOM      2  N   UNL     1      12.923   0.463   3.139  0.00  0.00    -0.372 N 
ATOM      3  N   UNL     1      12.136  -1.668   2.819  0.00  0.00    -0.372 N 
ATOM      4  C   UNL     1      12.664  -0.552   2.306  0.00  0.00    +0.166 C 
ATOM      5  H   UNL     1      13.308   0.457   0.669  0.00  0.00    +0.163 HD
ATOM      6  H   UNL     1      12.731   0.396   4.129  0.00  0.00    +0.159 HD
ATOM      7  H   UNL     1      13.337   1.328   2.812  0.00  0.00    +0.159 HD
ATOM      8  H   UNL     1      11.912  -2.468   2.243  0.00  0.00    +0.159 HD
ATOM      9  H   UNL     1      11.926  -1.750   3.806  0.00  0.00    +0.159 HD
ENDROOT
BRANCH   1  10
ATOM     10  C   UNL     1      12.743  -1.491   0.018  0.00  0.00    +0.151 C 
BRANCH  10  11
ATOM     11  C   UNL     1      13.307  -1.049  -1.304  0.00  0.00    -0.028 A 
ATOM     12  C   UNL     1      14.671  -1.216  -1.587  0.00  0.00    +0.005 A 
ATOM     13  C   UNL     1      12.483  -0.468  -2.279  0.00  0.00    +0.005 A 
ATOM     14  C   UNL     1      15.190  -0.834  -2.827  0.00  0.00    +0.000 A 
ATOM     15  C   UNL     1      13.005  -0.086  -3.515  0.00  0.00    +0.000 A 
ATOM     16  C   UNL     1      14.358  -0.272  -3.789  0.00  0.00    +0.000 A 
ENDBRANCH  10  11
ENDBRANCH   1  10
TORSDOF 2
ENDMDL
MODEL 8
REMARK VINA RESULT:    -4.354      3.938      5.509
REMARK INTER + INTRA:          -4.972
REMARK INTER:                  -4.852
REMARK INTRA:                  -0.120
REMARK UNBOUND:                -0.109
REMARK  Name = 1550473
REMARK  2 active torsions:
REMARK  status: ('A' for Active; 'I' for Inactive)
REMARK    1  A    between atoms: N_1  and  C_4
REMARK    2  A    between atoms: C_4  and  C_5
REMARK                            x       y       z     vdW  Elec       q    Type
REMARK                         _______ _______ _______ _____ _____    ______ ____
ROOT
ATOM      1  N   UNL     1      13.901  -2.700   5.688  0.00  0.00    -0.354 N 
ATOM      2  N   UNL     1      14.315  -4.979   5.686  0.00  0.00    -0.372 N 
ATOM      3  N   UNL     1      13.026  -4.087   7.362  0.00  0.00    -0.372 N 
ATOM      4  C   UNL     1      13.743  -3.907   6.248  0.00  0.00    +0.166 C 
ATOM      5  H   UNL     1      14.482  -2.625   4.860  0.00  0.00    +0.163 HD
ATOM      6  H   UNL     1      14.210  -5.903   6.083  0.00  0.00    +0.159 HD
ATOM      7  H   UNL     1      14.857  -4.908   4.833  0.00  0.00    +0.159 HD
ATOM      8  H   UNL     1      12.574  -3.318   7.838  0.00  0.00    +0.159 HD
ATOM      9  H   UNL     1      12.920  -5.002   7.781  0.00  0.00    +0.159 HD
ENDROOT
BRANCH   1  10
ATOM     10  C   UNL     1      13.277  -1.478   6.190  0.00  0.00    +0.151 C 
BRANCH  10  11
ATOM     11  C   UNL     1      13.230  -0.459   5.085  0.00  0.00    -0.028 A 
ATOM     12  C   UNL     1      13.463   0.897   5.355  0.00  0.00    +0.005 A 
ATOM     13  C   UNL     1      12.959  -0.845   3.763  0.00  0.00    +0.005 A 
ATOM     14  C   UNL     1      13.450   1.839   4.324  0.00  0.00    +0.000 A 
ATOM     15  C   UNL     1      12.946   0.098   2.736  0.00  0.00    +0.000 A 
ATOM     16  C   UNL     1      13.194   1.440   3.016  0.00  0.00    +0.000 A 
ENDBRANCH  10  11
ENDBRANCH   1  10
TORSDOF 2
ENDMDL
MODEL 9
REMARK VINA RESULT:    -4.251      5.067      6.722
REMARK INTER + INTRA:          -4.857
REMARK INTER:                  -4.714
REMARK INTRA:                  -0.143
REMARK UNBOUND:                -0.109
REMARK  Name = 1550473
REMARK  2 active torsions:
REMARK  status: ('A' for Active; 'I' for Inactive)
REMARK    1  A    between atoms: N_1  and  C_4
REMARK    2  A    between atoms: C_4  and  C_5
REMARK                            x       y       z     vdW  Elec       q    Type
REMARK                         _______ _______ _______ _____ _____    ______ ____
ROOT
ATOM      1  N   UNL     1      11.038  -3.628  -3.115  0.00  0.00    -0.354 N 
ATOM      2  N   UNL     1       9.123  -4.708  -3.844  0.00  0.00    -0.372 N 
ATOM      3  N   UNL     1       9.491  -2.540  -4.499  0.00  0.00    -0.372 N 
ATOM      4  C   UNL     1       9.896  -3.616  -3.815  0.00  0.00    +0.166 C 
ATOM      5  H   UNL     1      11.273  -4.465  -2.593  0.00  0.00    +0.163 HD
ATOM      6  H   UNL     1       8.258  -4.730  -4.366  0.00  0.00    +0.159 HD
ATOM      7  H   UNL     1       9.384  -5.558  -3.359  0.00  0.00    +0.159 HD
ATOM      8  H   UNL     1      10.026  -1.682  -4.513  0.00  0.00    +0.159 HD
ATOM      9  H   UNL     1       8.622  -2.539  -5.019  0.00  0.00    +0.159 HD
ENDROOT
BRANCH   1  10
ATOM     10  C   UNL     1      11.977  -2.510  -3.063  0.00  0.00    +0.151 C 
BRANCH  10  11
ATOM     11  C   UNL     1      12.322  -2.224  -1.627  0.00  0.00    -0.028 A 
ATOM     12  C   UNL     1      13.117  -1.118  -1.292  0.00  0.00    +0.005 A 
ATOM     13  C   UNL     1      11.852  -3.052  -0.596  0.00  0.00    +0.005 A 
ATOM     14  C   UNL     1      13.412  -0.835   0.044  0.00  0.00    +0.000 A 
ATOM     15  C   UNL     1      12.150  -2.766   0.736  0.00  0.00    +0.000 A 
ATOM     16  C   UNL     1      12.928  -1.656   1.056  0.00  0.00    +0.000 A 
ENDBRANCH  10  11
ENDBRANCH   1  10
TORSDOF 2
ENDMDL
