MODEL 1
REMARK VINA RESULT:    -4.910      0.000      0.000
REMARK INTER + INTRA:          -5.641
REMARK INTER:                  -5.485
REMARK INTRA:                  -0.156
REMARK UNBOUND:                -0.156
REMARK  Name = 1550473
REMARK  2 active torsions:
REMARK  status: ('A' for Active; 'I' for Inactive)
REMARK    1  A    between atoms: N_1  and  C_4
REMARK    2  A    between atoms: C_4  and  C_5
REMARK                            x       y       z     vdW  Elec       q    Type
REMARK                         _______ _______ _______ _____ _____    ______ ____
ROOT
ATOM      1  N   UNL     1       8.143   0.214   3.828  0.00  0.00    -0.354 N 
ATOM      2  N   UNL     1       7.318   0.630   5.952  0.00  0.00    -0.372 N 
ATOM      3  N   UNL     1       7.229   2.300   4.381  0.00  0.00    -0.372 N 
ATOM      4  C   UNL     1       7.569   1.048   4.705  0.00  0.00    +0.166 C 
ATOM      5  H   UNL     1       8.404  -0.713   4.144  0.00  0.00    +0.163 HD
ATOM      6  H   UNL     1       6.883   1.235   6.634  0.00  0.00    +0.159 HD
ATOM      7  H   UNL     1       7.538  -0.312   6.252  0.00  0.00    +0.159 HD
ATOM      8  H   UNL     1       7.397   2.678   3.458  0.00  0.00    +0.159 HD
ATOM      9  H   UNL     1       6.803   2.925   5.053  0.00  0.00    +0.159 HD
ENDROOT
BRANCH   1  10
ATOM     10  C   UNL     1       8.409   0.553   2.431  0.00  0.00    +0.151 C 
BRANCH  10  11
ATOM     11  C   UNL     1       9.834   1.016   2.301  0.00  0.00    -0.028 A 
ATOM     12  C   UNL     1      10.878   0.085   2.191  0.00  0.00    +0.005 A 
ATOM     13  C   UNL     1      10.147   2.384   2.280  0.00  0.00    +0.005 A 
ATOM     14  C   UNL     1      12.199   0.515   2.040  0.00  0.00    +0.000 A 
ATOM     15  C   UNL     1      11.467   2.809   2.130  0.00  0.00    +0.000 A 
ATOM     16  C   UNL     1      12.492   1.874   2.008  0.00  0.00    +0.000 A 
ENDBRANCH  10  11
ENDBRANCH   1  10
TORSDOF 2
ENDMDL
MODEL 2
REMARK VINA RESULT:    -4.804     15.899     18.082
REMARK INTER + INTRA:          -5.522
REMARK INTER:                  -5.579
REMARK INTRA:                   0.057
REMARK UNBOUND:                -0.156
REMARK  Name = 1550473
REMARK  2 active torsions:
REMARK  status: ('A' for Active; 'I' for Inactive)
REMARK    1  A    between atoms: N_1  and  C_4
REMARK    2  A    between atoms: C_4  and  C_5
REMARK                            x       y       z     vdW  Elec       q    Type
REMARK                         _______ _______ _______ _____ _____    ______ ____
ROOT
ATOM      1  N   UNL     1       3.947  12.712  13.670  0.00  0.00    -0.354 N 
ATOM      2  N   UNL     1       3.670  11.647  11.633  0.00  0.00    -0.372 N 
ATOM      3  N   UNL     1       1.832  12.539  12.676  0.00  0.00    -0.372 N 
ATOM      4  C   UNL     1       3.149  12.307  12.674  0.00  0.00    +0.166 C 
ATOM      5  H   UNL     1       4.932  12.479  13.623  0.00  0.00    +0.163 HD
ATOM      6  H   UNL     1       3.093  11.332  10.864  0.00  0.00    +0.159 HD
ATOM      7  H   UNL     1       4.662  11.455  11.566  0.00  0.00    +0.159 HD
ATOM      8  H   UNL     1       1.376  13.027  13.436  0.00  0.00    +0.159 HD
ATOM      9  H   UNL     1       1.236  12.222  11.922  0.00  0.00    +0.159 HD
ENDROOT
BRANCH   1  10
ATOM     10  C   UNL     1       3.488  13.485  14.823  0.00  0.00    +0.151 C 
BRANCH  10  11
ATOM     11  C   UNL     1       3.186  12.544  15.957  0.00  0.00    -0.028 A 
ATOM     12  C   UNL     1       2.853  13.041  17.225  0.00  0.00    +0.005 A 
ATOM     13  C   UNL     1       3.227  11.154  15.767  0.00  0.00    +0.005 A 
ATOM     14  C   UNL     1       2.543  12.167  18.271  0.00  0.00    +0.000 A 
ATOM     15  C   UNL     1       2.918  10.285  16.814  0.00  0.00    +0.000 A 
ATOM     16  C   UNL     1       2.574  10.792  18.064  0.00  0.00    +0.000 A 
ENDBRANCH  10  11
ENDBRANCH   1  10
TORSDOF 2
ENDMDL
MODEL 3
REMARK VINA RESULT:    -4.748     17.203     18.779
REMARK INTER + INTRA:          -5.459
REMARK INTER:                  -5.324
REMARK INTRA:                  -0.135
REMARK UNBOUND:                -0.156
REMARK  Name = 1550473
REMARK  2 active torsions:
REMARK  status: ('A' for Active; 'I' for Inactive)
REMARK    1  A    between atoms: N_1  and  C_4
REMARK    2  A    between atoms: C_4  and  C_5
REMARK                            x       y       z     vdW  Elec       q    Type
REMARK                         _______ _______ _______ _____ _____    ______ ____
ROOT
ATOM      1  N   UNL     1      -3.452  -7.486   9.499  0.00  0.00    -0.354 N 
ATOM      2  N   UNL     1      -2.923  -8.506   7.488  0.00  0.00    -0.372 N 
ATOM      3  N   UNL     1      -3.496  -9.819   9.280  0.00  0.00    -0.372 N 
ATOM      4  C   UNL     1      -3.294  -8.600   8.771  0.00  0.00    +0.166 C 
ATOM      5  H   UNL     1      -3.255  -6.593   9.063  0.00  0.00    +0.163 HD
ATOM      6  H   UNL     1      -2.800  -9.328   6.912  0.00  0.00    +0.159 HD
ATOM      7  H   UNL     1      -2.771  -7.610   7.041  0.00  0.00    +0.159 HD
ATOM      8  H   UNL     1      -3.771  -9.958  10.243  0.00  0.00    +0.159 HD
ATOM      9  H   UNL     1      -3.366 -10.655   8.723  0.00  0.00    +0.159 HD
ENDROOT
BRANCH   1  10
ATOM     10  C   UNL     1      -3.905  -7.476  10.889  0.00  0.00    +0.151 C 
BRANCH  10  11
ATOM     11  C   UNL     1      -5.152  -6.642  10.993  0.00  0.00    -0.028 A 
ATOM     12  C   UNL     1      -5.712  -6.351  12.246  0.00  0.00    +0.005 A 
ATOM     13  C   UNL     1      -5.776  -6.135   9.843  0.00  0.00    +0.005 A 
ATOM     14  C   UNL     1      -6.853  -5.551  12.345  0.00  0.00    +0.000 A 
ATOM     15  C   UNL     1      -6.916  -5.338   9.946  0.00  0.00    +0.000 A 
ATOM     16  C   UNL     1      -7.452  -5.044  11.197  0.00  0.00    +0.000 A 
ENDBRANCH  10  11
ENDBRANCH   1  10
TORSDOF 2
ENDMDL
MODEL 4
REMARK VINA RESULT:    -4.675     16.337     18.152
REMARK INTER + INTRA:          -5.378
REMARK INTER:                  -5.238
REMARK INTRA:                  -0.140
REMARK UNBOUND:                -0.156
REMARK  Name = 1550473
REMARK  2 active torsions:
REMARK  status: ('A' for Active; 'I' for Inactive)
REMARK    1  A    between atoms: N_1  and  C_4
REMARK    2  A    between atoms: C_4  and  C_5
REMARK                            x       y       z     vdW  Elec       q    Type
REMARK                         _______ _______ _______ _____ _____    ______ ____
ROOT
ATOM      1  N   UNL     1       2.172  12.742  16.813  0.00  0.00    -0.354 N 
ATOM      2  N   UNL     1       0.787  14.246  17.900  0.00  0.00    -0.372 N 
ATOM      3  N   UNL     1       3.043  14.661  17.837  0.00  0.00    -0.372 N 
ATOM      4  C   UNL     1       2.012  13.874  17.510  0.00  0.00    +0.166 C 
ATOM      5  H   UNL     1       1.355  12.174  16.623  0.00  0.00    +0.163 HD
ATOM      6  H   UNL     1       0.635  15.097  18.424  0.00  0.00    +0.159 HD
ATOM      7  H   UNL     1      -0.034  13.700  17.669  0.00  0.00    +0.159 HD
ATOM      8  H   UNL     1       3.993  14.434  17.578  0.00  0.00    +0.159 HD
ATOM      9  H   UNL     1       2.912  15.511  18.372  0.00  0.00    +0.159 HD
ENDROOT
BRANCH   1  10
ATOM     10  C   UNL     1       3.457  12.275  16.295  0.00  0.00    +0.151 C 
BRANCH  10  11
ATOM     11  C   UNL     1       3.352  12.102  14.805  0.00  0.00    -0.028 A 
ATOM     12  C   UNL     1       2.147  12.371  14.140  0.00  0.00    +0.005 A 
ATOM     13  C   UNL     1       4.456  11.673  14.051  0.00  0.00    +0.005 A 
ATOM     14  C   UNL     1       2.058  12.238  12.752  0.00  0.00    +0.000 A 
ATOM     15  C   UNL     1       4.363  11.542  12.666  0.00  0.00    +0.000 A 
ATOM     16  C   UNL     1       3.164  11.827  12.016  0.00  0.00    +0.000 A 
ENDBRANCH  10  11
ENDBRANCH   1  10
TORSDOF 2
ENDMDL
MODEL 5
REMARK VINA RESULT:    -4.674     18.710     20.938
REMARK INTER + INTRA:          -5.377
REMARK INTER:                  -5.202
REMARK INTRA:                  -0.174
REMARK UNBOUND:                -0.156
REMARK  Name = 1550473
REMARK  2 active torsions:
REMARK  status: ('A' for Active; 'I' for Inactive)
REMARK    1  A    between atoms: N_1  and  C_4
REMARK    2  A    between atoms: C_4  and  C_5
REMARK                            x       y       z     vdW  Elec       q    Type
REMARK                         _______ _______ _______ _____ _____    ______ ____
ROOT
ATOM      1  N   UNL     1      -6.612  -6.679  11.468  0.00  0.00    -0.354 N 
ATOM      2  N   UNL     1      -5.131  -8.158  10.476  0.00  0.00    -0.372 N 
ATOM      3  N   UNL     1      -5.064  -5.946   9.869  0.00  0.00    -0.372 N 
ATOM      4  C   UNL     1      -5.611  -6.916  10.610  0.00  0.00    +0.166 C 
ATOM      5  H   UNL     1      -7.004  -7.463  11.978  0.00  0.00    +0.163 HD
ATOM      6  H   UNL     1      -4.375  -8.366   9.838  0.00  0.00    +0.159 HD
ATOM      7  H   UNL     1      -5.494  -8.931  11.020  0.00  0.00    +0.159 HD
ATOM      8  H   UNL     1      -5.385  -4.988   9.919  0.00  0.00    +0.159 HD
ATOM      9  H   UNL     1      -4.313  -6.137   9.217  0.00  0.00    +0.159 HD
ENDROOT
BRANCH   1  10
ATOM     10  C   UNL     1      -7.171  -5.354  11.728  0.00  0.00    +0.151 C 
BRANCH  10  11
ATOM     11  C   UNL     1      -8.541  -5.269  11.114  0.00  0.00    -0.028 A 
ATOM     12  C   UNL     1      -9.655  -5.796  11.784  0.00  0.00    +0.005 A 
ATOM     13  C   UNL     1      -8.733  -4.658   9.866  0.00  0.00    +0.005 A 
ATOM     14  C   UNL     1     -10.932  -5.691  11.228  0.00  0.00    +0.000 A 
ATOM     15  C   UNL     1     -10.009  -4.556   9.313  0.00  0.00    +0.000 A 
ATOM     16  C   UNL     1     -11.109  -5.070   9.996  0.00  0.00    +0.000 A 
ENDBRANCH  10  11
ENDBRANCH   1  10
TORSDOF 2
ENDMDL
MODEL 6
REMARK VINA RESULT:    -4.665      3.555      5.060
REMARK INTER + INTRA:          -5.367
REMARK INTER:                  -5.241
REMARK INTRA:                  -0.126
REMARK UNBOUND:                -0.156
REMARK  Name = 1550473
REMARK  2 active torsions:
REMARK  status: ('A' for Active; 'I' for Inactive)
REMARK    1  A    between atoms: N_1  and  C_4
REMARK    2  A    between atoms: C_4  and  C_5
REMARK                            x       y       z     vdW  Elec       q    Type
REMARK                         _______ _______ _______ _____ _____    ______ ____
ROOT
ATOM      1  N   UNL     1      10.831   4.012   0.860  0.00  0.00    -0.354 N 
ATOM      2  N   UNL     1      11.012   4.875  -1.282  0.00  0.00    -0.372 N 
ATOM      3  N   UNL     1       9.817   6.046   0.288  0.00  0.00    -0.372 N 
ATOM      4  C   UNL     1      10.551   4.974  -0.030  0.00  0.00    +0.166 C 
ATOM      5  H   UNL     1      11.367   3.210   0.548  0.00  0.00    +0.163 HD
ATOM      6  H   UNL     1      10.820   5.587  -1.974  0.00  0.00    +0.159 HD
ATOM      7  H   UNL     1      11.586   4.095  -1.578  0.00  0.00    +0.159 HD
ATOM      8  H   UNL     1       9.434   6.177   1.215  0.00  0.00    +0.159 HD
ATOM      9  H   UNL     1       9.604   6.764  -0.394  0.00  0.00    +0.159 HD
ENDROOT
BRANCH   1  10
ATOM     10  C   UNL     1      10.422   4.051   2.262  0.00  0.00    +0.151 C 
BRANCH  10  11
ATOM     11  C   UNL     1       9.801   2.731   2.629  0.00  0.00    -0.028 A 
ATOM     12  C   UNL     1       8.616   2.686   3.379  0.00  0.00    +0.005 A 
ATOM     13  C   UNL     1      10.388   1.523   2.224  0.00  0.00    +0.005 A 
ATOM     14  C   UNL     1       8.023   1.461   3.695  0.00  0.00    +0.000 A 
ATOM     15  C   UNL     1       9.793   0.302   2.542  0.00  0.00    +0.000 A 
ATOM     16  C   UNL     1       8.609   0.272   3.275  0.00  0.00    +0.000 A 
ENDBRANCH  10  11
ENDBRANCH   1  10
TORSDOF 2
ENDMDL
MODEL 7
REMARK VINA RESULT:    -4.592     17.144     19.351
REMARK INTER + INTRA:          -5.285
REMARK INTER:                  -5.195
REMARK INTRA:                  -0.090
REMARK UNBOUND:                -0.156
REMARK  Name = 1550473
REMARK  2 active torsions:
REMARK  status: ('A' for Active; 'I' for Inactive)
REMARK    1  A    between atoms: N_1  and  C_4
REMARK    2  A    between atoms: C_4  and  C_5
REMARK                            x       y       z     vdW  Elec       q    Type
REMARK                         _______ _______ _______ _____ _____    ______ ____
ROOT
ATOM      1  N   UNL     1       2.422  12.524  14.958  0.00  0.00    -0.354 N 
ATOM      2  N   UNL     1       1.677  12.528  12.765  0.00  0.00    -0.372 N 
ATOM      3  N   UNL     1       3.927  12.721  13.173  0.00  0.00    -0.372 N 
ATOM      4  C   UNL     1       2.683  12.591  13.646  0.00  0.00    +0.166 C 
ATOM      5  H   UNL     1       1.455  12.456  15.254  0.00  0.00    +0.163 HD
ATOM      6  H   UNL     1       1.844  12.573  11.769  0.00  0.00    +0.159 HD
ATOM      7  H   UNL     1       0.716  12.414  13.062  0.00  0.00    +0.159 HD
ATOM      8  H   UNL     1       4.729  12.781  13.785  0.00  0.00    +0.159 HD
ATOM      9  H   UNL     1       4.113  12.780  12.179  0.00  0.00    +0.159 HD
ENDROOT
BRANCH   1  10
ATOM     10  C   UNL     1       3.450  12.530  15.998  0.00  0.00    +0.151 C 
BRANCH  10  11
ATOM     11  C   UNL     1       2.796  12.317  17.335  0.00  0.00    -0.028 A 
ATOM     12  C   UNL     1       2.654  11.024  17.860  0.00  0.00    +0.005 A 
ATOM     13  C   UNL     1       2.323  13.404  18.085  0.00  0.00    +0.005 A 
ATOM     14  C   UNL     1       2.075  10.828  19.116  0.00  0.00    +0.000 A 
ATOM     15  C   UNL     1       1.744  13.204  19.339  0.00  0.00    +0.000 A 
ATOM     16  C   UNL     1       1.622  11.916  19.855  0.00  0.00    +0.000 A 
ENDBRANCH  10  11
ENDBRANCH   1  10
TORSDOF 2
ENDMDL
MODEL 8
REMARK VINA RESULT:    -4.572     21.720     23.211
REMARK INTER + INTRA:          -5.263
REMARK INTER:                  -5.130
REMARK INTRA:                  -0.133
REMARK UNBOUND:                -0.156
REMARK  Name = 1550473
REMARK  2 active torsions:
REMARK  status: ('A' for Active; 'I' for Inactive)
REMARK    1  A    between atoms: N_1  and  C_4
REMARK    2  A    between atoms: C_4  and  C_5
REMARK                            x       y       z     vdW  Elec       q    Type
REMARK                         _______ _______ _______ _____ _____    ______ ____
ROOT
ATOM      1  N   UNL     1      -6.603   2.847  21.229  0.00  0.00    -0.354 N 
ATOM      2  N   UNL     1      -6.124   4.753  22.456  0.00  0.00    -0.372 N 
ATOM      3  N   UNL     1      -5.710   2.698  23.391  0.00  0.00    -0.372 N 
ATOM      4  C   UNL     1      -6.148   3.418  22.353  0.00  0.00    +0.166 C 
ATOM      5  H   UNL     1      -6.949   3.448  20.490  0.00  0.00    +0.163 HD
ATOM      6  H   UNL     1      -5.783   5.212  23.290  0.00  0.00    +0.159 HD
ATOM      7  H   UNL     1      -6.427   5.351  21.698  0.00  0.00    +0.159 HD
ATOM      8  H   UNL     1      -5.708   1.687  23.379  0.00  0.00    +0.159 HD
ATOM      9  H   UNL     1      -5.376   3.140  24.239  0.00  0.00    +0.159 HD
ENDROOT
BRANCH   1  10
ATOM     10  C   UNL     1      -6.621   1.405  20.995  0.00  0.00    +0.151 C 
BRANCH  10  11
ATOM     11  C   UNL     1      -6.290   1.137  19.553  0.00  0.00    -0.028 A 
ATOM     12  C   UNL     1      -6.061  -0.173  19.106  0.00  0.00    +0.005 A 
ATOM     13  C   UNL     1      -6.209   2.188  18.627  0.00  0.00    +0.005 A 
ATOM     14  C   UNL     1      -5.783  -0.425  17.760  0.00  0.00    +0.000 A 
ATOM     15  C   UNL     1      -5.930   1.932  17.284  0.00  0.00    +0.000 A 
ATOM     16  C   UNL     1      -5.720   0.625  16.851  0.00  0.00    +0.000 A 
ENDBRANCH  10  11
ENDBRANCH   1  10
TORSDOF 2
ENDMDL
MODEL 9
REMARK VINA RESULT:    -4.544     17.541     19.492
REMARK INTER + INTRA:          -5.232
REMARK INTER:                  -5.125
REMARK INTRA:                  -0.107
REMARK UNBOUND:                -0.156
REMARK  Name = 1550473
REMARK  2 active torsions:
REMARK  status: ('A' for Active; 'I' for Inactive)
REMARK    1  A    between atoms: N_1  and  C_4
REMARK    2  A    between atoms: C_4  and  C_5
REMARK                            x       y       z     vdW  Elec       q    Type
REMARK                         _______ _______ _______ _____ _____    ______ ____
ROOT
ATOM      1  N   UNL     1      -4.361  -5.928  11.632  0.00  0.00    -0.354 N 
ATOM      2  N   UNL     1      -2.189  -5.662  12.388  0.00  0.00    -0.372 N 
ATOM      3  N   UNL     1      -3.403  -7.467  13.118  0.00  0.00    -0.372 N 
ATOM      4  C   UNL     1      -3.333  -6.356  12.376  0.00  0.00    +0.166 C 
ATOM      5  H   UNL     1      -4.255  -5.063  11.116  0.00  0.00    +0.163 HD
ATOM      6  H   UNL     1      -1.394  -5.962  12.937  0.00  0.00    +0.159 HD
ATOM      7  H   UNL     1      -2.069  -4.822  11.835  0.00  0.00    +0.159 HD
ATOM      8  H   UNL     1      -4.240  -8.032  13.157  0.00  0.00    +0.159 HD
ATOM      9  H   UNL     1      -2.623  -7.777  13.683  0.00  0.00    +0.159 HD
ENDROOT
BRANCH   1  10
ATOM     10  C   UNL     1      -5.632  -6.640  11.507  0.00  0.00    +0.151 C 
BRANCH  10  11
ATOM     11  C   UNL     1      -6.743  -5.639  11.350  0.00  0.00    -0.028 A 
ATOM     12  C   UNL     1      -7.227  -5.307  10.076  0.00  0.00    +0.005 A 
ATOM     13  C   UNL     1      -7.320  -5.023  12.471  0.00  0.00    +0.005 A 
ATOM     14  C   UNL     1      -8.279  -4.399   9.931  0.00  0.00    +0.000 A 
ATOM     15  C   UNL     1      -8.369  -4.117  12.322  0.00  0.00    +0.000 A 
ATOM     16  C   UNL     1      -8.850  -3.807  11.053  0.00  0.00    +0.000 A 
ENDBRANCH  10  11
ENDBRANCH   1  10
TORSDOF 2
ENDMDL
