MODEL 1
REMARK VINA RESULT:    -5.554      0.000      0.000
REMARK INTER + INTRA:          -6.350
REMARK INTER:                  -6.203
REMARK INTRA:                  -0.147
REMARK UNBOUND:                -0.147
REMARK  Name = 1550473
REMARK  2 active torsions:
REMARK  status: ('A' for Active; 'I' for Inactive)
REMARK    1  A    between atoms: N_1  and  C_4
REMARK    2  A    between atoms: C_4  and  C_5
REMARK                            x       y       z     vdW  Elec       q    Type
REMARK                         _______ _______ _______ _____ _____    ______ ____
ROOT
ATOM      1  N   UNL     1      -5.637   5.453  10.055  0.00  0.00    -0.354 N 
ATOM      2  N   UNL     1      -5.788   6.534   8.013  0.00  0.00    -0.372 N 
ATOM      3  N   UNL     1      -3.789   5.583   8.619  0.00  0.00    -0.372 N 
ATOM      4  C   UNL     1      -5.067   5.849   8.909  0.00  0.00    +0.166 C 
ATOM      5  H   UNL     1      -6.601   5.712  10.229  0.00  0.00    +0.163 HD
ATOM      6  H   UNL     1      -5.387   6.843   7.138  0.00  0.00    +0.159 HD
ATOM      7  H   UNL     1      -6.765   6.752   8.169  0.00  0.00    +0.159 HD
ATOM      8  H   UNL     1      -3.190   5.076   9.256  0.00  0.00    +0.159 HD
ATOM      9  H   UNL     1      -3.366   5.895   7.754  0.00  0.00    +0.159 HD
ENDROOT
BRANCH   1  10
ATOM     10  C   UNL     1      -4.955   4.655  11.074  0.00  0.00    +0.151 C 
BRANCH  10  11
ATOM     11  C   UNL     1      -4.965   5.408  12.375  0.00  0.00    -0.028 A 
ATOM     12  C   UNL     1      -3.902   6.257  12.716  0.00  0.00    +0.005 A 
ATOM     13  C   UNL     1      -6.039   5.282  13.270  0.00  0.00    +0.005 A 
ATOM     14  C   UNL     1      -3.925   6.980  13.911  0.00  0.00    +0.000 A 
ATOM     15  C   UNL     1      -6.058   6.005  14.463  0.00  0.00    +0.000 A 
ATOM     16  C   UNL     1      -5.002   6.855  14.782  0.00  0.00    +0.000 A 
ENDBRANCH  10  11
ENDBRANCH   1  10
TORSDOF 2
ENDMDL
MODEL 2
REMARK VINA RESULT:    -5.104     24.219     25.422
REMARK INTER + INTRA:          -5.848
REMARK INTER:                  -5.699
REMARK INTRA:                  -0.149
REMARK UNBOUND:                -0.147
REMARK  Name = 1550473
REMARK  2 active torsions:
REMARK  status: ('A' for Active; 'I' for Inactive)
REMARK    1  A    between atoms: N_1  and  C_4
REMARK    2  A    between atoms: C_4  and  C_5
REMARK                            x       y       z     vdW  Elec       q    Type
REMARK                         _______ _______ _______ _____ _____    ______ ____
ROOT
ATOM      1  N   UNL     1       5.157  -8.310  -6.656  0.00  0.00    -0.354 N 
ATOM      2  N   UNL     1       6.478  -7.060  -5.221  0.00  0.00    -0.372 N 
ATOM      3  N   UNL     1       4.593  -6.101  -6.111  0.00  0.00    -0.372 N 
ATOM      4  C   UNL     1       5.399  -7.163  -6.006  0.00  0.00    +0.166 C 
ATOM      5  H   UNL     1       5.822  -9.068  -6.558  0.00  0.00    +0.163 HD
ATOM      6  H   UNL     1       6.685  -6.209  -4.716  0.00  0.00    +0.159 HD
ATOM      7  H   UNL     1       7.117  -7.835  -5.090  0.00  0.00    +0.159 HD
ATOM      8  H   UNL     1       3.765  -6.112  -6.692  0.00  0.00    +0.159 HD
ATOM      9  H   UNL     1       4.789  -5.236  -5.622  0.00  0.00    +0.159 HD
ENDROOT
BRANCH   1  10
ATOM     10  C   UNL     1       3.981  -8.543  -7.492  0.00  0.00    +0.151 C 
BRANCH  10  11
ATOM     11  C   UNL     1       3.215  -9.716  -6.947  0.00  0.00    -0.028 A 
ATOM     12  C   UNL     1       3.009 -10.860  -7.733  0.00  0.00    +0.005 A 
ATOM     13  C   UNL     1       2.696  -9.693  -5.643  0.00  0.00    +0.005 A 
ATOM     14  C   UNL     1       2.324 -11.962  -7.216  0.00  0.00    +0.000 A 
ATOM     15  C   UNL     1       2.012 -10.795  -5.131  0.00  0.00    +0.000 A 
ATOM     16  C   UNL     1       1.828 -11.930  -5.917  0.00  0.00    +0.000 A 
ENDBRANCH  10  11
ENDBRANCH   1  10
TORSDOF 2
ENDMDL
MODEL 3
REMARK VINA RESULT:    -4.946     23.953     24.951
REMARK INTER + INTRA:          -5.671
REMARK INTER:                  -5.545
REMARK INTRA:                  -0.126
REMARK UNBOUND:                -0.147
REMARK  Name = 1550473
REMARK  2 active torsions:
REMARK  status: ('A' for Active; 'I' for Inactive)
REMARK    1  A    between atoms: N_1  and  C_4
REMARK    2  A    between atoms: C_4  and  C_5
REMARK                            x       y       z     vdW  Elec       q    Type
REMARK                         _______ _______ _______ _____ _____    ______ ____
ROOT
ATOM      1  N   UNL     1       4.340  -8.080  -5.449  0.00  0.00    -0.354 N 
ATOM      2  N   UNL     1       4.549  -5.950  -6.334  0.00  0.00    -0.372 N 
ATOM      3  N   UNL     1       6.422  -7.008  -5.537  0.00  0.00    -0.372 N 
ATOM      4  C   UNL     1       5.105  -7.027  -5.767  0.00  0.00    +0.166 C 
ATOM      5  H   UNL     1       3.343  -8.020  -5.621  0.00  0.00    +0.163 HD
ATOM      6  H   UNL     1       5.101  -5.142  -6.588  0.00  0.00    +0.159 HD
ATOM      7  H   UNL     1       3.559  -5.911  -6.548  0.00  0.00    +0.159 HD
ATOM      8  H   UNL     1       6.902  -7.787  -5.106  0.00  0.00    +0.159 HD
ATOM      9  H   UNL     1       6.990  -6.204  -5.773  0.00  0.00    +0.159 HD
ENDROOT
BRANCH   1  10
ATOM     10  C   UNL     1       4.856  -9.322  -4.877  0.00  0.00    +0.151 C 
BRANCH  10  11
ATOM     11  C   UNL     1       3.830 -10.407  -5.054  0.00  0.00    -0.028 A 
ATOM     12  C   UNL     1       4.054 -11.690  -4.533  0.00  0.00    +0.005 A 
ATOM     13  C   UNL     1       2.629 -10.158  -5.736  0.00  0.00    +0.005 A 
ATOM     14  C   UNL     1       3.088 -12.691  -4.671  0.00  0.00    +0.000 A 
ATOM     15  C   UNL     1       1.668 -11.159  -5.872  0.00  0.00    +0.000 A 
ATOM     16  C   UNL     1       1.897 -12.425  -5.338  0.00  0.00    +0.000 A 
ENDBRANCH  10  11
ENDBRANCH   1  10
TORSDOF 2
ENDMDL
MODEL 4
REMARK VINA RESULT:    -4.914     19.647     21.999
REMARK INTER + INTRA:          -5.635
REMARK INTER:                  -5.518
REMARK INTRA:                  -0.117
REMARK UNBOUND:                -0.147
REMARK  Name = 1550473
REMARK  2 active torsions:
REMARK  status: ('A' for Active; 'I' for Inactive)
REMARK    1  A    between atoms: N_1  and  C_4
REMARK    2  A    between atoms: C_4  and  C_5
REMARK                            x       y       z     vdW  Elec       q    Type
REMARK                         _______ _______ _______ _____ _____    ______ ____
ROOT
ATOM      1  N   UNL     1       7.298   9.625  -4.475  0.00  0.00    -0.354 N 
ATOM      2  N   UNL     1       6.109  10.231  -2.582  0.00  0.00    -0.372 N 
ATOM      3  N   UNL     1       8.367  10.634  -2.650  0.00  0.00    -0.372 N 
ATOM      4  C   UNL     1       7.268  10.160  -3.247  0.00  0.00    +0.166 C 
ATOM      5  H   UNL     1       6.436   9.256  -4.860  0.00  0.00    +0.163 HD
ATOM      6  H   UNL     1       6.056  10.633  -1.655  0.00  0.00    +0.159 HD
ATOM      7  H   UNL     1       5.241   9.903  -2.987  0.00  0.00    +0.159 HD
ATOM      8  H   UNL     1       9.274  10.605  -3.097  0.00  0.00    +0.159 HD
ATOM      9  H   UNL     1       8.336  11.029  -1.719  0.00  0.00    +0.159 HD
ENDROOT
BRANCH   1  10
ATOM     10  C   UNL     1       8.498   9.549  -5.305  0.00  0.00    +0.151 C 
BRANCH  10  11
ATOM     11  C   UNL     1       8.579   8.183  -5.929  0.00  0.00    -0.028 A 
ATOM     12  C   UNL     1       9.304   7.157  -5.305  0.00  0.00    +0.005 A 
ATOM     13  C   UNL     1       7.927   7.907  -7.141  0.00  0.00    +0.005 A 
ATOM     14  C   UNL     1       9.354   5.880  -5.869  0.00  0.00    +0.000 A 
ATOM     15  C   UNL     1       7.980   6.630  -7.701  0.00  0.00    +0.000 A 
ATOM     16  C   UNL     1       8.692   5.617  -7.063  0.00  0.00    +0.000 A 
ENDBRANCH  10  11
ENDBRANCH   1  10
TORSDOF 2
ENDMDL
MODEL 5
REMARK VINA RESULT:    -4.870     20.518     22.102
REMARK INTER + INTRA:          -5.587
REMARK INTER:                  -5.470
REMARK INTRA:                  -0.116
REMARK UNBOUND:                -0.147
REMARK  Name = 1550473
REMARK  2 active torsions:
REMARK  status: ('A' for Active; 'I' for Inactive)
REMARK    1  A    between atoms: N_1  and  C_4
REMARK    2  A    between atoms: C_4  and  C_5
REMARK                            x       y       z     vdW  Elec       q    Type
REMARK                         _______ _______ _______ _____ _____    ______ ____
ROOT
ATOM      1  N   UNL     1       7.995   8.707  -3.990  0.00  0.00    -0.354 N 
ATOM      2  N   UNL     1       6.863  10.674  -4.450  0.00  0.00    -0.372 N 
ATOM      3  N   UNL     1       8.338  10.629  -2.693  0.00  0.00    -0.372 N 
ATOM      4  C   UNL     1       7.741   9.991  -3.706  0.00  0.00    +0.166 C 
ATOM      5  H   UNL     1       7.486   8.273  -4.752  0.00  0.00    +0.163 HD
ATOM      6  H   UNL     1       6.654  11.646  -4.262  0.00  0.00    +0.159 HD
ATOM      7  H   UNL     1       6.391  10.251  -5.240  0.00  0.00    +0.159 HD
ATOM      8  H   UNL     1       9.006  10.168  -2.090  0.00  0.00    +0.159 HD
ATOM      9  H   UNL     1       8.133  11.597  -2.482  0.00  0.00    +0.159 HD
ENDROOT
BRANCH   1  10
ATOM     10  C   UNL     1       8.973   7.889  -3.274  0.00  0.00    +0.151 C 
BRANCH  10  11
ATOM     11  C   UNL     1       9.806   7.134  -4.273  0.00  0.00    -0.028 A 
ATOM     12  C   UNL     1      11.036   7.649  -4.709  0.00  0.00    +0.005 A 
ATOM     13  C   UNL     1       9.374   5.900  -4.783  0.00  0.00    +0.005 A 
ATOM     14  C   UNL     1      11.824   6.933  -5.613  0.00  0.00    +0.000 A 
ATOM     15  C   UNL     1      10.163   5.189  -5.686  0.00  0.00    +0.000 A 
ATOM     16  C   UNL     1      11.389   5.705  -6.100  0.00  0.00    +0.000 A 
ENDBRANCH  10  11
ENDBRANCH   1  10
TORSDOF 2
ENDMDL
MODEL 6
REMARK VINA RESULT:    -4.863     23.191     24.863
REMARK INTER + INTRA:          -5.579
REMARK INTER:                  -5.411
REMARK INTRA:                  -0.167
REMARK UNBOUND:                -0.147
REMARK  Name = 1550473
REMARK  2 active torsions:
REMARK  status: ('A' for Active; 'I' for Inactive)
REMARK    1  A    between atoms: N_1  and  C_4
REMARK    2  A    between atoms: C_4  and  C_5
REMARK                            x       y       z     vdW  Elec       q    Type
REMARK                         _______ _______ _______ _____ _____    ______ ____
ROOT
ATOM      1  N   UNL     1      -3.916 -14.816   1.031  0.00  0.00    -0.354 N 
ATOM      2  N   UNL     1      -4.715 -12.662   1.324  0.00  0.00    -0.372 N 
ATOM      3  N   UNL     1      -2.587 -13.159   2.022  0.00  0.00    -0.372 N 
ATOM      4  C   UNL     1      -3.731 -13.559   1.459  0.00  0.00    +0.166 C 
ATOM      5  H   UNL     1      -4.817 -15.064   0.641  0.00  0.00    +0.163 HD
ATOM      6  H   UNL     1      -4.604 -11.706   1.634  0.00  0.00    +0.159 HD
ATOM      7  H   UNL     1      -5.599 -12.901   0.892  0.00  0.00    +0.159 HD
ATOM      8  H   UNL     1      -1.807 -13.789   2.158  0.00  0.00    +0.159 HD
ATOM      9  H   UNL     1      -2.460 -12.209   2.349  0.00  0.00    +0.159 HD
ENDROOT
BRANCH   1  10
ATOM     10  C   UNL     1      -2.889 -15.855   1.082  0.00  0.00    +0.151 C 
BRANCH  10  11
ATOM     11  C   UNL     1      -2.447 -16.178  -0.319  0.00  0.00    -0.028 A 
ATOM     12  C   UNL     1      -1.533 -15.349  -0.985  0.00  0.00    +0.005 A 
ATOM     13  C   UNL     1      -2.934 -17.314  -0.982  0.00  0.00    +0.005 A 
ATOM     14  C   UNL     1      -1.099 -15.665  -2.275  0.00  0.00    +0.000 A 
ATOM     15  C   UNL     1      -2.499 -17.626  -2.270  0.00  0.00    +0.000 A 
ATOM     16  C   UNL     1      -1.580 -16.802  -2.916  0.00  0.00    +0.000 A 
ENDBRANCH  10  11
ENDBRANCH   1  10
TORSDOF 2
ENDMDL
MODEL 7
REMARK VINA RESULT:    -4.769      1.317      2.003
REMARK INTER + INTRA:          -5.473
REMARK INTER:                  -5.349
REMARK INTRA:                  -0.125
REMARK UNBOUND:                -0.147
REMARK  Name = 1550473
REMARK  2 active torsions:
REMARK  status: ('A' for Active; 'I' for Inactive)
REMARK    1  A    between atoms: N_1  and  C_4
REMARK    2  A    between atoms: C_4  and  C_5
REMARK                            x       y       z     vdW  Elec       q    Type
REMARK                         _______ _______ _______ _____ _____    ______ ____
ROOT
ATOM      1  N   UNL     1      -3.999   6.322  10.807  0.00  0.00    -0.354 N 
ATOM      2  N   UNL     1      -4.101   5.705   8.577  0.00  0.00    -0.372 N 
ATOM      3  N   UNL     1      -4.927   7.753   9.201  0.00  0.00    -0.372 N 
ATOM      4  C   UNL     1      -4.343   6.600   9.543  0.00  0.00    +0.166 C 
ATOM      5  H   UNL     1      -3.587   5.417  11.006  0.00  0.00    +0.163 HD
ATOM      6  H   UNL     1      -4.347   5.888   7.613  0.00  0.00    +0.159 HD
ATOM      7  H   UNL     1      -3.648   4.821   8.771  0.00  0.00    +0.159 HD
ATOM      8  H   UNL     1      -5.142   8.468   9.883  0.00  0.00    +0.159 HD
ATOM      9  H   UNL     1      -5.191   7.950   8.243  0.00  0.00    +0.159 HD
ENDROOT
BRANCH   1  10
ATOM     10  C   UNL     1      -4.169   7.249  11.924  0.00  0.00    +0.151 C 
BRANCH  10  11
ATOM     11  C   UNL     1      -5.073   6.622  12.950  0.00  0.00    -0.028 A 
ATOM     12  C   UNL     1      -5.103   7.109  14.265  0.00  0.00    +0.005 A 
ATOM     13  C   UNL     1      -5.905   5.544  12.612  0.00  0.00    +0.005 A 
ATOM     14  C   UNL     1      -5.964   6.547  15.210  0.00  0.00    +0.000 A 
ATOM     15  C   UNL     1      -6.763   4.985  13.559  0.00  0.00    +0.000 A 
ATOM     16  C   UNL     1      -6.794   5.488  14.857  0.00  0.00    +0.000 A 
ENDBRANCH  10  11
ENDBRANCH   1  10
TORSDOF 2
ENDMDL
MODEL 8
REMARK VINA RESULT:    -4.570     16.098     18.391
REMARK INTER + INTRA:          -5.251
REMARK INTER:                  -5.131
REMARK INTRA:                  -0.120
REMARK UNBOUND:                -0.147
REMARK  Name = 1550473
REMARK  2 active torsions:
REMARK  status: ('A' for Active; 'I' for Inactive)
REMARK    1  A    between atoms: N_1  and  C_4
REMARK    2  A    between atoms: C_4  and  C_5
REMARK                            x       y       z     vdW  Elec       q    Type
REMARK                         _______ _______ _______ _____ _____    ______ ____
ROOT
ATOM      1  N   UNL     1       0.645  17.006   0.607  0.00  0.00    -0.354 N 
ATOM      2  N   UNL     1       0.720  16.523   2.871  0.00  0.00    -0.372 N 
ATOM      3  N   UNL     1      -0.368  15.074   1.463  0.00  0.00    -0.372 N 
ATOM      4  C   UNL     1       0.330  16.202   1.631  0.00  0.00    +0.166 C 
ATOM      5  H   UNL     1       1.151  17.862   0.804  0.00  0.00    +0.163 HD
ATOM      6  H   UNL     1       0.501  15.934   3.663  0.00  0.00    +0.159 HD
ATOM      7  H   UNL     1       1.265  17.356   3.059  0.00  0.00    +0.159 HD
ATOM      8  H   UNL     1      -0.697  14.779   0.554  0.00  0.00    +0.159 HD
ATOM      9  H   UNL     1      -0.608  14.478   2.245  0.00  0.00    +0.159 HD
ENDROOT
BRANCH   1  10
ATOM     10  C   UNL     1       0.315  16.720  -0.788  0.00  0.00    +0.151 C 
BRANCH  10  11
ATOM     11  C   UNL     1       1.544  16.909  -1.633  0.00  0.00    -0.028 A 
ATOM     12  C   UNL     1       2.236  18.130  -1.621  0.00  0.00    +0.005 A 
ATOM     13  C   UNL     1       2.027  15.870  -2.443  0.00  0.00    +0.005 A 
ATOM     14  C   UNL     1       3.395  18.296  -2.383  0.00  0.00    +0.000 A 
ATOM     15  C   UNL     1       3.184  16.040  -3.203  0.00  0.00    +0.000 A 
ATOM     16  C   UNL     1       3.869  17.252  -3.170  0.00  0.00    +0.000 A 
ENDBRANCH  10  11
ENDBRANCH   1  10
TORSDOF 2
ENDMDL
MODEL 9
REMARK VINA RESULT:    -4.447      8.398      9.919
REMARK INTER + INTRA:          -5.114
REMARK INTER:                  -4.967
REMARK INTRA:                  -0.147
REMARK UNBOUND:                -0.147
REMARK  Name = 1550473
REMARK  2 active torsions:
REMARK  status: ('A' for Active; 'I' for Inactive)
REMARK    1  A    between atoms: N_1  and  C_4
REMARK    2  A    between atoms: C_4  and  C_5
REMARK                            x       y       z     vdW  Elec       q    Type
REMARK                         _______ _______ _______ _____ _____    ______ ____
ROOT
ATOM      1  N   UNL     1      -1.184   8.092  21.253  0.00  0.00    -0.354 N 
ATOM      2  N   UNL     1      -0.844   6.865  23.188  0.00  0.00    -0.372 N 
ATOM      3  N   UNL     1       0.132   6.153  21.237  0.00  0.00    -0.372 N 
ATOM      4  C   UNL     1      -0.633   7.043  21.878  0.00  0.00    +0.166 C 
ATOM      5  H   UNL     1      -1.778   8.714  21.789  0.00  0.00    +0.163 HD
ATOM      6  H   UNL     1      -0.438   6.085  23.687  0.00  0.00    +0.159 HD
ATOM      7  H   UNL     1      -1.400   7.513  23.731  0.00  0.00    +0.159 HD
ATOM      8  H   UNL     1       0.325   6.227  20.247  0.00  0.00    +0.159 HD
ATOM      9  H   UNL     1       0.537   5.359  21.717  0.00  0.00    +0.159 HD
ENDROOT
BRANCH   1  10
ATOM     10  C   UNL     1      -0.972   8.406  19.841  0.00  0.00    +0.151 C 
BRANCH  10  11
ATOM     11  C   UNL     1      -2.295   8.370  19.127  0.00  0.00    -0.028 A 
ATOM     12  C   UNL     1      -2.350   8.437  17.727  0.00  0.00    +0.005 A 
ATOM     13  C   UNL     1      -3.497   8.264  19.843  0.00  0.00    +0.005 A 
ATOM     14  C   UNL     1      -3.576   8.373  17.061  0.00  0.00    +0.000 A 
ATOM     15  C   UNL     1      -4.719   8.202  19.175  0.00  0.00    +0.000 A 
ATOM     16  C   UNL     1      -4.759   8.254  17.784  0.00  0.00    +0.000 A 
ENDBRANCH  10  11
ENDBRANCH   1  10
TORSDOF 2
ENDMDL
