MODEL 1
REMARK VINA RESULT:    -5.357      0.000      0.000
REMARK INTER + INTRA:          -6.095
REMARK INTER:                  -5.984
REMARK INTRA:                  -0.111
REMARK UNBOUND:                -0.111
REMARK  Name = 1550473
REMARK  2 active torsions:
REMARK  status: ('A' for Active; 'I' for Inactive)
REMARK    1  A    between atoms: N_1  and  C_4
REMARK    2  A    between atoms: C_4  and  C_5
REMARK                            x       y       z     vdW  Elec       q    Type
REMARK                         _______ _______ _______ _____ _____    ______ ____
ROOT
ATOM      1  N   UNL     1      -2.421 -10.277   1.440  0.00  0.00    -0.354 N 
ATOM      2  N   UNL     1      -1.802  -9.273   3.433  0.00  0.00    -0.372 N 
ATOM      3  N   UNL     1      -1.502  -8.122   1.471  0.00  0.00    -0.372 N 
ATOM      4  C   UNL     1      -1.912  -9.229   2.100  0.00  0.00    +0.166 C 
ATOM      5  H   UNL     1      -2.685 -11.099   1.972  0.00  0.00    +0.163 HD
ATOM      6  H   UNL     1      -1.425  -8.496   3.959  0.00  0.00    +0.159 HD
ATOM      7  H   UNL     1      -2.110 -10.077   3.967  0.00  0.00    +0.159 HD
ATOM      8  H   UNL     1      -1.553  -8.028   0.466  0.00  0.00    +0.159 HD
ATOM      9  H   UNL     1      -1.111  -7.338   1.978  0.00  0.00    +0.159 HD
ENDROOT
BRANCH   1  10
ATOM     10  C   UNL     1      -2.633 -10.309  -0.006  0.00  0.00    +0.151 C 
BRANCH  10  11
ATOM     11  C   UNL     1      -2.358 -11.698  -0.512  0.00  0.00    -0.028 A 
ATOM     12  C   UNL     1      -2.962 -12.810   0.094  0.00  0.00    +0.005 A 
ATOM     13  C   UNL     1      -1.499 -11.909  -1.601  0.00  0.00    +0.005 A 
ATOM     14  C   UNL     1      -2.730 -14.098  -0.395  0.00  0.00    +0.000 A 
ATOM     15  C   UNL     1      -1.269 -13.197  -2.086  0.00  0.00    +0.000 A 
ATOM     16  C   UNL     1      -1.887 -14.290  -1.484  0.00  0.00    +0.000 A 
ENDBRANCH  10  11
ENDBRANCH   1  10
TORSDOF 2
ENDMDL
MODEL 2
REMARK VINA RESULT:    -4.997      8.616     11.689
REMARK INTER + INTRA:          -5.693
REMARK INTER:                  -5.548
REMARK INTRA:                  -0.145
REMARK UNBOUND:                -0.111
REMARK  Name = 1550473
REMARK  2 active torsions:
REMARK  status: ('A' for Active; 'I' for Inactive)
REMARK    1  A    between atoms: N_1  and  C_4
REMARK    2  A    between atoms: C_4  and  C_5
REMARK                            x       y       z     vdW  Elec       q    Type
REMARK                         _______ _______ _______ _____ _____    ______ ____
ROOT
ATOM      1  N   UNL     1       1.542  -4.824   5.331  0.00  0.00    -0.354 N 
ATOM      2  N   UNL     1       0.798  -7.006   5.104  0.00  0.00    -0.372 N 
ATOM      3  N   UNL     1       0.287  -5.853   7.021  0.00  0.00    -0.372 N 
ATOM      4  C   UNL     1       0.880  -5.880   5.823  0.00  0.00    +0.166 C 
ATOM      5  H   UNL     1       1.995  -4.918   4.429  0.00  0.00    +0.163 HD
ATOM      6  H   UNL     1       0.302  -7.817   5.448  0.00  0.00    +0.159 HD
ATOM      7  H   UNL     1       1.213  -7.082   4.183  0.00  0.00    +0.159 HD
ATOM      8  H   UNL     1       0.317  -5.036   7.616  0.00  0.00    +0.159 HD
ATOM      9  H   UNL     1      -0.204  -6.659   7.388  0.00  0.00    +0.159 HD
ENDROOT
BRANCH   1  10
ATOM     10  C   UNL     1       1.644  -3.534   6.010  0.00  0.00    +0.151 C 
BRANCH  10  11
ATOM     11  C   UNL     1       2.953  -3.470   6.749  0.00  0.00    -0.028 A 
ATOM     12  C   UNL     1       4.113  -3.018   6.103  0.00  0.00    +0.005 A 
ATOM     13  C   UNL     1       3.037  -3.854   8.096  0.00  0.00    +0.005 A 
ATOM     14  C   UNL     1       5.322  -2.930   6.797  0.00  0.00    +0.000 A 
ATOM     15  C   UNL     1       4.247  -3.765   8.785  0.00  0.00    +0.000 A 
ATOM     16  C   UNL     1       5.388  -3.301   8.136  0.00  0.00    +0.000 A 
ENDBRANCH  10  11
ENDBRANCH   1  10
TORSDOF 2
ENDMDL
MODEL 3
REMARK VINA RESULT:    -4.810     29.531     30.563
REMARK INTER + INTRA:          -5.483
REMARK INTER:                  -5.419
REMARK INTRA:                  -0.064
REMARK UNBOUND:                -0.111
REMARK  Name = 1550473
REMARK  2 active torsions:
REMARK  status: ('A' for Active; 'I' for Inactive)
REMARK    1  A    between atoms: N_1  and  C_4
REMARK    2  A    between atoms: C_4  and  C_5
REMARK                            x       y       z     vdW  Elec       q    Type
REMARK                         _______ _______ _______ _____ _____    ______ ____
ROOT
ATOM      1  N   UNL     1       8.555   2.366  25.221  0.00  0.00    -0.354 N 
ATOM      2  N   UNL     1       8.225   4.133  26.682  0.00  0.00    -0.372 N 
ATOM      3  N   UNL     1      10.281   3.879  25.696  0.00  0.00    -0.372 N 
ATOM      4  C   UNL     1       9.025   3.448  25.856  0.00  0.00    +0.166 C 
ATOM      5  H   UNL     1       7.603   2.074  25.409  0.00  0.00    +0.163 HD
ATOM      6  H   UNL     1       8.550   4.955  27.172  0.00  0.00    +0.159 HD
ATOM      7  H   UNL     1       7.259   3.865  26.832  0.00  0.00    +0.159 HD
ATOM      8  H   UNL     1      10.937   3.403  25.092  0.00  0.00    +0.159 HD
ATOM      9  H   UNL     1      10.629   4.693  26.187  0.00  0.00    +0.159 HD
ENDROOT
BRANCH   1  10
ATOM     10  C   UNL     1       9.328   1.582  24.260  0.00  0.00    +0.151 C 
BRANCH  10  11
ATOM     11  C   UNL     1       9.787   0.310  24.920  0.00  0.00    -0.028 A 
ATOM     12  C   UNL     1       9.509   0.070  26.274  0.00  0.00    +0.005 A 
ATOM     13  C   UNL     1      10.495  -0.661  24.195  0.00  0.00    +0.005 A 
ATOM     14  C   UNL     1       9.909  -1.123  26.879  0.00  0.00    +0.000 A 
ATOM     15  C   UNL     1      10.892  -1.851  24.804  0.00  0.00    +0.000 A 
ATOM     16  C   UNL     1      10.597  -2.083  26.145  0.00  0.00    +0.000 A 
ENDBRANCH  10  11
ENDBRANCH   1  10
TORSDOF 2
ENDMDL
MODEL 4
REMARK VINA RESULT:    -4.733     24.933     25.543
REMARK INTER + INTRA:          -5.397
REMARK INTER:                  -5.241
REMARK INTRA:                  -0.156
REMARK UNBOUND:                -0.111
REMARK  Name = 1550473
REMARK  2 active torsions:
REMARK  status: ('A' for Active; 'I' for Inactive)
REMARK    1  A    between atoms: N_1  and  C_4
REMARK    2  A    between atoms: C_4  and  C_5
REMARK                            x       y       z     vdW  Elec       q    Type
REMARK                         _______ _______ _______ _____ _____    ______ ____
ROOT
ATOM      1  N   UNL     1      -4.555   3.850  20.985  0.00  0.00    -0.354 N 
ATOM      2  N   UNL     1      -5.309   1.662  21.099  0.00  0.00    -0.372 N 
ATOM      3  N   UNL     1      -3.049   2.058  21.090  0.00  0.00    -0.372 N 
ATOM      4  C   UNL     1      -4.297   2.537  21.057  0.00  0.00    +0.166 C 
ATOM      5  H   UNL     1      -5.523   4.147  20.933  0.00  0.00    +0.163 HD
ATOM      6  H   UNL     1      -5.145   0.666  21.157  0.00  0.00    +0.159 HD
ATOM      7  H   UNL     1      -6.275   1.965  21.093  0.00  0.00    +0.159 HD
ATOM      8  H   UNL     1      -2.241   2.665  21.055  0.00  0.00    +0.159 HD
ATOM      9  H   UNL     1      -2.864   1.063  21.136  0.00  0.00    +0.159 HD
ENDROOT
BRANCH   1  10
ATOM     10  C   UNL     1      -3.526   4.887  20.989  0.00  0.00    +0.151 C 
BRANCH  10  11
ATOM     11  C   UNL     1      -3.473   5.532  19.631  0.00  0.00    -0.028 A 
ATOM     12  C   UNL     1      -2.251   5.962  19.093  0.00  0.00    +0.005 A 
ATOM     13  C   UNL     1      -4.642   5.710  18.874  0.00  0.00    +0.005 A 
ATOM     14  C   UNL     1      -2.198   6.533  17.820  0.00  0.00    +0.000 A 
ATOM     15  C   UNL     1      -4.584   6.281  17.603  0.00  0.00    +0.000 A 
ATOM     16  C   UNL     1      -3.362   6.690  17.075  0.00  0.00    +0.000 A 
ENDBRANCH  10  11
ENDBRANCH   1  10
TORSDOF 2
ENDMDL
MODEL 5
REMARK VINA RESULT:    -4.540      5.271      8.823
REMARK INTER + INTRA:          -5.181
REMARK INTER:                  -5.044
REMARK INTRA:                  -0.137
REMARK UNBOUND:                -0.111
REMARK  Name = 1550473
REMARK  2 active torsions:
REMARK  status: ('A' for Active; 'I' for Inactive)
REMARK    1  A    between atoms: N_1  and  C_4
REMARK    2  A    between atoms: C_4  and  C_5
REMARK                            x       y       z     vdW  Elec       q    Type
REMARK                         _______ _______ _______ _____ _____    ______ ____
ROOT
ATOM      1  N   UNL     1       0.510  -7.564   3.580  0.00  0.00    -0.354 N 
ATOM      2  N   UNL     1      -0.538  -7.955   1.552  0.00  0.00    -0.372 N 
ATOM      3  N   UNL     1      -1.428  -8.876   3.455  0.00  0.00    -0.372 N 
ATOM      4  C   UNL     1      -0.480  -8.131   2.877  0.00  0.00    +0.166 C 
ATOM      5  H   UNL     1       1.214  -7.036   3.078  0.00  0.00    +0.163 HD
ATOM      6  H   UNL     1      -1.275  -8.368   0.995  0.00  0.00    +0.159 HD
ATOM      7  H   UNL     1       0.142  -7.389   1.059  0.00  0.00    +0.159 HD
ATOM      8  H   UNL     1      -1.438  -9.052   4.451  0.00  0.00    +0.159 HD
ATOM      9  H   UNL     1      -2.168  -9.307   2.914  0.00  0.00    +0.159 HD
ENDROOT
BRANCH   1  10
ATOM     10  C   UNL     1       0.633  -7.649   5.034  0.00  0.00    +0.151 C 
BRANCH  10  11
ATOM     11  C   UNL     1       0.944  -6.283   5.581  0.00  0.00    -0.028 A 
ATOM     12  C   UNL     1       0.815  -6.020   6.953  0.00  0.00    +0.005 A 
ATOM     13  C   UNL     1       1.373  -5.250   4.734  0.00  0.00    +0.005 A 
ATOM     14  C   UNL     1       1.132  -4.760   7.466  0.00  0.00    +0.000 A 
ATOM     15  C   UNL     1       1.689  -3.993   5.251  0.00  0.00    +0.000 A 
ATOM     16  C   UNL     1       1.570  -3.749   6.617  0.00  0.00    +0.000 A 
ENDBRANCH  10  11
ENDBRANCH   1  10
TORSDOF 2
ENDMDL
MODEL 6
REMARK VINA RESULT:    -4.381     29.471     30.254
REMARK INTER + INTRA:          -5.004
REMARK INTER:                  -4.862
REMARK INTRA:                  -0.141
REMARK UNBOUND:                -0.111
REMARK  Name = 1550473
REMARK  2 active torsions:
REMARK  status: ('A' for Active; 'I' for Inactive)
REMARK    1  A    between atoms: N_1  and  C_4
REMARK    2  A    between atoms: C_4  and  C_5
REMARK                            x       y       z     vdW  Elec       q    Type
REMARK                         _______ _______ _______ _____ _____    ______ ____
ROOT
ATOM      1  N   UNL     1      11.028  -2.287  24.560  0.00  0.00    -0.354 N 
ATOM      2  N   UNL     1      12.876  -3.064  23.399  0.00  0.00    -0.372 N 
ATOM      3  N   UNL     1      12.900  -3.125  25.693  0.00  0.00    -0.372 N 
ATOM      4  C   UNL     1      12.257  -2.821  24.561  0.00  0.00    +0.166 C 
ATOM      5  H   UNL     1      10.607  -2.051  23.668  0.00  0.00    +0.163 HD
ATOM      6  H   UNL     1      13.802  -3.469  23.368  0.00  0.00    +0.159 HD
ATOM      7  H   UNL     1      12.434  -2.870  22.509  0.00  0.00    +0.159 HD
ATOM      8  H   UNL     1      12.490  -2.961  26.602  0.00  0.00    +0.159 HD
ATOM      9  H   UNL     1      13.832  -3.521  25.683  0.00  0.00    +0.159 HD
ENDROOT
BRANCH   1  10
ATOM     10  C   UNL     1      10.246  -2.033  25.768  0.00  0.00    +0.151 C 
BRANCH  10  11
ATOM     11  C   UNL     1       9.673  -0.644  25.699  0.00  0.00    -0.028 A 
ATOM     12  C   UNL     1      10.177   0.289  24.781  0.00  0.00    +0.005 A 
ATOM     13  C   UNL     1       8.623  -0.257  26.545  0.00  0.00    +0.005 A 
ATOM     14  C   UNL     1       9.626   1.570  24.696  0.00  0.00    +0.000 A 
ATOM     15  C   UNL     1       8.075   1.023  26.458  0.00  0.00    +0.000 A 
ATOM     16  C   UNL     1       8.575   1.935  25.532  0.00  0.00    +0.000 A 
ENDBRANCH  10  11
ENDBRANCH   1  10
TORSDOF 2
ENDMDL
MODEL 7
REMARK VINA RESULT:    -4.370     30.631     31.716
REMARK INTER + INTRA:          -4.992
REMARK INTER:                  -4.861
REMARK INTRA:                  -0.131
REMARK UNBOUND:                -0.111
REMARK  Name = 1550473
REMARK  2 active torsions:
REMARK  status: ('A' for Active; 'I' for Inactive)
REMARK    1  A    between atoms: N_1  and  C_4
REMARK    2  A    between atoms: C_4  and  C_5
REMARK                            x       y       z     vdW  Elec       q    Type
REMARK                         _______ _______ _______ _____ _____    ______ ____
ROOT
ATOM      1  N   UNL     1       8.846   2.303  25.298  0.00  0.00    -0.354 N 
ATOM      2  N   UNL     1       8.072   0.664  26.741  0.00  0.00    -0.372 N 
ATOM      3  N   UNL     1      10.061   0.330  25.647  0.00  0.00    -0.372 N 
ATOM      4  C   UNL     1       9.001   1.109  25.885  0.00  0.00    +0.166 C 
ATOM      5  H   UNL     1       8.004   2.832  25.498  0.00  0.00    +0.163 HD
ATOM      6  H   UNL     1       8.164  -0.231  27.201  0.00  0.00    +0.159 HD
ATOM      7  H   UNL     1       7.255   1.215  26.973  0.00  0.00    +0.159 HD
ATOM      8  H   UNL     1      10.794   0.605  25.006  0.00  0.00    +0.159 HD
ATOM      9  H   UNL     1      10.165  -0.575  26.089  0.00  0.00    +0.159 HD
ENDROOT
BRANCH   1  10
ATOM     10  C   UNL     1       9.824   2.902  24.392  0.00  0.00    +0.151 C 
BRANCH  10  11
ATOM     11  C   UNL     1       9.796   4.397  24.558  0.00  0.00    -0.028 A 
ATOM     12  C   UNL     1       8.804   5.008  25.339  0.00  0.00    +0.005 A 
ATOM     13  C   UNL     1      10.761   5.207  23.940  0.00  0.00    +0.005 A 
ATOM     14  C   UNL     1       8.796   6.394  25.517  0.00  0.00    +0.000 A 
ATOM     15  C   UNL     1      10.749   6.590  24.120  0.00  0.00    +0.000 A 
ATOM     16  C   UNL     1       9.767   7.183  24.910  0.00  0.00    +0.000 A 
ENDBRANCH  10  11
ENDBRANCH   1  10
TORSDOF 2
ENDMDL
MODEL 8
REMARK VINA RESULT:    -4.292     31.183     32.210
REMARK INTER + INTRA:          -4.905
REMARK INTER:                  -4.781
REMARK INTRA:                  -0.124
REMARK UNBOUND:                -0.111
REMARK  Name = 1550473
REMARK  2 active torsions:
REMARK  status: ('A' for Active; 'I' for Inactive)
REMARK    1  A    between atoms: N_1  and  C_4
REMARK    2  A    between atoms: C_4  and  C_5
REMARK                            x       y       z     vdW  Elec       q    Type
REMARK                         _______ _______ _______ _____ _____    ______ ____
ROOT
ATOM      1  N   UNL     1      -3.162   6.871 -26.553  0.00  0.00    -0.354 N 
ATOM      2  N   UNL     1      -2.206   8.977 -26.689  0.00  0.00    -0.372 N 
ATOM      3  N   UNL     1      -3.071   8.279 -24.682  0.00  0.00    -0.372 N 
ATOM      4  C   UNL     1      -2.820   8.029 -25.971  0.00  0.00    +0.166 C 
ATOM      5  H   UNL     1      -2.971   6.755 -27.542  0.00  0.00    +0.163 HD
ATOM      6  H   UNL     1      -1.934   9.859 -26.277  0.00  0.00    +0.159 HD
ATOM      7  H   UNL     1      -1.975   8.840 -27.666  0.00  0.00    +0.159 HD
ATOM      8  H   UNL     1      -3.537   7.607 -24.087  0.00  0.00    +0.159 HD
ATOM      9  H   UNL     1      -2.817   9.160 -24.254  0.00  0.00    +0.159 HD
ENDROOT
BRANCH   1  10
ATOM     10  C   UNL     1      -3.785   5.754 -25.847  0.00  0.00    +0.151 C 
BRANCH  10  11
ATOM     11  C   UNL     1      -4.557   4.919 -26.832  0.00  0.00    -0.028 A 
ATOM     12  C   UNL     1      -4.672   3.533 -26.654  0.00  0.00    +0.005 A 
ATOM     13  C   UNL     1      -5.180   5.510 -27.942  0.00  0.00    +0.005 A 
ATOM     14  C   UNL     1      -5.414   2.762 -27.553  0.00  0.00    +0.000 A 
ATOM     15  C   UNL     1      -5.919   4.737 -28.837  0.00  0.00    +0.000 A 
ATOM     16  C   UNL     1      -6.038   3.363 -28.641  0.00  0.00    +0.000 A 
ENDBRANCH  10  11
ENDBRANCH   1  10
TORSDOF 2
ENDMDL
MODEL 9
REMARK VINA RESULT:    -4.190      4.222      5.795
REMARK INTER + INTRA:          -4.791
REMARK INTER:                  -4.671
REMARK INTRA:                  -0.120
REMARK UNBOUND:                -0.111
REMARK  Name = 1550473
REMARK  2 active torsions:
REMARK  status: ('A' for Active; 'I' for Inactive)
REMARK    1  A    between atoms: N_1  and  C_4
REMARK    2  A    between atoms: C_4  and  C_5
REMARK                            x       y       z     vdW  Elec       q    Type
REMARK                         _______ _______ _______ _____ _____    ______ ____
ROOT
ATOM      1  N   UNL     1       0.654  -7.086   5.150  0.00  0.00    -0.354 N 
ATOM      2  N   UNL     1       0.370  -5.719   6.997  0.00  0.00    -0.372 N 
ATOM      3  N   UNL     1       1.404  -4.866   5.135  0.00  0.00    -0.372 N 
ATOM      4  C   UNL     1       0.813  -5.897   5.747  0.00  0.00    +0.166 C 
ATOM      5  H   UNL     1       0.225  -7.837   5.678  0.00  0.00    +0.163 HD
ATOM      6  H   UNL     1       0.472  -4.832   7.472  0.00  0.00    +0.159 HD
ATOM      7  H   UNL     1      -0.100  -6.457   7.507  0.00  0.00    +0.159 HD
ATOM      8  H   UNL     1       1.765  -4.937   4.193  0.00  0.00    +0.159 HD
ATOM      9  H   UNL     1       1.526  -3.974   5.598  0.00  0.00    +0.159 HD
ENDROOT
BRANCH   1  10
ATOM     10  C   UNL     1       1.053  -7.368   3.772  0.00  0.00    +0.151 C 
BRANCH  10  11
ATOM     11  C   UNL     1      -0.029  -8.170   3.102  0.00  0.00    -0.028 A 
ATOM     12  C   UNL     1      -0.414  -7.885   1.784  0.00  0.00    +0.005 A 
ATOM     13  C   UNL     1      -0.669  -9.220   3.779  0.00  0.00    +0.005 A 
ATOM     14  C   UNL     1      -1.397  -8.649   1.151  0.00  0.00    +0.000 A 
ATOM     15  C   UNL     1      -1.652  -9.979   3.144  0.00  0.00    +0.000 A 
ATOM     16  C   UNL     1      -2.014  -9.695   1.829  0.00  0.00    +0.000 A 
ENDBRANCH  10  11
ENDBRANCH   1  10
TORSDOF 2
ENDMDL
