MODEL 1
REMARK VINA RESULT:    -5.648      0.000      0.000
REMARK INTER + INTRA:          -6.406
REMARK INTER:                  -6.308
REMARK INTRA:                  -0.098
REMARK UNBOUND:                -0.098
REMARK  Name = 1550473
REMARK  2 active torsions:
REMARK  status: ('A' for Active; 'I' for Inactive)
REMARK    1  A    between atoms: N_1  and  C_4
REMARK    2  A    between atoms: C_4  and  C_5
REMARK                            x       y       z     vdW  Elec       q    Type
REMARK                         _______ _______ _______ _____ _____    ______ ____
ROOT
ATOM      1  N   UNL     1      13.979   4.782  12.593  0.00  0.00    -0.354 N 
ATOM      2  N   UNL     1      12.460   3.375  11.556  0.00  0.00    -0.372 N 
ATOM      3  N   UNL     1      14.454   2.508  12.288  0.00  0.00    -0.372 N 
ATOM      4  C   UNL     1      13.643   3.562  12.153  0.00  0.00    +0.166 C 
ATOM      5  H   UNL     1      13.333   5.547  12.433  0.00  0.00    +0.163 HD
ATOM      6  H   UNL     1      12.177   2.466  11.216  0.00  0.00    +0.159 HD
ATOM      7  H   UNL     1      11.797   4.132  11.439  0.00  0.00    +0.159 HD
ATOM      8  H   UNL     1      15.363   2.583  12.724  0.00  0.00    +0.159 HD
ATOM      9  H   UNL     1      14.194   1.592  11.944  0.00  0.00    +0.159 HD
ENDROOT
BRANCH   1  10
ATOM     10  C   UNL     1      15.221   5.081  13.304  0.00  0.00    +0.151 C 
BRANCH  10  11
ATOM     11  C   UNL     1      14.893   5.501  14.710  0.00  0.00    -0.028 A 
ATOM     12  C   UNL     1      15.772   6.323  15.432  0.00  0.00    +0.005 A 
ATOM     13  C   UNL     1      13.701   5.086  15.325  0.00  0.00    +0.005 A 
ATOM     14  C   UNL     1      15.453   6.738  16.727  0.00  0.00    +0.000 A 
ATOM     15  C   UNL     1      13.387   5.502  16.619  0.00  0.00    +0.000 A 
ATOM     16  C   UNL     1      14.262   6.330  17.318  0.00  0.00    +0.000 A 
ENDBRANCH  10  11
ENDBRANCH   1  10
TORSDOF 2
ENDMDL
MODEL 2
REMARK VINA RESULT:    -5.402     32.481     33.433
REMARK INTER + INTRA:          -6.132
REMARK INTER:                  -6.032
REMARK INTRA:                  -0.100
REMARK UNBOUND:                -0.098
REMARK  Name = 1550473
REMARK  2 active torsions:
REMARK  status: ('A' for Active; 'I' for Inactive)
REMARK    1  A    between atoms: N_1  and  C_4
REMARK    2  A    between atoms: C_4  and  C_5
REMARK                            x       y       z     vdW  Elec       q    Type
REMARK                         _______ _______ _______ _____ _____    ______ ____
ROOT
ATOM      1  N   UNL     1      -3.331   1.921 -14.177  0.00  0.00    -0.354 N 
ATOM      2  N   UNL     1      -5.390   2.972 -14.330  0.00  0.00    -0.372 N 
ATOM      3  N   UNL     1      -3.497   4.159 -14.852  0.00  0.00    -0.372 N 
ATOM      4  C   UNL     1      -4.057   3.013 -14.453  0.00  0.00    +0.166 C 
ATOM      5  H   UNL     1      -3.814   1.092 -13.849  0.00  0.00    +0.163 HD
ATOM      6  H   UNL     1      -5.964   3.779 -14.535  0.00  0.00    +0.159 HD
ATOM      7  H   UNL     1      -5.873   2.128 -14.047  0.00  0.00    +0.159 HD
ATOM      8  H   UNL     1      -2.496   4.257 -14.959  0.00  0.00    +0.159 HD
ATOM      9  H   UNL     1      -4.054   4.981 -15.051  0.00  0.00    +0.159 HD
ENDROOT
BRANCH   1  10
ATOM     10  C   UNL     1      -1.880   1.844 -14.329  0.00  0.00    +0.151 C 
BRANCH  10  11
ATOM     11  C   UNL     1      -1.435   0.428 -14.091  0.00  0.00    -0.028 A 
ATOM     12  C   UNL     1      -1.700  -0.205 -12.867  0.00  0.00    +0.005 A 
ATOM     13  C   UNL     1      -0.752  -0.289 -15.086  0.00  0.00    +0.005 A 
ATOM     14  C   UNL     1      -1.314  -1.531 -12.656  0.00  0.00    +0.000 A 
ATOM     15  C   UNL     1      -0.367  -1.612 -14.871  0.00  0.00    +0.000 A 
ATOM     16  C   UNL     1      -0.650  -2.233 -13.657  0.00  0.00    +0.000 A 
ENDBRANCH  10  11
ENDBRANCH   1  10
TORSDOF 2
ENDMDL
MODEL 3
REMARK VINA RESULT:    -5.074      2.791      5.041
REMARK INTER + INTRA:          -5.765
REMARK INTER:                  -5.641
REMARK INTRA:                  -0.124
REMARK UNBOUND:                -0.098
REMARK  Name = 1550473
REMARK  2 active torsions:
REMARK  status: ('A' for Active; 'I' for Inactive)
REMARK    1  A    between atoms: N_1  and  C_4
REMARK    2  A    between atoms: C_4  and  C_5
REMARK                            x       y       z     vdW  Elec       q    Type
REMARK                         _______ _______ _______ _____ _____    ______ ____
ROOT
ATOM      1  N   UNL     1      14.586   5.881  15.973  0.00  0.00    -0.354 N 
ATOM      2  N   UNL     1      13.566   6.661  17.901  0.00  0.00    -0.372 N 
ATOM      3  N   UNL     1      15.387   7.787  17.076  0.00  0.00    -0.372 N 
ATOM      4  C   UNL     1      14.522   6.773  16.971  0.00  0.00    +0.166 C 
ATOM      5  H   UNL     1      13.919   5.118  15.966  0.00  0.00    +0.163 HD
ATOM      6  H   UNL     1      13.490   7.321  18.663  0.00  0.00    +0.159 HD
ATOM      7  H   UNL     1      12.872   5.924  17.866  0.00  0.00    +0.159 HD
ATOM      8  H   UNL     1      16.135   7.924  16.410  0.00  0.00    +0.159 HD
ATOM      9  H   UNL     1      15.335   8.451  17.839  0.00  0.00    +0.159 HD
ENDROOT
BRANCH   1  10
ATOM     10  C   UNL     1      15.555   5.945  14.880  0.00  0.00    +0.151 C 
BRANCH  10  11
ATOM     11  C   UNL     1      15.109   5.028  13.775  0.00  0.00    -0.028 A 
ATOM     12  C   UNL     1      13.771   4.615  13.688  0.00  0.00    +0.005 A 
ATOM     13  C   UNL     1      16.018   4.574  12.807  0.00  0.00    +0.005 A 
ATOM     14  C   UNL     1      13.351   3.788  12.644  0.00  0.00    +0.000 A 
ATOM     15  C   UNL     1      15.594   3.748  11.767  0.00  0.00    +0.000 A 
ATOM     16  C   UNL     1      14.260   3.357  11.684  0.00  0.00    +0.000 A 
ENDBRANCH  10  11
ENDBRANCH   1  10
TORSDOF 2
ENDMDL
MODEL 4
REMARK VINA RESULT:    -4.754     32.822     34.393
REMARK INTER + INTRA:          -5.408
REMARK INTER:                  -5.249
REMARK INTRA:                  -0.159
REMARK UNBOUND:                -0.098
REMARK  Name = 1550473
REMARK  2 active torsions:
REMARK  status: ('A' for Active; 'I' for Inactive)
REMARK    1  A    between atoms: N_1  and  C_4
REMARK    2  A    between atoms: C_4  and  C_5
REMARK                            x       y       z     vdW  Elec       q    Type
REMARK                         _______ _______ _______ _____ _____    ______ ____
ROOT
ATOM      1  N   UNL     1      -1.307  -1.835 -17.248  0.00  0.00    -0.354 N 
ATOM      2  N   UNL     1      -3.111  -2.698 -18.417  0.00  0.00    -0.372 N 
ATOM      3  N   UNL     1      -3.180  -0.511 -17.727  0.00  0.00    -0.372 N 
ATOM      4  C   UNL     1      -2.522  -1.673 -17.789  0.00  0.00    +0.166 C 
ATOM      5  H   UNL     1      -0.873  -2.750 -17.303  0.00  0.00    +0.163 HD
ATOM      6  H   UNL     1      -4.025  -2.605 -18.837  0.00  0.00    +0.159 HD
ATOM      7  H   UNL     1      -2.656  -3.598 -18.510  0.00  0.00    +0.159 HD
ATOM      8  H   UNL     1      -2.793   0.299 -17.262  0.00  0.00    +0.159 HD
ATOM      9  H   UNL     1      -4.101  -0.402 -18.131  0.00  0.00    +0.159 HD
ENDROOT
BRANCH   1  10
ATOM     10  C   UNL     1      -0.556  -0.768 -16.590  0.00  0.00    +0.151 C 
BRANCH  10  11
ATOM     11  C   UNL     1      -0.863  -0.787 -15.118  0.00  0.00    -0.028 A 
ATOM     12  C   UNL     1      -1.295   0.377 -14.466  0.00  0.00    +0.005 A 
ATOM     13  C   UNL     1      -0.729  -1.967 -14.371  0.00  0.00    +0.005 A 
ATOM     14  C   UNL     1      -1.609   0.353 -13.105  0.00  0.00    +0.000 A 
ATOM     15  C   UNL     1      -1.043  -1.987 -13.012  0.00  0.00    +0.000 A 
ATOM     16  C   UNL     1      -1.485  -0.827 -12.380  0.00  0.00    +0.000 A 
ENDBRANCH  10  11
ENDBRANCH   1  10
TORSDOF 2
ENDMDL
MODEL 5
REMARK VINA RESULT:    -4.531     27.499     28.343
REMARK INTER + INTRA:          -5.159
REMARK INTER:                  -5.035
REMARK INTRA:                  -0.124
REMARK UNBOUND:                -0.098
REMARK  Name = 1550473
REMARK  2 active torsions:
REMARK  status: ('A' for Active; 'I' for Inactive)
REMARK    1  A    between atoms: N_1  and  C_4
REMARK    2  A    between atoms: C_4  and  C_5
REMARK                            x       y       z     vdW  Elec       q    Type
REMARK                         _______ _______ _______ _____ _____    ______ ____
ROOT
ATOM      1  N   UNL     1      -7.861  -7.163   0.874  0.00  0.00    -0.354 N 
ATOM      2  N   UNL     1      -7.276  -8.762  -0.696  0.00  0.00    -0.372 N 
ATOM      3  N   UNL     1      -5.914  -8.442   1.123  0.00  0.00    -0.372 N 
ATOM      4  C   UNL     1      -7.018  -8.112   0.446  0.00  0.00    +0.166 C 
ATOM      5  H   UNL     1      -8.665  -6.938   0.299  0.00  0.00    +0.163 HD
ATOM      6  H   UNL     1      -6.660  -9.485  -1.043  0.00  0.00    +0.159 HD
ATOM      7  H   UNL     1      -8.104  -8.567  -1.245  0.00  0.00    +0.159 HD
ATOM      8  H   UNL     1      -5.659  -7.985   1.988  0.00  0.00    +0.159 HD
ATOM      9  H   UNL     1      -5.279  -9.155   0.786  0.00  0.00    +0.159 HD
ENDROOT
BRANCH   1  10
ATOM     10  C   UNL     1      -7.701  -6.434   2.131  0.00  0.00    +0.151 C 
BRANCH  10  11
ATOM     11  C   UNL     1      -8.626  -5.248   2.132  0.00  0.00    -0.028 A 
ATOM     12  C   UNL     1      -8.898  -4.559   3.323  0.00  0.00    +0.005 A 
ATOM     13  C   UNL     1      -9.228  -4.805   0.945  0.00  0.00    +0.005 A 
ATOM     14  C   UNL     1      -9.734  -3.439   3.320  0.00  0.00    +0.000 A 
ATOM     15  C   UNL     1     -10.062  -3.687   0.946  0.00  0.00    +0.000 A 
ATOM     16  C   UNL     1     -10.313  -3.003   2.133  0.00  0.00    +0.000 A 
ENDBRANCH  10  11
ENDBRANCH   1  10
TORSDOF 2
ENDMDL
MODEL 6
REMARK VINA RESULT:    -4.473      9.533     10.178
REMARK INTER + INTRA:          -5.095
REMARK INTER:                  -4.953
REMARK INTRA:                  -0.141
REMARK UNBOUND:                -0.098
REMARK  Name = 1550473
REMARK  2 active torsions:
REMARK  status: ('A' for Active; 'I' for Inactive)
REMARK    1  A    between atoms: N_1  and  C_4
REMARK    2  A    between atoms: C_4  and  C_5
REMARK                            x       y       z     vdW  Elec       q    Type
REMARK                         _______ _______ _______ _____ _____    ______ ____
ROOT
ATOM      1  N   UNL     1       6.883  11.640  12.564  0.00  0.00    -0.354 N 
ATOM      2  N   UNL     1       5.367  11.330  10.840  0.00  0.00    -0.372 N 
ATOM      3  N   UNL     1       5.767  13.459  11.597  0.00  0.00    -0.372 N 
ATOM      4  C   UNL     1       6.015  12.148  11.679  0.00  0.00    +0.166 C 
ATOM      5  H   UNL     1       7.004  10.634  12.596  0.00  0.00    +0.163 HD
ATOM      6  H   UNL     1       4.709  11.685  10.159  0.00  0.00    +0.159 HD
ATOM      7  H   UNL     1       5.525  10.330  10.843  0.00  0.00    +0.159 HD
ATOM      8  H   UNL     1       6.218  14.129  12.206  0.00  0.00    +0.159 HD
ATOM      9  H   UNL     1       5.103  13.833  10.930  0.00  0.00    +0.159 HD
ENDROOT
BRANCH   1  10
ATOM     10  C   UNL     1       7.679  12.448  13.485  0.00  0.00    +0.151 C 
BRANCH  10  11
ATOM     11  C   UNL     1       7.554  11.880  14.872  0.00  0.00    -0.028 A 
ATOM     12  C   UNL     1       8.699  11.594  15.630  0.00  0.00    +0.005 A 
ATOM     13  C   UNL     1       6.293  11.632  15.435  0.00  0.00    +0.005 A 
ATOM     14  C   UNL     1       8.582  11.094  16.929  0.00  0.00    +0.000 A 
ATOM     15  C   UNL     1       6.181  11.132  16.733  0.00  0.00    +0.000 A 
ATOM     16  C   UNL     1       7.326  10.866  17.480  0.00  0.00    +0.000 A 
ENDBRANCH  10  11
ENDBRANCH   1  10
TORSDOF 2
ENDMDL
MODEL 7
REMARK VINA RESULT:    -4.455      9.573     10.164
REMARK INTER + INTRA:          -5.074
REMARK INTER:                  -4.969
REMARK INTRA:                  -0.105
REMARK UNBOUND:                -0.098
REMARK  Name = 1550473
REMARK  2 active torsions:
REMARK  status: ('A' for Active; 'I' for Inactive)
REMARK    1  A    between atoms: N_1  and  C_4
REMARK    2  A    between atoms: C_4  and  C_5
REMARK                            x       y       z     vdW  Elec       q    Type
REMARK                         _______ _______ _______ _____ _____    ______ ____
ROOT
ATOM      1  N   UNL     1       6.486  12.564  12.098  0.00  0.00    -0.354 N 
ATOM      2  N   UNL     1       6.168  13.603  10.052  0.00  0.00    -0.372 N 
ATOM      3  N   UNL     1       5.585  11.395  10.277  0.00  0.00    -0.372 N 
ATOM      4  C   UNL     1       6.081  12.512  10.822  0.00  0.00    +0.166 C 
ATOM      5  H   UNL     1       6.881  13.432  12.442  0.00  0.00    +0.163 HD
ATOM      6  H   UNL     1       5.868  13.595   9.087  0.00  0.00    +0.159 HD
ATOM      7  H   UNL     1       6.521  14.482  10.412  0.00  0.00    +0.159 HD
ATOM      8  H   UNL     1       5.499  10.536  10.803  0.00  0.00    +0.159 HD
ATOM      9  H   UNL     1       5.290  11.364   9.310  0.00  0.00    +0.159 HD
ENDROOT
BRANCH   1  10
ATOM     10  C   UNL     1       6.384  11.447  13.035  0.00  0.00    +0.151 C 
BRANCH  10  11
ATOM     11  C   UNL     1       7.453  11.586  14.083  0.00  0.00    -0.028 A 
ATOM     12  C   UNL     1       7.127  12.007  15.381  0.00  0.00    +0.005 A 
ATOM     13  C   UNL     1       8.793  11.293  13.787  0.00  0.00    +0.005 A 
ATOM     14  C   UNL     1       8.115  12.107  16.364  0.00  0.00    +0.000 A 
ATOM     15  C   UNL     1       9.777  11.395  14.770  0.00  0.00    +0.000 A 
ATOM     16  C   UNL     1       9.437  11.800  16.059  0.00  0.00    +0.000 A 
ENDBRANCH  10  11
ENDBRANCH   1  10
TORSDOF 2
ENDMDL
MODEL 8
REMARK VINA RESULT:    -4.306      9.616     10.859
REMARK INTER + INTRA:          -4.908
REMARK INTER:                  -4.771
REMARK INTRA:                  -0.137
REMARK UNBOUND:                -0.098
REMARK  Name = 1550473
REMARK  2 active torsions:
REMARK  status: ('A' for Active; 'I' for Inactive)
REMARK    1  A    between atoms: N_1  and  C_4
REMARK    2  A    between atoms: C_4  and  C_5
REMARK                            x       y       z     vdW  Elec       q    Type
REMARK                         _______ _______ _______ _____ _____    ______ ____
ROOT
ATOM      1  N   UNL     1       7.677   0.398  17.932  0.00  0.00    -0.354 N 
ATOM      2  N   UNL     1       9.740  -0.655  17.952  0.00  0.00    -0.372 N 
ATOM      3  N   UNL     1       8.420  -0.765  19.826  0.00  0.00    -0.372 N 
ATOM      4  C   UNL     1       8.598  -0.334  18.573  0.00  0.00    +0.166 C 
ATOM      5  H   UNL     1       7.885   0.720  16.994  0.00  0.00    +0.163 HD
ATOM      6  H   UNL     1      10.452  -1.209  18.409  0.00  0.00    +0.159 HD
ATOM      7  H   UNL     1       9.926  -0.371  16.998  0.00  0.00    +0.159 HD
ATOM      8  H   UNL     1       7.583  -0.553  20.351  0.00  0.00    +0.159 HD
ATOM      9  H   UNL     1       9.126  -1.311  20.304  0.00  0.00    +0.159 HD
ENDROOT
BRANCH   1  10
ATOM     10  C   UNL     1       6.378   0.756  18.499  0.00  0.00    +0.151 C 
BRANCH  10  11
ATOM     11  C   UNL     1       5.327   0.639  17.430  0.00  0.00    -0.028 A 
ATOM     12  C   UNL     1       4.027   1.118  17.654  0.00  0.00    +0.005 A 
ATOM     13  C   UNL     1       5.625   0.056  16.189  0.00  0.00    +0.005 A 
ATOM     14  C   UNL     1       3.059   1.036  16.651  0.00  0.00    +0.000 A 
ATOM     15  C   UNL     1       4.655  -0.024  15.190  0.00  0.00    +0.000 A 
ATOM     16  C   UNL     1       3.373   0.469  15.420  0.00  0.00    +0.000 A 
ENDBRANCH  10  11
ENDBRANCH   1  10
TORSDOF 2
ENDMDL
MODEL 9
REMARK VINA RESULT:    -4.188     10.035     10.817
REMARK INTER + INTRA:          -4.776
REMARK INTER:                  -4.632
REMARK INTRA:                  -0.144
REMARK UNBOUND:                -0.098
REMARK  Name = 1550473
REMARK  2 active torsions:
REMARK  status: ('A' for Active; 'I' for Inactive)
REMARK    1  A    between atoms: N_1  and  C_4
REMARK    2  A    between atoms: C_4  and  C_5
REMARK                            x       y       z     vdW  Elec       q    Type
REMARK                         _______ _______ _______ _____ _____    ______ ____
ROOT
ATOM      1  N   UNL     1       4.761   0.267  17.224  0.00  0.00    -0.354 N 
ATOM      2  N   UNL     1       4.781   0.657  14.941  0.00  0.00    -0.372 N 
ATOM      3  N   UNL     1       6.759   0.179  16.002  0.00  0.00    -0.372 N 
ATOM      4  C   UNL     1       5.436   0.365  16.071  0.00  0.00    +0.166 C 
ATOM      5  H   UNL     1       3.764   0.449  17.215  0.00  0.00    +0.163 HD
ATOM      6  H   UNL     1       5.263   0.733  14.056  0.00  0.00    +0.159 HD
ATOM      7  H   UNL     1       3.777   0.793  14.927  0.00  0.00    +0.159 HD
ATOM      8  H   UNL     1       7.312  -0.038  16.819  0.00  0.00    +0.159 HD
ATOM      9  H   UNL     1       7.261   0.263  15.126  0.00  0.00    +0.159 HD
ENDROOT
BRANCH   1  10
ATOM     10  C   UNL     1       5.372  -0.099  18.501  0.00  0.00    +0.151 C 
BRANCH  10  11
ATOM     11  C   UNL     1       5.165   1.021  19.483  0.00  0.00    -0.028 A 
ATOM     12  C   UNL     1       6.164   1.346  20.412  0.00  0.00    +0.005 A 
ATOM     13  C   UNL     1       3.975   1.763  19.486  0.00  0.00    +0.005 A 
ATOM     14  C   UNL     1       5.985   2.406  21.305  0.00  0.00    +0.000 A 
ATOM     15  C   UNL     1       3.799   2.820  20.380  0.00  0.00    +0.000 A 
ATOM     16  C   UNL     1       4.805   3.142  21.288  0.00  0.00    +0.000 A 
ENDBRANCH  10  11
ENDBRANCH   1  10
TORSDOF 2
ENDMDL
