MODEL 1
REMARK VINA RESULT:    -4.115      0.000      0.000
REMARK INTER + INTRA:          -4.728
REMARK INTER:                  -4.597
REMARK INTRA:                  -0.132
REMARK UNBOUND:                -0.132
REMARK  Name = 1550473
REMARK  2 active torsions:
REMARK  status: ('A' for Active; 'I' for Inactive)
REMARK    1  A    between atoms: N_1  and  C_4
REMARK    2  A    between atoms: C_4  and  C_5
REMARK                            x       y       z     vdW  Elec       q    Type
REMARK                         _______ _______ _______ _____ _____    ______ ____
ROOT
ATOM      1  N   UNL     1       6.563   8.959  14.852  0.00  0.00    -0.354 N 
ATOM      2  N   UNL     1       6.196   7.803  12.879  0.00  0.00    -0.372 N 
ATOM      3  N   UNL     1       8.144   8.990  13.123  0.00  0.00    -0.372 N 
ATOM      4  C   UNL     1       6.973   8.593  13.630  0.00  0.00    +0.166 C 
ATOM      5  H   UNL     1       5.651   8.649  15.167  0.00  0.00    +0.163 HD
ATOM      6  H   UNL     1       6.480   7.507  11.955  0.00  0.00    +0.159 HD
ATOM      7  H   UNL     1       5.306   7.457  13.215  0.00  0.00    +0.159 HD
ATOM      8  H   UNL     1       8.774   9.593  13.636  0.00  0.00    +0.159 HD
ATOM      9  H   UNL     1       8.441   8.715  12.195  0.00  0.00    +0.159 HD
ENDROOT
BRANCH   1  10
ATOM     10  C   UNL     1       7.357   9.774  15.771  0.00  0.00    +0.151 C 
BRANCH  10  11
ATOM     11  C   UNL     1       7.661   8.968  17.004  0.00  0.00    -0.028 A 
ATOM     12  C   UNL     1       8.404   9.527  18.054  0.00  0.00    +0.005 A 
ATOM     13  C   UNL     1       7.204   7.647  17.130  0.00  0.00    +0.005 A 
ATOM     14  C   UNL     1       8.661   8.789  19.212  0.00  0.00    +0.000 A 
ATOM     15  C   UNL     1       7.463   6.914  18.288  0.00  0.00    +0.000 A 
ATOM     16  C   UNL     1       8.190   7.486  19.330  0.00  0.00    +0.000 A 
ENDBRANCH  10  11
ENDBRANCH   1  10
TORSDOF 2
ENDMDL
MODEL 2
REMARK VINA RESULT:    -4.045      2.467      3.477
REMARK INTER + INTRA:          -4.650
REMARK INTER:                  -4.479
REMARK INTRA:                  -0.171
REMARK UNBOUND:                -0.132
REMARK  Name = 1550473
REMARK  2 active torsions:
REMARK  status: ('A' for Active; 'I' for Inactive)
REMARK    1  A    between atoms: N_1  and  C_4
REMARK    2  A    between atoms: C_4  and  C_5
REMARK                            x       y       z     vdW  Elec       q    Type
REMARK                         _______ _______ _______ _____ _____    ______ ____
ROOT
ATOM      1  N   UNL     1       4.164   9.191  13.544  0.00  0.00    -0.354 N 
ATOM      2  N   UNL     1       4.159   8.720  11.276  0.00  0.00    -0.372 N 
ATOM      3  N   UNL     1       5.211   7.268  12.708  0.00  0.00    -0.372 N 
ATOM      4  C   UNL     1       4.513   8.394  12.525  0.00  0.00    +0.166 C 
ATOM      5  H   UNL     1       3.661  10.046  13.335  0.00  0.00    +0.163 HD
ATOM      6  H   UNL     1       4.405   8.136  10.488  0.00  0.00    +0.159 HD
ATOM      7  H   UNL     1       3.616   9.551  11.076  0.00  0.00    +0.159 HD
ATOM      8  H   UNL     1       5.514   6.969  13.626  0.00  0.00    +0.159 HD
ATOM      9  H   UNL     1       5.477   6.677  11.931  0.00  0.00    +0.159 HD
ENDROOT
BRANCH   1  10
ATOM     10  C   UNL     1       4.454   8.899  14.947  0.00  0.00    +0.151 C 
BRANCH  10  11
ATOM     11  C   UNL     1       5.674   9.671  15.367  0.00  0.00    -0.028 A 
ATOM     12  C   UNL     1       5.788  11.038  15.074  0.00  0.00    +0.005 A 
ATOM     13  C   UNL     1       6.718   9.042  16.063  0.00  0.00    +0.005 A 
ATOM     14  C   UNL     1       6.908  11.762  15.490  0.00  0.00    +0.000 A 
ATOM     15  C   UNL     1       7.835   9.768  16.476  0.00  0.00    +0.000 A 
ATOM     16  C   UNL     1       7.928  11.129  16.191  0.00  0.00    +0.000 A 
ENDBRANCH  10  11
ENDBRANCH   1  10
TORSDOF 2
ENDMDL
MODEL 3
REMARK VINA RESULT:    -4.007     13.348     14.413
REMARK INTER + INTRA:          -4.607
REMARK INTER:                  -4.472
REMARK INTRA:                  -0.136
REMARK UNBOUND:                -0.132
REMARK  Name = 1550473
REMARK  2 active torsions:
REMARK  status: ('A' for Active; 'I' for Inactive)
REMARK    1  A    between atoms: N_1  and  C_4
REMARK    2  A    between atoms: C_4  and  C_5
REMARK                            x       y       z     vdW  Elec       q    Type
REMARK                         _______ _______ _______ _____ _____    ______ ____
ROOT
ATOM      1  N   UNL     1      22.404  11.271  17.446  0.00  0.00    -0.354 N 
ATOM      2  N   UNL     1      23.865  12.847  18.309  0.00  0.00    -0.372 N 
ATOM      3  N   UNL     1      24.213  12.061  16.182  0.00  0.00    -0.372 N 
ATOM      4  C   UNL     1      23.486  12.049  17.304  0.00  0.00    +0.166 C 
ATOM      5  H   UNL     1      21.913  11.286  18.332  0.00  0.00    +0.163 HD
ATOM      6  H   UNL     1      24.675  13.448  18.230  0.00  0.00    +0.159 HD
ATOM      7  H   UNL     1      23.346  12.894  19.178  0.00  0.00    +0.159 HD
ATOM      8  H   UNL     1      23.983  11.477  15.389  0.00  0.00    +0.159 HD
ATOM      9  H   UNL     1      25.033  12.646  16.088  0.00  0.00    +0.159 HD
ENDROOT
BRANCH   1  10
ATOM     10  C   UNL     1      21.876  10.406  16.393  0.00  0.00    +0.151 C 
BRANCH  10  11
ATOM     11  C   UNL     1      20.456  10.803  16.097  0.00  0.00    -0.028 A 
ATOM     12  C   UNL     1      19.430  10.512  17.008  0.00  0.00    +0.005 A 
ATOM     13  C   UNL     1      20.130  11.476  14.909  0.00  0.00    +0.005 A 
ATOM     14  C   UNL     1      18.116  10.908  16.747  0.00  0.00    +0.000 A 
ATOM     15  C   UNL     1      18.817  11.869  14.652  0.00  0.00    +0.000 A 
ATOM     16  C   UNL     1      17.810  11.586  15.573  0.00  0.00    +0.000 A 
ENDBRANCH  10  11
ENDBRANCH   1  10
TORSDOF 2
ENDMDL
MODEL 4
REMARK VINA RESULT:    -3.886     13.317     13.896
REMARK INTER + INTRA:          -4.472
REMARK INTER:                  -4.354
REMARK INTRA:                  -0.118
REMARK UNBOUND:                -0.132
REMARK  Name = 1550473
REMARK  2 active torsions:
REMARK  status: ('A' for Active; 'I' for Inactive)
REMARK    1  A    between atoms: N_1  and  C_4
REMARK    2  A    between atoms: C_4  and  C_5
REMARK                            x       y       z     vdW  Elec       q    Type
REMARK                         _______ _______ _______ _____ _____    ______ ____
ROOT
ATOM      1  N   UNL     1      14.892  -1.257   9.688  0.00  0.00    -0.354 N 
ATOM      2  N   UNL     1      16.162   0.601   9.140  0.00  0.00    -0.372 N 
ATOM      3  N   UNL     1      16.389  -0.321  11.229  0.00  0.00    -0.372 N 
ATOM      4  C   UNL     1      15.807  -0.338  10.025  0.00  0.00    +0.166 C 
ATOM      5  H   UNL     1      14.466  -1.197   8.770  0.00  0.00    +0.163 HD
ATOM      6  H   UNL     1      16.852   1.306   9.366  0.00  0.00    +0.159 HD
ATOM      7  H   UNL     1      15.768   0.631   8.208  0.00  0.00    +0.159 HD
ATOM      8  H   UNL     1      16.161  -0.999  11.944  0.00  0.00    +0.159 HD
ATOM      9  H   UNL     1      17.073   0.382  11.477  0.00  0.00    +0.159 HD
ENDROOT
BRANCH   1  10
ATOM     10  C   UNL     1      14.475  -2.354  10.559  0.00  0.00    +0.151 C 
BRANCH  10  11
ATOM     11  C   UNL     1      12.997  -2.576  10.396  0.00  0.00    -0.028 A 
ATOM     12  C   UNL     1      12.184  -2.808  11.515  0.00  0.00    +0.005 A 
ATOM     13  C   UNL     1      12.401  -2.549   9.125  0.00  0.00    +0.005 A 
ATOM     14  C   UNL     1      10.806  -2.985  11.367  0.00  0.00    +0.000 A 
ATOM     15  C   UNL     1      11.025  -2.727   8.982  0.00  0.00    +0.000 A 
ATOM     16  C   UNL     1      10.228  -2.942  10.103  0.00  0.00    +0.000 A 
ENDBRANCH  10  11
ENDBRANCH   1  10
TORSDOF 2
ENDMDL
MODEL 5
REMARK VINA RESULT:    -3.876      2.906      4.952
REMARK INTER + INTRA:          -4.461
REMARK INTER:                  -4.332
REMARK INTRA:                  -0.129
REMARK UNBOUND:                -0.132
REMARK  Name = 1550473
REMARK  2 active torsions:
REMARK  status: ('A' for Active; 'I' for Inactive)
REMARK    1  A    between atoms: N_1  and  C_4
REMARK    2  A    between atoms: C_4  and  C_5
REMARK                            x       y       z     vdW  Elec       q    Type
REMARK                         _______ _______ _______ _____ _____    ______ ____
ROOT
ATOM      1  N   UNL     1       7.496   5.904  16.530  0.00  0.00    -0.354 N 
ATOM      2  N   UNL     1       7.713   3.609  16.754  0.00  0.00    -0.372 N 
ATOM      3  N   UNL     1       6.743   4.803  18.457  0.00  0.00    -0.372 N 
ATOM      4  C   UNL     1       7.315   4.788  17.248  0.00  0.00    +0.166 C 
ATOM      5  H   UNL     1       7.963   5.829  15.634  0.00  0.00    +0.163 HD
ATOM      6  H   UNL     1       7.586   2.749  17.272  0.00  0.00    +0.159 HD
ATOM      7  H   UNL     1       8.137   3.531  15.838  0.00  0.00    +0.159 HD
ATOM      8  H   UNL     1       6.426   5.661  18.889  0.00  0.00    +0.159 HD
ATOM      9  H   UNL     1       6.618   3.955  18.995  0.00  0.00    +0.159 HD
ENDROOT
BRANCH   1  10
ATOM     10  C   UNL     1       7.050   7.230  16.954  0.00  0.00    +0.151 C 
BRANCH  10  11
ATOM     11  C   UNL     1       6.745   8.058  15.736  0.00  0.00    -0.028 A 
ATOM     12  C   UNL     1       6.372   7.443  14.532  0.00  0.00    +0.005 A 
ATOM     13  C   UNL     1       6.822   9.459  15.781  0.00  0.00    +0.005 A 
ATOM     14  C   UNL     1       6.060   8.213  13.409  0.00  0.00    +0.000 A 
ATOM     15  C   UNL     1       6.510  10.224  14.658  0.00  0.00    +0.000 A 
ATOM     16  C   UNL     1       6.127   9.601  13.472  0.00  0.00    +0.000 A 
ENDBRANCH  10  11
ENDBRANCH   1  10
TORSDOF 2
ENDMDL
MODEL 6
REMARK VINA RESULT:    -3.791     36.544     38.433
REMARK INTER + INTRA:          -4.367
REMARK INTER:                  -4.241
REMARK INTRA:                  -0.125
REMARK UNBOUND:                -0.132
REMARK  Name = 1550473
REMARK  2 active torsions:
REMARK  status: ('A' for Active; 'I' for Inactive)
REMARK    1  A    between atoms: N_1  and  C_4
REMARK    2  A    between atoms: C_4  and  C_5
REMARK                            x       y       z     vdW  Elec       q    Type
REMARK                         _______ _______ _______ _____ _____    ______ ____
ROOT
ATOM      1  N   UNL     1      -6.156  -0.517 -19.609  0.00  0.00    -0.354 N 
ATOM      2  N   UNL     1      -7.272  -1.992 -21.002  0.00  0.00    -0.372 N 
ATOM      3  N   UNL     1      -5.954  -0.364 -21.938  0.00  0.00    -0.372 N 
ATOM      4  C   UNL     1      -6.452  -0.946 -20.842  0.00  0.00    +0.166 C 
ATOM      5  H   UNL     1      -6.590  -0.982 -18.820  0.00  0.00    +0.163 HD
ATOM      6  H   UNL     1      -7.511  -2.341 -21.920  0.00  0.00    +0.159 HD
ATOM      7  H   UNL     1      -7.668  -2.484 -20.210  0.00  0.00    +0.159 HD
ATOM      8  H   UNL     1      -5.335   0.434 -21.886  0.00  0.00    +0.159 HD
ATOM      9  H   UNL     1      -6.191  -0.691 -22.867  0.00  0.00    +0.159 HD
ENDROOT
BRANCH   1  10
ATOM     10  C   UNL     1      -5.231   0.580 -19.325  0.00  0.00    +0.151 C 
BRANCH  10  11
ATOM     11  C   UNL     1      -5.787   1.412 -18.202  0.00  0.00    -0.028 A 
ATOM     12  C   UNL     1      -5.092   1.526 -16.989  0.00  0.00    +0.005 A 
ATOM     13  C   UNL     1      -7.005   2.094 -18.347  0.00  0.00    +0.005 A 
ATOM     14  C   UNL     1      -5.593   2.323 -15.957  0.00  0.00    +0.000 A 
ATOM     15  C   UNL     1      -7.502   2.888 -17.314  0.00  0.00    +0.000 A 
ATOM     16  C   UNL     1      -6.794   3.005 -16.120  0.00  0.00    +0.000 A 
ENDBRANCH  10  11
ENDBRANCH   1  10
TORSDOF 2
ENDMDL
MODEL 7
REMARK VINA RESULT:    -3.745     12.976     13.732
REMARK INTER + INTRA:          -4.315
REMARK INTER:                  -4.167
REMARK INTRA:                  -0.147
REMARK UNBOUND:                -0.132
REMARK  Name = 1550473
REMARK  2 active torsions:
REMARK  status: ('A' for Active; 'I' for Inactive)
REMARK    1  A    between atoms: N_1  and  C_4
REMARK    2  A    between atoms: C_4  and  C_5
REMARK                            x       y       z     vdW  Elec       q    Type
REMARK                         _______ _______ _______ _____ _____    ______ ____
ROOT
ATOM      1  N   UNL     1      14.226  -2.476  10.792  0.00  0.00    -0.354 N 
ATOM      2  N   UNL     1      15.822  -1.214  11.898  0.00  0.00    -0.372 N 
ATOM      3  N   UNL     1      15.032  -0.476   9.874  0.00  0.00    -0.372 N 
ATOM      4  C   UNL     1      15.016  -1.396  10.845  0.00  0.00    +0.166 C 
ATOM      5  H   UNL     1      14.282  -3.151  11.545  0.00  0.00    +0.163 HD
ATOM      6  H   UNL     1      16.427  -0.407  11.967  0.00  0.00    +0.159 HD
ATOM      7  H   UNL     1      15.843  -1.868  12.672  0.00  0.00    +0.159 HD
ATOM      8  H   UNL     1      14.452  -0.557   9.050  0.00  0.00    +0.159 HD
ATOM      9  H   UNL     1      15.640   0.333   9.920  0.00  0.00    +0.159 HD
ENDROOT
BRANCH   1  10
ATOM     10  C   UNL     1      13.272  -2.739   9.716  0.00  0.00    +0.151 C 
BRANCH  10  11
ATOM     11  C   UNL     1      11.891  -2.855  10.300  0.00  0.00    -0.028 A 
ATOM     12  C   UNL     1      10.764  -2.877   9.465  0.00  0.00    +0.005 A 
ATOM     13  C   UNL     1      11.704  -2.949  11.688  0.00  0.00    +0.005 A 
ATOM     14  C   UNL     1       9.484  -3.015  10.006  0.00  0.00    +0.000 A 
ATOM     15  C   UNL     1      10.423  -3.086  12.223  0.00  0.00    +0.000 A 
ATOM     16  C   UNL     1       9.314  -3.122  11.382  0.00  0.00    +0.000 A 
ENDBRANCH  10  11
ENDBRANCH   1  10
TORSDOF 2
ENDMDL
MODEL 8
REMARK VINA RESULT:    -3.720     14.627     15.505
REMARK INTER + INTRA:          -4.287
REMARK INTER:                  -4.122
REMARK INTRA:                  -0.165
REMARK UNBOUND:                -0.132
REMARK  Name = 1550473
REMARK  2 active torsions:
REMARK  status: ('A' for Active; 'I' for Inactive)
REMARK    1  A    between atoms: N_1  and  C_4
REMARK    2  A    between atoms: C_4  and  C_5
REMARK                            x       y       z     vdW  Elec       q    Type
REMARK                         _______ _______ _______ _____ _____    ______ ____
ROOT
ATOM      1  N   UNL     1       7.917  10.650   1.085  0.00  0.00    -0.354 N 
ATOM      2  N   UNL     1       6.589  10.367  -0.791  0.00  0.00    -0.372 N 
ATOM      3  N   UNL     1       7.027   8.551   0.542  0.00  0.00    -0.372 N 
ATOM      4  C   UNL     1       7.187   9.855   0.292  0.00  0.00    +0.166 C 
ATOM      5  H   UNL     1       8.024  11.624   0.824  0.00  0.00    +0.163 HD
ATOM      6  H   UNL     1       6.029   9.792  -1.407  0.00  0.00    +0.159 HD
ATOM      7  H   UNL     1       6.660  11.350  -1.025  0.00  0.00    +0.159 HD
ATOM      8  H   UNL     1       7.457   8.103   1.340  0.00  0.00    +0.159 HD
ATOM      9  H   UNL     1       6.480   7.958  -0.069  0.00  0.00    +0.159 HD
ENDROOT
BRANCH   1  10
ATOM     10  C   UNL     1       8.564  10.204   2.317  0.00  0.00    +0.151 C 
BRANCH  10  11
ATOM     11  C   UNL     1       9.994   9.844   2.019  0.00  0.00    -0.028 A 
ATOM     12  C   UNL     1      10.389   8.500   1.943  0.00  0.00    +0.005 A 
ATOM     13  C   UNL     1      10.957  10.842   1.805  0.00  0.00    +0.005 A 
ATOM     14  C   UNL     1      11.710   8.165   1.637  0.00  0.00    +0.000 A 
ATOM     15  C   UNL     1      12.275  10.504   1.499  0.00  0.00    +0.000 A 
ATOM     16  C   UNL     1      12.650   9.165   1.413  0.00  0.00    +0.000 A 
ENDBRANCH  10  11
ENDBRANCH   1  10
TORSDOF 2
ENDMDL
MODEL 9
REMARK VINA RESULT:    -3.568     14.343     15.054
REMARK INTER + INTRA:          -4.117
REMARK INTER:                  -3.990
REMARK INTRA:                  -0.127
REMARK UNBOUND:                -0.132
REMARK  Name = 1550473
REMARK  2 active torsions:
REMARK  status: ('A' for Active; 'I' for Inactive)
REMARK    1  A    between atoms: N_1  and  C_4
REMARK    2  A    between atoms: C_4  and  C_5
REMARK                            x       y       z     vdW  Elec       q    Type
REMARK                         _______ _______ _______ _____ _____    ______ ____
ROOT
ATOM      1  N   UNL     1       8.516  12.111   2.790  0.00  0.00    -0.354 N 
ATOM      2  N   UNL     1       6.634  13.455   2.661  0.00  0.00    -0.372 N 
ATOM      3  N   UNL     1       8.706  14.432   2.529  0.00  0.00    -0.372 N 
ATOM      4  C   UNL     1       7.966  13.326   2.661  0.00  0.00    +0.166 C 
ATOM      5  H   UNL     1       7.901  11.316   2.917  0.00  0.00    +0.163 HD
ATOM      6  H   UNL     1       6.191  14.358   2.562  0.00  0.00    +0.159 HD
ATOM      7  H   UNL     1       6.021  12.653   2.742  0.00  0.00    +0.159 HD
ATOM      8  H   UNL     1       9.717  14.404   2.526  0.00  0.00    +0.159 HD
ATOM      9  H   UNL     1       8.281  15.347   2.440  0.00  0.00    +0.159 HD
ENDROOT
BRANCH   1  10
ATOM     10  C   UNL     1       9.955  11.856   2.748  0.00  0.00    +0.151 C 
BRANCH  10  11
ATOM     11  C   UNL     1      10.196  10.504   2.135  0.00  0.00    -0.028 A 
ATOM     12  C   UNL     1       9.170   9.549   2.090  0.00  0.00    +0.005 A 
ATOM     13  C   UNL     1      11.448  10.174   1.592  0.00  0.00    +0.005 A 
ATOM     14  C   UNL     1       9.385   8.304   1.493  0.00  0.00    +0.000 A 
ATOM     15  C   UNL     1      11.658   8.930   0.998  0.00  0.00    +0.000 A 
ATOM     16  C   UNL     1      10.626   7.996   0.947  0.00  0.00    +0.000 A 
ENDBRANCH  10  11
ENDBRANCH   1  10
TORSDOF 2
ENDMDL
