MODEL 1
REMARK VINA RESULT:    -6.488      0.000      0.000
REMARK INTER + INTRA:          -7.366
REMARK INTER:                  -7.247
REMARK INTRA:                  -0.119
REMARK UNBOUND:                -0.119
REMARK  Name = 1550473
REMARK  2 active torsions:
REMARK  status: ('A' for Active; 'I' for Inactive)
REMARK    1  A    between atoms: N_1  and  C_4
REMARK    2  A    between atoms: C_4  and  C_5
REMARK                            x       y       z     vdW  Elec       q    Type
REMARK                         _______ _______ _______ _____ _____    ______ ____
ROOT
ATOM      1  N   UNL     1     -12.548  -2.041  -4.498  0.00  0.00    -0.354 N 
ATOM      2  N   UNL     1     -13.908  -3.862  -4.942  0.00  0.00    -0.372 N 
ATOM      3  N   UNL     1     -12.776  -3.783  -2.948  0.00  0.00    -0.372 N 
ATOM      4  C   UNL     1     -13.068  -3.217  -4.124  0.00  0.00    +0.166 C 
ATOM      5  H   UNL     1     -12.785  -1.680  -5.415  0.00  0.00    +0.163 HD
ATOM      6  H   UNL     1     -14.319  -4.750  -4.685  0.00  0.00    +0.159 HD
ATOM      7  H   UNL     1     -14.179  -3.477  -5.839  0.00  0.00    +0.159 HD
ATOM      8  H   UNL     1     -12.144  -3.350  -2.288  0.00  0.00    +0.159 HD
ATOM      9  H   UNL     1     -13.168  -4.677  -2.678  0.00  0.00    +0.159 HD
ENDROOT
BRANCH   1  10
ATOM     10  C   UNL     1     -11.666  -1.232  -3.659  0.00  0.00    +0.151 C 
BRANCH  10  11
ATOM     11  C   UNL     1     -11.707   0.194  -4.133  0.00  0.00    -0.028 A 
ATOM     12  C   UNL     1     -12.923   0.785  -4.506  0.00  0.00    +0.005 A 
ATOM     13  C   UNL     1     -10.535   0.962  -4.206  0.00  0.00    +0.005 A 
ATOM     14  C   UNL     1     -12.967   2.119  -4.918  0.00  0.00    +0.000 A 
ATOM     15  C   UNL     1     -10.583   2.294  -4.619  0.00  0.00    +0.000 A 
ATOM     16  C   UNL     1     -11.799   2.872  -4.972  0.00  0.00    +0.000 A 
ENDBRANCH  10  11
ENDBRANCH   1  10
TORSDOF 2
ENDMDL
MODEL 2
REMARK VINA RESULT:    -5.984     10.514     12.363
REMARK INTER + INTRA:          -6.803
REMARK INTER:                  -6.675
REMARK INTRA:                  -0.128
REMARK UNBOUND:                -0.119
REMARK  Name = 1550473
REMARK  2 active torsions:
REMARK  status: ('A' for Active; 'I' for Inactive)
REMARK    1  A    between atoms: N_1  and  C_4
REMARK    2  A    between atoms: C_4  and  C_5
REMARK                            x       y       z     vdW  Elec       q    Type
REMARK                         _______ _______ _______ _____ _____    ______ ____
ROOT
ATOM      1  N   UNL     1      -4.874   6.907  -5.779  0.00  0.00    -0.354 N 
ATOM      2  N   UNL     1      -5.752   5.191  -4.496  0.00  0.00    -0.372 N 
ATOM      3  N   UNL     1      -4.326   4.670  -6.216  0.00  0.00    -0.372 N 
ATOM      4  C   UNL     1      -4.977   5.599  -5.508  0.00  0.00    +0.166 C 
ATOM      5  H   UNL     1      -5.416   7.558  -5.224  0.00  0.00    +0.163 HD
ATOM      6  H   UNL     1      -5.847   4.211  -4.264  0.00  0.00    +0.159 HD
ATOM      7  H   UNL     1      -6.257   5.847  -3.913  0.00  0.00    +0.159 HD
ATOM      8  H   UNL     1      -3.730   4.913  -6.997  0.00  0.00    +0.159 HD
ATOM      9  H   UNL     1      -4.418   3.684  -6.008  0.00  0.00    +0.159 HD
ENDROOT
BRANCH   1  10
ATOM     10  C   UNL     1      -4.015   7.459  -6.825  0.00  0.00    +0.151 C 
BRANCH  10  11
ATOM     11  C   UNL     1      -2.935   8.289  -6.187  0.00  0.00    -0.028 A 
ATOM     12  C   UNL     1      -2.117   7.745  -5.186  0.00  0.00    +0.005 A 
ATOM     13  C   UNL     1      -2.722   9.619  -6.583  0.00  0.00    +0.005 A 
ATOM     14  C   UNL     1      -1.095   8.506  -4.614  0.00  0.00    +0.000 A 
ATOM     15  C   UNL     1      -1.701  10.375  -6.008  0.00  0.00    +0.000 A 
ATOM     16  C   UNL     1      -0.886   9.818  -5.026  0.00  0.00    +0.000 A 
ENDBRANCH  10  11
ENDBRANCH   1  10
TORSDOF 2
ENDMDL
MODEL 3
REMARK VINA RESULT:    -5.831      3.864      5.371
REMARK INTER + INTRA:          -6.632
REMARK INTER:                  -6.496
REMARK INTRA:                  -0.137
REMARK UNBOUND:                -0.119
REMARK  Name = 1550473
REMARK  2 active torsions:
REMARK  status: ('A' for Active; 'I' for Inactive)
REMARK    1  A    between atoms: N_1  and  C_4
REMARK    2  A    between atoms: C_4  and  C_5
REMARK                            x       y       z     vdW  Elec       q    Type
REMARK                         _______ _______ _______ _____ _____    ______ ____
ROOT
ATOM      1  N   UNL     1     -14.601   2.764  -6.898  0.00  0.00    -0.354 N 
ATOM      2  N   UNL     1     -14.293   4.013  -8.824  0.00  0.00    -0.372 N 
ATOM      3  N   UNL     1     -13.857   4.984  -6.791  0.00  0.00    -0.372 N 
ATOM      4  C   UNL     1     -14.252   3.914  -7.490  0.00  0.00    +0.166 C 
ATOM      5  H   UNL     1     -14.920   2.000  -7.482  0.00  0.00    +0.163 HD
ATOM      6  H   UNL     1     -14.032   4.867  -9.299  0.00  0.00    +0.159 HD
ATOM      7  H   UNL     1     -14.569   3.233  -9.408  0.00  0.00    +0.159 HD
ATOM      8  H   UNL     1     -13.809   4.976  -5.781  0.00  0.00    +0.159 HD
ATOM      9  H   UNL     1     -13.603   5.851  -7.248  0.00  0.00    +0.159 HD
ENDROOT
BRANCH   1  10
ATOM     10  C   UNL     1     -14.539   2.535  -5.455  0.00  0.00    +0.151 C 
BRANCH  10  11
ATOM     11  C   UNL     1     -13.229   1.879  -5.118  0.00  0.00    -0.028 A 
ATOM     12  C   UNL     1     -13.099   0.483  -5.161  0.00  0.00    +0.005 A 
ATOM     13  C   UNL     1     -12.111   2.648  -4.759  0.00  0.00    +0.005 A 
ATOM     14  C   UNL     1     -11.874  -0.125  -4.877  0.00  0.00    +0.000 A 
ATOM     15  C   UNL     1     -10.890   2.037  -4.475  0.00  0.00    +0.000 A 
ATOM     16  C   UNL     1     -10.771   0.651  -4.536  0.00  0.00    +0.000 A 
ENDBRANCH  10  11
ENDBRANCH   1  10
TORSDOF 2
ENDMDL
MODEL 4
REMARK VINA RESULT:    -5.814     10.734     12.592
REMARK INTER + INTRA:          -6.613
REMARK INTER:                  -6.488
REMARK INTRA:                  -0.126
REMARK UNBOUND:                -0.119
REMARK  Name = 1550473
REMARK  2 active torsions:
REMARK  status: ('A' for Active; 'I' for Inactive)
REMARK    1  A    between atoms: N_1  and  C_4
REMARK    2  A    between atoms: C_4  and  C_5
REMARK                            x       y       z     vdW  Elec       q    Type
REMARK                         _______ _______ _______ _____ _____    ______ ____
ROOT
ATOM      1  N   UNL     1      -4.511   9.758  -5.051  0.00  0.00    -0.354 N 
ATOM      2  N   UNL     1      -5.315  11.759  -5.897  0.00  0.00    -0.372 N 
ATOM      3  N   UNL     1      -3.180  11.107  -6.430  0.00  0.00    -0.372 N 
ATOM      4  C   UNL     1      -4.327  10.862  -5.788  0.00  0.00    +0.166 C 
ATOM      5  H   UNL     1      -5.394   9.646  -4.565  0.00  0.00    +0.163 HD
ATOM      6  H   UNL     1      -5.206  12.599  -6.449  0.00  0.00    +0.159 HD
ATOM      7  H   UNL     1      -6.212  11.621  -5.448  0.00  0.00    +0.159 HD
ATOM      8  H   UNL     1      -2.394  10.472  -6.383  0.00  0.00    +0.159 HD
ATOM      9  H   UNL     1      -3.048  11.948  -6.977  0.00  0.00    +0.159 HD
ENDROOT
BRANCH   1  10
ATOM     10  C   UNL     1      -3.519   8.694  -4.911  0.00  0.00    +0.151 C 
BRANCH  10  11
ATOM     11  C   UNL     1      -4.159   7.378  -5.258  0.00  0.00    -0.028 A 
ATOM     12  C   UNL     1      -5.336   6.966  -4.616  0.00  0.00    +0.005 A 
ATOM     13  C   UNL     1      -3.596   6.540  -6.234  0.00  0.00    +0.005 A 
ATOM     14  C   UNL     1      -5.947   5.758  -4.960  0.00  0.00    +0.000 A 
ATOM     15  C   UNL     1      -4.208   5.334  -6.574  0.00  0.00    +0.000 A 
ATOM     16  C   UNL     1      -5.385   4.944  -5.938  0.00  0.00    +0.000 A 
ENDBRANCH  10  11
ENDBRANCH   1  10
TORSDOF 2
ENDMDL
MODEL 5
REMARK VINA RESULT:    -5.510     10.779     12.756
REMARK INTER + INTRA:          -6.274
REMARK INTER:                  -6.133
REMARK INTRA:                  -0.141
REMARK UNBOUND:                -0.119
REMARK  Name = 1550473
REMARK  2 active torsions:
REMARK  status: ('A' for Active; 'I' for Inactive)
REMARK    1  A    between atoms: N_1  and  C_4
REMARK    2  A    between atoms: C_4  and  C_5
REMARK                            x       y       z     vdW  Elec       q    Type
REMARK                         _______ _______ _______ _____ _____    ______ ____
ROOT
ATOM      1  N   UNL     1      -2.927   9.033  -5.237  0.00  0.00    -0.354 N 
ATOM      2  N   UNL     1      -0.710   9.656  -5.492  0.00  0.00    -0.372 N 
ATOM      3  N   UNL     1      -2.153   9.944  -7.253  0.00  0.00    -0.372 N 
ATOM      4  C   UNL     1      -1.945   9.541  -5.995  0.00  0.00    +0.166 C 
ATOM      5  H   UNL     1      -2.698   8.718  -4.301  0.00  0.00    +0.163 HD
ATOM      6  H   UNL     1       0.049  10.038  -6.040  0.00  0.00    +0.159 HD
ATOM      7  H   UNL     1      -0.494   9.382  -4.542  0.00  0.00    +0.159 HD
ATOM      8  H   UNL     1      -3.061   9.879  -7.693  0.00  0.00    +0.159 HD
ATOM      9  H   UNL     1      -1.403  10.319  -7.820  0.00  0.00    +0.159 HD
ENDROOT
BRANCH   1  10
ATOM     10  C   UNL     1      -4.318   8.916  -5.671  0.00  0.00    +0.151 C 
BRANCH  10  11
ATOM     11  C   UNL     1      -4.693   7.461  -5.728  0.00  0.00    -0.028 A 
ATOM     12  C   UNL     1      -3.952   6.565  -6.513  0.00  0.00    +0.005 A 
ATOM     13  C   UNL     1      -5.784   6.970  -4.994  0.00  0.00    +0.005 A 
ATOM     14  C   UNL     1      -4.282   5.207  -6.542  0.00  0.00    +0.000 A 
ATOM     15  C   UNL     1      -6.111   5.615  -5.027  0.00  0.00    +0.000 A 
ATOM     16  C   UNL     1      -5.358   4.733  -5.799  0.00  0.00    +0.000 A 
ENDBRANCH  10  11
ENDBRANCH   1  10
TORSDOF 2
ENDMDL
MODEL 6
REMARK VINA RESULT:    -5.425     10.791     12.555
REMARK INTER + INTRA:          -6.178
REMARK INTER:                  -6.068
REMARK INTRA:                  -0.110
REMARK UNBOUND:                -0.119
REMARK  Name = 1550473
REMARK  2 active torsions:
REMARK  status: ('A' for Active; 'I' for Inactive)
REMARK    1  A    between atoms: N_1  and  C_4
REMARK    2  A    between atoms: C_4  and  C_5
REMARK                            x       y       z     vdW  Elec       q    Type
REMARK                         _______ _______ _______ _____ _____    ______ ____
ROOT
ATOM      1  N   UNL     1      -4.567   7.244  -5.870  0.00  0.00    -0.354 N 
ATOM      2  N   UNL     1      -5.437   5.507  -4.609  0.00  0.00    -0.372 N 
ATOM      3  N   UNL     1      -4.043   5.014  -6.364  0.00  0.00    -0.372 N 
ATOM      4  C   UNL     1      -4.675   5.931  -5.625  0.00  0.00    +0.166 C 
ATOM      5  H   UNL     1      -5.095   7.887  -5.292  0.00  0.00    +0.163 HD
ATOM      6  H   UNL     1      -5.535   4.523  -4.398  0.00  0.00    +0.159 HD
ATOM      7  H   UNL     1      -5.927   6.154  -4.004  0.00  0.00    +0.159 HD
ATOM      8  H   UNL     1      -3.458   5.268  -7.149  0.00  0.00    +0.159 HD
ATOM      9  H   UNL     1      -4.139   4.023  -6.176  0.00  0.00    +0.159 HD
ENDROOT
BRANCH   1  10
ATOM     10  C   UNL     1      -3.720   7.812  -6.918  0.00  0.00    +0.151 C 
BRANCH  10  11
ATOM     11  C   UNL     1      -3.525   9.279  -6.649  0.00  0.00    -0.028 A 
ATOM     12  C   UNL     1      -4.594  10.071  -6.206  0.00  0.00    +0.005 A 
ATOM     13  C   UNL     1      -2.271   9.882  -6.831  0.00  0.00    +0.005 A 
ATOM     14  C   UNL     1      -4.406  11.426  -5.927  0.00  0.00    +0.000 A 
ATOM     15  C   UNL     1      -2.087  11.236  -6.552  0.00  0.00    +0.000 A 
ATOM     16  C   UNL     1      -3.154  12.008  -6.098  0.00  0.00    +0.000 A 
ENDBRANCH  10  11
ENDBRANCH   1  10
TORSDOF 2
ENDMDL
MODEL 7
REMARK VINA RESULT:    -5.281     11.375     13.143
REMARK INTER + INTRA:          -6.017
REMARK INTER:                  -5.904
REMARK INTRA:                  -0.113
REMARK UNBOUND:                -0.119
REMARK  Name = 1550473
REMARK  2 active torsions:
REMARK  status: ('A' for Active; 'I' for Inactive)
REMARK    1  A    between atoms: N_1  and  C_4
REMARK    2  A    between atoms: C_4  and  C_5
REMARK                            x       y       z     vdW  Elec       q    Type
REMARK                         _______ _______ _______ _____ _____    ______ ____
ROOT
ATOM      1  N   UNL     1      -2.442   8.393  -5.665  0.00  0.00    -0.354 N 
ATOM      2  N   UNL     1      -1.028   8.512  -3.835  0.00  0.00    -0.372 N 
ATOM      3  N   UNL     1      -0.793  10.052  -5.520  0.00  0.00    -0.372 N 
ATOM      4  C   UNL     1      -1.429   8.987  -5.020  0.00  0.00    +0.166 C 
ATOM      5  H   UNL     1      -2.863   7.571  -5.248  0.00  0.00    +0.163 HD
ATOM      6  H   UNL     1      -0.269   8.941  -3.323  0.00  0.00    +0.159 HD
ATOM      7  H   UNL     1      -1.480   7.718  -3.398  0.00  0.00    +0.159 HD
ATOM      8  H   UNL     1      -1.044  10.455  -6.413  0.00  0.00    +0.159 HD
ATOM      9  H   UNL     1      -0.024  10.488  -5.028  0.00  0.00    +0.159 HD
ENDROOT
BRANCH   1  10
ATOM     10  C   UNL     1      -2.991   8.864  -6.936  0.00  0.00    +0.151 C 
BRANCH  10  11
ATOM     11  C   UNL     1      -4.478   8.643  -6.940  0.00  0.00    -0.028 A 
ATOM     12  C   UNL     1      -5.017   7.412  -6.541  0.00  0.00    +0.005 A 
ATOM     13  C   UNL     1      -5.355   9.665  -7.337  0.00  0.00    +0.005 A 
ATOM     14  C   UNL     1      -6.400   7.217  -6.516  0.00  0.00    +0.000 A 
ATOM     15  C   UNL     1      -6.735   9.466  -7.312  0.00  0.00    +0.000 A 
ATOM     16  C   UNL     1      -7.257   8.243  -6.899  0.00  0.00    +0.000 A 
ENDBRANCH  10  11
ENDBRANCH   1  10
TORSDOF 2
ENDMDL
MODEL 8
REMARK VINA RESULT:    -5.228     11.395     13.189
REMARK INTER + INTRA:          -5.959
REMARK INTER:                  -5.888
REMARK INTRA:                  -0.071
REMARK UNBOUND:                -0.119
REMARK  Name = 1550473
REMARK  2 active torsions:
REMARK  status: ('A' for Active; 'I' for Inactive)
REMARK    1  A    between atoms: N_1  and  C_4
REMARK    2  A    between atoms: C_4  and  C_5
REMARK                            x       y       z     vdW  Elec       q    Type
REMARK                         _______ _______ _______ _____ _____    ______ ____
ROOT
ATOM      1  N   UNL     1      -3.456   7.155  -5.198  0.00  0.00    -0.354 N 
ATOM      2  N   UNL     1      -5.548   6.723  -4.303  0.00  0.00    -0.372 N 
ATOM      3  N   UNL     1      -4.359   8.524  -3.524  0.00  0.00    -0.372 N 
ATOM      4  C   UNL     1      -4.440   7.472  -4.346  0.00  0.00    +0.166 C 
ATOM      5  H   UNL     1      -3.565   6.327  -5.773  0.00  0.00    +0.163 HD
ATOM      6  H   UNL     1      -6.309   6.940  -3.673  0.00  0.00    +0.159 HD
ATOM      7  H   UNL     1      -5.674   5.924  -4.912  0.00  0.00    +0.159 HD
ATOM      8  H   UNL     1      -3.547   9.126  -3.503  0.00  0.00    +0.159 HD
ATOM      9  H   UNL     1      -5.105   8.751  -2.878  0.00  0.00    +0.159 HD
ENDROOT
BRANCH   1  10
ATOM     10  C   UNL     1      -2.231   7.936  -5.360  0.00  0.00    +0.151 C 
BRANCH  10  11
ATOM     11  C   UNL     1      -2.506   9.094  -6.279  0.00  0.00    -0.028 A 
ATOM     12  C   UNL     1      -3.290   8.920  -7.429  0.00  0.00    +0.005 A 
ATOM     13  C   UNL     1      -1.989  10.370  -6.003  0.00  0.00    +0.005 A 
ATOM     14  C   UNL     1      -3.571  10.002  -8.267  0.00  0.00    +0.000 A 
ATOM     15  C   UNL     1      -2.271  11.447  -6.843  0.00  0.00    +0.000 A 
ATOM     16  C   UNL     1      -3.063  11.264  -7.973  0.00  0.00    +0.000 A 
ENDBRANCH  10  11
ENDBRANCH   1  10
TORSDOF 2
ENDMDL
MODEL 9
REMARK VINA RESULT:    -5.191      9.452     11.279
REMARK INTER + INTRA:          -5.917
REMARK INTER:                  -5.771
REMARK INTRA:                  -0.146
REMARK UNBOUND:                -0.119
REMARK  Name = 1550473
REMARK  2 active torsions:
REMARK  status: ('A' for Active; 'I' for Inactive)
REMARK    1  A    between atoms: N_1  and  C_4
REMARK    2  A    between atoms: C_4  and  C_5
REMARK                            x       y       z     vdW  Elec       q    Type
REMARK                         _______ _______ _______ _____ _____    ______ ____
ROOT
ATOM      1  N   UNL     1      -4.995   6.501  -4.885  0.00  0.00    -0.354 N 
ATOM      2  N   UNL     1      -6.288   4.582  -4.785  0.00  0.00    -0.372 N 
ATOM      3  N   UNL     1      -4.445   4.608  -6.152  0.00  0.00    -0.372 N 
ATOM      4  C   UNL     1      -5.232   5.242  -5.277  0.00  0.00    +0.166 C 
ATOM      5  H   UNL     1      -5.647   6.936  -4.242  0.00  0.00    +0.163 HD
ATOM      6  H   UNL     1      -6.491   3.630  -5.060  0.00  0.00    +0.159 HD
ATOM      7  H   UNL     1      -6.912   5.003  -4.108  0.00  0.00    +0.159 HD
ATOM      8  H   UNL     1      -3.635   5.052  -6.564  0.00  0.00    +0.159 HD
ATOM      9  H   UNL     1      -4.638   3.659  -6.448  0.00  0.00    +0.159 HD
ENDROOT
BRANCH   1  10
ATOM     10  C   UNL     1      -3.843   7.289  -5.318  0.00  0.00    +0.151 C 
BRANCH  10  11
ATOM     11  C   UNL     1      -4.283   8.262  -6.377  0.00  0.00    -0.028 A 
ATOM     12  C   UNL     1      -3.363   8.766  -7.307  0.00  0.00    +0.005 A 
ATOM     13  C   UNL     1      -5.621   8.678  -6.459  0.00  0.00    +0.005 A 
ATOM     14  C   UNL     1      -3.777   9.647  -8.310  0.00  0.00    +0.000 A 
ATOM     15  C   UNL     1      -6.030   9.558  -7.461  0.00  0.00    +0.000 A 
ATOM     16  C   UNL     1      -5.109  10.040  -8.387  0.00  0.00    +0.000 A 
ENDBRANCH  10  11
ENDBRANCH   1  10
TORSDOF 2
ENDMDL
