MODEL 1
REMARK VINA RESULT:    -6.035      0.000      0.000
REMARK INTER + INTRA:          -6.876
REMARK INTER:                  -6.741
REMARK INTRA:                  -0.136
REMARK UNBOUND:                -0.136
REMARK  Name = 1550473
REMARK  2 active torsions:
REMARK  status: ('A' for Active; 'I' for Inactive)
REMARK    1  A    between atoms: N_1  and  C_4
REMARK    2  A    between atoms: C_4  and  C_5
REMARK                            x       y       z     vdW  Elec       q    Type
REMARK                         _______ _______ _______ _____ _____    ______ ____
ROOT
ATOM      1  N   UNL     1      -3.731   3.181  -0.528  0.00  0.00    -0.354 N 
ATOM      2  N   UNL     1      -2.319   1.365  -0.258  0.00  0.00    -0.372 N 
ATOM      3  N   UNL     1      -4.303   1.408   0.895  0.00  0.00    -0.372 N 
ATOM      4  C   UNL     1      -3.462   1.996   0.037  0.00  0.00    +0.166 C 
ATOM      5  H   UNL     1      -3.039   3.587  -1.147  0.00  0.00    +0.163 HD
ATOM      6  H   UNL     1      -2.091   0.468   0.150  0.00  0.00    +0.159 HD
ATOM      7  H   UNL     1      -1.650   1.752  -0.913  0.00  0.00    +0.159 HD
ATOM      8  H   UNL     1      -5.179   1.836   1.163  0.00  0.00    +0.159 HD
ATOM      9  H   UNL     1      -4.086   0.517   1.322  0.00  0.00    +0.159 HD
ENDROOT
BRANCH   1  10
ATOM     10  C   UNL     1      -4.972   3.925  -0.316  0.00  0.00    +0.151 C 
BRANCH  10  11
ATOM     11  C   UNL     1      -5.507   4.377  -1.646  0.00  0.00    -0.028 A 
ATOM     12  C   UNL     1      -5.708   5.740  -1.907  0.00  0.00    +0.005 A 
ATOM     13  C   UNL     1      -5.810   3.447  -2.653  0.00  0.00    +0.005 A 
ATOM     14  C   UNL     1      -6.177   6.162  -3.153  0.00  0.00    +0.000 A 
ATOM     15  C   UNL     1      -6.279   3.872  -3.895  0.00  0.00    +0.000 A 
ATOM     16  C   UNL     1      -6.460   5.230  -4.146  0.00  0.00    +0.000 A 
ENDBRANCH  10  11
ENDBRANCH   1  10
TORSDOF 2
ENDMDL
MODEL 2
REMARK VINA RESULT:    -5.906      2.387      2.980
REMARK INTER + INTRA:          -6.733
REMARK INTER:                  -6.588
REMARK INTRA:                  -0.144
REMARK UNBOUND:                -0.136
REMARK  Name = 1550473
REMARK  2 active torsions:
REMARK  status: ('A' for Active; 'I' for Inactive)
REMARK    1  A    between atoms: N_1  and  C_4
REMARK    2  A    between atoms: C_4  and  C_5
REMARK                            x       y       z     vdW  Elec       q    Type
REMARK                         _______ _______ _______ _____ _____    ______ ____
ROOT
ATOM      1  N   UNL     1      -3.706   0.669  -0.607  0.00  0.00    -0.354 N 
ATOM      2  N   UNL     1      -4.090   0.273   1.642  0.00  0.00    -0.372 N 
ATOM      3  N   UNL     1      -5.739  -0.233   0.130  0.00  0.00    -0.372 N 
ATOM      4  C   UNL     1      -4.512   0.238   0.373  0.00  0.00    +0.166 C 
ATOM      5  H   UNL     1      -2.799   1.043  -0.355  0.00  0.00    +0.163 HD
ATOM      6  H   UNL     1      -4.674  -0.048   2.403  0.00  0.00    +0.159 HD
ATOM      7  H   UNL     1      -3.165   0.605   1.887  0.00  0.00    +0.159 HD
ATOM      8  H   UNL     1      -6.120  -0.281  -0.806  0.00  0.00    +0.159 HD
ATOM      9  H   UNL     1      -6.344  -0.549   0.879  0.00  0.00    +0.159 HD
ENDROOT
BRANCH   1  10
ATOM     10  C   UNL     1      -4.049   0.623  -2.027  0.00  0.00    +0.151 C 
BRANCH  10  11
ATOM     11  C   UNL     1      -3.821   1.981  -2.632  0.00  0.00    -0.028 A 
ATOM     12  C   UNL     1      -4.328   3.132  -2.011  0.00  0.00    +0.005 A 
ATOM     13  C   UNL     1      -3.092   2.124  -3.823  0.00  0.00    +0.005 A 
ATOM     14  C   UNL     1      -4.090   4.396  -2.556  0.00  0.00    +0.000 A 
ATOM     15  C   UNL     1      -2.858   3.388  -4.364  0.00  0.00    +0.000 A 
ATOM     16  C   UNL     1      -3.355   4.524  -3.729  0.00  0.00    +0.000 A 
ENDBRANCH  10  11
ENDBRANCH   1  10
TORSDOF 2
ENDMDL
MODEL 3
REMARK VINA RESULT:    -5.839      2.341      2.903
REMARK INTER + INTRA:          -6.657
REMARK INTER:                  -6.495
REMARK INTRA:                  -0.162
REMARK UNBOUND:                -0.136
REMARK  Name = 1550473
REMARK  2 active torsions:
REMARK  status: ('A' for Active; 'I' for Inactive)
REMARK    1  A    between atoms: N_1  and  C_4
REMARK    2  A    between atoms: C_4  and  C_5
REMARK                            x       y       z     vdW  Elec       q    Type
REMARK                         _______ _______ _______ _____ _____    ______ ____
ROOT
ATOM      1  N   UNL     1      -2.813   2.939  -3.409  0.00  0.00    -0.354 N 
ATOM      2  N   UNL     1      -2.750   0.984  -2.169  0.00  0.00    -0.372 N 
ATOM      3  N   UNL     1      -4.069   1.065  -4.045  0.00  0.00    -0.372 N 
ATOM      4  C   UNL     1      -3.213   1.675  -3.217  0.00  0.00    +0.166 C 
ATOM      5  H   UNL     1      -2.186   3.354  -2.729  0.00  0.00    +0.163 HD
ATOM      6  H   UNL     1      -3.031   0.027  -2.000  0.00  0.00    +0.159 HD
ATOM      7  H   UNL     1      -2.088   1.386  -1.516  0.00  0.00    +0.159 HD
ATOM      8  H   UNL     1      -4.459   1.534  -4.851  0.00  0.00    +0.159 HD
ATOM      9  H   UNL     1      -4.371   0.112  -3.887  0.00  0.00    +0.159 HD
ENDROOT
BRANCH   1  10
ATOM     10  C   UNL     1      -3.216   3.760  -4.549  0.00  0.00    +0.151 C 
BRANCH  10  11
ATOM     11  C   UNL     1      -4.410   4.588  -4.161  0.00  0.00    -0.028 A 
ATOM     12  C   UNL     1      -4.436   5.269  -2.935  0.00  0.00    +0.005 A 
ATOM     13  C   UNL     1      -5.517   4.698  -5.016  0.00  0.00    +0.005 A 
ATOM     14  C   UNL     1      -5.533   6.062  -2.587  0.00  0.00    +0.000 A 
ATOM     15  C   UNL     1      -6.610   5.490  -4.665  0.00  0.00    +0.000 A 
ATOM     16  C   UNL     1      -6.617   6.174  -3.452  0.00  0.00    +0.000 A 
ENDBRANCH  10  11
ENDBRANCH   1  10
TORSDOF 2
ENDMDL
MODEL 4
REMARK VINA RESULT:    -5.735      0.988      2.036
REMARK INTER + INTRA:          -6.541
REMARK INTER:                  -6.404
REMARK INTRA:                  -0.137
REMARK UNBOUND:                -0.136
REMARK  Name = 1550473
REMARK  2 active torsions:
REMARK  status: ('A' for Active; 'I' for Inactive)
REMARK    1  A    between atoms: N_1  and  C_4
REMARK    2  A    between atoms: C_4  and  C_5
REMARK                            x       y       z     vdW  Elec       q    Type
REMARK                         _______ _______ _______ _____ _____    ______ ____
ROOT
ATOM      1  N   UNL     1      -4.783   2.123  -1.130  0.00  0.00    -0.354 N 
ATOM      2  N   UNL     1      -4.652   1.461   1.085  0.00  0.00    -0.372 N 
ATOM      3  N   UNL     1      -2.713   1.924  -0.050  0.00  0.00    -0.372 N 
ATOM      4  C   UNL     1      -4.047   1.840  -0.047  0.00  0.00    +0.166 C 
ATOM      5  H   UNL     1      -5.788   2.012  -1.072  0.00  0.00    +0.163 HD
ATOM      6  H   UNL     1      -4.124   1.244   1.920  0.00  0.00    +0.159 HD
ATOM      7  H   UNL     1      -5.660   1.394   1.154  0.00  0.00    +0.159 HD
ATOM      8  H   UNL     1      -2.195   2.198  -0.874  0.00  0.00    +0.159 HD
ATOM      9  H   UNL     1      -2.165   1.699   0.772  0.00  0.00    +0.159 HD
ENDROOT
BRANCH   1  10
ATOM     10  C   UNL     1      -4.225   2.597  -2.396  0.00  0.00    +0.151 C 
BRANCH  10  11
ATOM     11  C   UNL     1      -5.005   3.798  -2.856  0.00  0.00    -0.028 A 
ATOM     12  C   UNL     1      -5.661   3.788  -4.096  0.00  0.00    +0.005 A 
ATOM     13  C   UNL     1      -5.096   4.947  -2.055  0.00  0.00    +0.005 A 
ATOM     14  C   UNL     1      -6.409   4.892  -4.511  0.00  0.00    +0.000 A 
ATOM     15  C   UNL     1      -5.843   6.047  -2.474  0.00  0.00    +0.000 A 
ATOM     16  C   UNL     1      -6.502   6.018  -3.701  0.00  0.00    +0.000 A 
ENDBRANCH  10  11
ENDBRANCH   1  10
TORSDOF 2
ENDMDL
MODEL 5
REMARK VINA RESULT:    -5.501      6.228      7.570
REMARK INTER + INTRA:          -6.280
REMARK INTER:                  -6.136
REMARK INTRA:                  -0.144
REMARK UNBOUND:                -0.136
REMARK  Name = 1550473
REMARK  2 active torsions:
REMARK  status: ('A' for Active; 'I' for Inactive)
REMARK    1  A    between atoms: N_1  and  C_4
REMARK    2  A    between atoms: C_4  and  C_5
REMARK                            x       y       z     vdW  Elec       q    Type
REMARK                         _______ _______ _______ _____ _____    ______ ____
ROOT
ATOM      1  N   UNL     1      -2.877   1.002  -4.944  0.00  0.00    -0.354 N 
ATOM      2  N   UNL     1      -2.395   3.265  -5.036  0.00  0.00    -0.372 N 
ATOM      3  N   UNL     1      -2.383   2.210  -2.998  0.00  0.00    -0.372 N 
ATOM      4  C   UNL     1      -2.555   2.144  -4.323  0.00  0.00    +0.166 C 
ATOM      5  H   UNL     1      -3.024   1.024  -5.947  0.00  0.00    +0.163 HD
ATOM      6  H   UNL     1      -2.149   4.141  -4.595  0.00  0.00    +0.159 HD
ATOM      7  H   UNL     1      -2.497   3.275  -6.043  0.00  0.00    +0.159 HD
ATOM      8  H   UNL     1      -2.494   1.400  -2.403  0.00  0.00    +0.159 HD
ATOM      9  H   UNL     1      -2.147   3.079  -2.537  0.00  0.00    +0.159 HD
ENDROOT
BRANCH   1  10
ATOM     10  C   UNL     1      -3.022  -0.286  -4.267  0.00  0.00    +0.151 C 
BRANCH  10  11
ATOM     11  C   UNL     1      -2.115  -1.290  -4.923  0.00  0.00    -0.028 A 
ATOM     12  C   UNL     1      -2.641  -2.280  -5.766  0.00  0.00    +0.005 A 
ATOM     13  C   UNL     1      -0.728  -1.254  -4.711  0.00  0.00    +0.005 A 
ATOM     14  C   UNL     1      -1.796  -3.195  -6.399  0.00  0.00    +0.000 A 
ATOM     15  C   UNL     1       0.112  -2.170  -5.344  0.00  0.00    +0.000 A 
ATOM     16  C   UNL     1      -0.423  -3.138  -6.191  0.00  0.00    +0.000 A 
ENDBRANCH  10  11
ENDBRANCH   1  10
TORSDOF 2
ENDMDL
MODEL 6
REMARK VINA RESULT:    -5.387      4.187      5.383
REMARK INTER + INTRA:          -6.153
REMARK INTER:                  -6.030
REMARK INTRA:                  -0.123
REMARK UNBOUND:                -0.136
REMARK  Name = 1550473
REMARK  2 active torsions:
REMARK  status: ('A' for Active; 'I' for Inactive)
REMARK    1  A    between atoms: N_1  and  C_4
REMARK    2  A    between atoms: C_4  and  C_5
REMARK                            x       y       z     vdW  Elec       q    Type
REMARK                         _______ _______ _______ _____ _____    ______ ____
ROOT
ATOM      1  N   UNL     1      -2.500   0.929  -3.885  0.00  0.00    -0.354 N 
ATOM      2  N   UNL     1      -0.681   2.048  -4.780  0.00  0.00    -0.372 N 
ATOM      3  N   UNL     1      -2.786   2.894  -5.128  0.00  0.00    -0.372 N 
ATOM      4  C   UNL     1      -2.003   1.951  -4.593  0.00  0.00    +0.166 C 
ATOM      5  H   UNL     1      -1.856   0.230  -3.531  0.00  0.00    +0.163 HD
ATOM      6  H   UNL     1      -0.277   2.811  -5.307  0.00  0.00    +0.159 HD
ATOM      7  H   UNL     1      -0.036   1.374  -4.387  0.00  0.00    +0.159 HD
ATOM      8  H   UNL     1      -3.792   2.876  -5.028  0.00  0.00    +0.159 HD
ATOM      9  H   UNL     1      -2.401   3.659  -5.668  0.00  0.00    +0.159 HD
ENDROOT
BRANCH   1  10
ATOM     10  C   UNL     1      -3.919   0.760  -3.577  0.00  0.00    +0.151 C 
BRANCH  10  11
ATOM     11  C   UNL     1      -4.098   0.724  -2.084  0.00  0.00    -0.028 A 
ATOM     12  C   UNL     1      -5.116  -0.049  -1.508  0.00  0.00    +0.005 A 
ATOM     13  C   UNL     1      -3.247   1.456  -1.241  0.00  0.00    +0.005 A 
ATOM     14  C   UNL     1      -5.263  -0.106  -0.120  0.00  0.00    +0.000 A 
ATOM     15  C   UNL     1      -3.398   1.396   0.144  0.00  0.00    +0.000 A 
ATOM     16  C   UNL     1      -4.405   0.613   0.705  0.00  0.00    +0.000 A 
ENDBRANCH  10  11
ENDBRANCH   1  10
TORSDOF 2
ENDMDL
MODEL 7
REMARK VINA RESULT:    -5.285      6.101      7.044
REMARK INTER + INTRA:          -6.039
REMARK INTER:                  -5.931
REMARK INTRA:                  -0.108
REMARK UNBOUND:                -0.136
REMARK  Name = 1550473
REMARK  2 active torsions:
REMARK  status: ('A' for Active; 'I' for Inactive)
REMARK    1  A    between atoms: N_1  and  C_4
REMARK    2  A    between atoms: C_4  and  C_5
REMARK                            x       y       z     vdW  Elec       q    Type
REMARK                         _______ _______ _______ _____ _____    ______ ____
ROOT
ATOM      1  N   UNL     1       0.390  -0.795  -5.208  0.00  0.00    -0.354 N 
ATOM      2  N   UNL     1       1.817  -2.505  -4.575  0.00  0.00    -0.372 N 
ATOM      3  N   UNL     1       1.575  -2.033  -6.807  0.00  0.00    -0.372 N 
ATOM      4  C   UNL     1       1.251  -1.767  -5.537  0.00  0.00    +0.166 C 
ATOM      5  H   UNL     1       0.163  -0.663  -4.229  0.00  0.00    +0.163 HD
ATOM      6  H   UNL     1       2.474  -3.243  -4.792  0.00  0.00    +0.159 HD
ATOM      7  H   UNL     1       1.625  -2.341  -3.594  0.00  0.00    +0.159 HD
ATOM      8  H   UNL     1       1.178  -1.516  -7.580  0.00  0.00    +0.159 HD
ATOM      9  H   UNL     1       2.221  -2.775  -7.045  0.00  0.00    +0.159 HD
ENDROOT
BRANCH   1  10
ATOM     10  C   UNL     1      -0.240   0.101  -6.176  0.00  0.00    +0.151 C 
BRANCH  10  11
ATOM     11  C   UNL     1      -1.332   0.876  -5.491  0.00  0.00    -0.028 A 
ATOM     12  C   UNL     1      -2.338   0.209  -4.777  0.00  0.00    +0.005 A 
ATOM     13  C   UNL     1      -1.362   2.278  -5.547  0.00  0.00    +0.005 A 
ATOM     14  C   UNL     1      -3.335   0.929  -4.114  0.00  0.00    +0.000 A 
ATOM     15  C   UNL     1      -2.359   2.994  -4.885  0.00  0.00    +0.000 A 
ATOM     16  C   UNL     1      -3.344   2.319  -4.167  0.00  0.00    +0.000 A 
ENDBRANCH  10  11
ENDBRANCH   1  10
TORSDOF 2
ENDMDL
MODEL 8
REMARK VINA RESULT:    -5.212      4.611      5.404
REMARK INTER + INTRA:          -5.957
REMARK INTER:                  -5.830
REMARK INTRA:                  -0.127
REMARK UNBOUND:                -0.136
REMARK  Name = 1550473
REMARK  2 active torsions:
REMARK  status: ('A' for Active; 'I' for Inactive)
REMARK    1  A    between atoms: N_1  and  C_4
REMARK    2  A    between atoms: C_4  and  C_5
REMARK                            x       y       z     vdW  Elec       q    Type
REMARK                         _______ _______ _______ _____ _____    ______ ____
ROOT
ATOM      1  N   UNL     1      -1.009   0.834  -4.897  0.00  0.00    -0.354 N 
ATOM      2  N   UNL     1       0.008  -1.242  -4.757  0.00  0.00    -0.372 N 
ATOM      3  N   UNL     1      -0.358  -0.323  -6.828  0.00  0.00    -0.372 N 
ATOM      4  C   UNL     1      -0.460  -0.230  -5.498  0.00  0.00    +0.166 C 
ATOM      5  H   UNL     1      -1.083   0.831  -3.886  0.00  0.00    +0.163 HD
ATOM      6  H   UNL     1       0.430  -2.056  -5.182  0.00  0.00    +0.159 HD
ATOM      7  H   UNL     1      -0.026  -1.222  -3.745  0.00  0.00    +0.159 HD
ATOM      8  H   UNL     1      -0.697   0.404  -7.443  0.00  0.00    +0.159 HD
ATOM      9  H   UNL     1       0.051  -1.135  -7.272  0.00  0.00    +0.159 HD
ENDROOT
BRANCH   1  10
ATOM     10  C   UNL     1      -1.499   2.013  -5.609  0.00  0.00    +0.151 C 
BRANCH  10  11
ATOM     11  C   UNL     1      -2.461   2.757  -4.724  0.00  0.00    -0.028 A 
ATOM     12  C   UNL     1      -2.935   2.174  -3.539  0.00  0.00    +0.005 A 
ATOM     13  C   UNL     1      -2.897   4.047  -5.061  0.00  0.00    +0.005 A 
ATOM     14  C   UNL     1      -3.805   2.876  -2.702  0.00  0.00    +0.000 A 
ATOM     15  C   UNL     1      -3.767   4.745  -4.222  0.00  0.00    +0.000 A 
ATOM     16  C   UNL     1      -4.218   4.160  -3.042  0.00  0.00    +0.000 A 
ENDBRANCH  10  11
ENDBRANCH   1  10
TORSDOF 2
ENDMDL
MODEL 9
REMARK VINA RESULT:    -5.073      5.911      6.854
REMARK INTER + INTRA:          -5.802
REMARK INTER:                  -5.699
REMARK INTRA:                  -0.103
REMARK UNBOUND:                -0.136
REMARK  Name = 1550473
REMARK  2 active torsions:
REMARK  status: ('A' for Active; 'I' for Inactive)
REMARK    1  A    between atoms: N_1  and  C_4
REMARK    2  A    between atoms: C_4  and  C_5
REMARK                            x       y       z     vdW  Elec       q    Type
REMARK                         _______ _______ _______ _____ _____    ______ ____
ROOT
ATOM      1  N   UNL     1      -2.847   3.044  -5.126  0.00  0.00    -0.354 N 
ATOM      2  N   UNL     1      -4.839   4.093  -4.582  0.00  0.00    -0.372 N 
ATOM      3  N   UNL     1      -3.334   3.634  -2.911  0.00  0.00    -0.372 N 
ATOM      4  C   UNL     1      -3.659   3.583  -4.208  0.00  0.00    +0.166 C 
ATOM      5  H   UNL     1      -3.164   3.009  -6.088  0.00  0.00    +0.163 HD
ATOM      6  H   UNL     1      -5.471   4.509  -3.912  0.00  0.00    +0.159 HD
ATOM      7  H   UNL     1      -5.133   4.098  -5.551  0.00  0.00    +0.159 HD
ATOM      8  H   UNL     1      -2.461   3.261  -2.563  0.00  0.00    +0.159 HD
ATOM      9  H   UNL     1      -3.959   4.036  -2.224  0.00  0.00    +0.159 HD
ENDROOT
BRANCH   1  10
ATOM     10  C   UNL     1      -1.518   2.510  -4.831  0.00  0.00    +0.151 C 
BRANCH  10  11
ATOM     11  C   UNL     1      -1.173   1.459  -5.850  0.00  0.00    -0.028 A 
ATOM     12  C   UNL     1      -1.698   0.163  -5.742  0.00  0.00    +0.005 A 
ATOM     13  C   UNL     1      -0.327   1.756  -6.930  0.00  0.00    +0.005 A 
ATOM     14  C   UNL     1      -1.402  -0.805  -6.705  0.00  0.00    +0.000 A 
ATOM     15  C   UNL     1      -0.033   0.786  -7.889  0.00  0.00    +0.000 A 
ATOM     16  C   UNL     1      -0.573  -0.493  -7.777  0.00  0.00    +0.000 A 
ENDBRANCH  10  11
ENDBRANCH   1  10
TORSDOF 2
ENDMDL
