MODEL 1
REMARK VINA RESULT:    -6.713      0.000      0.000
REMARK INTER + INTRA:          -7.613
REMARK INTER:                  -7.498
REMARK INTRA:                  -0.115
REMARK UNBOUND:                -0.115
REMARK  Name = 1550473
REMARK  2 active torsions:
REMARK  status: ('A' for Active; 'I' for Inactive)
REMARK    1  A    between atoms: N_1  and  C_4
REMARK    2  A    between atoms: C_4  and  C_5
REMARK                            x       y       z     vdW  Elec       q    Type
REMARK                         _______ _______ _______ _____ _____    ______ ____
ROOT
ATOM      1  N   UNL     1      -5.046  -1.225  -4.770  0.00  0.00    -0.354 N 
ATOM      2  N   UNL     1      -4.378   0.756  -5.767  0.00  0.00    -0.372 N 
ATOM      3  N   UNL     1      -6.155   0.789  -4.316  0.00  0.00    -0.372 N 
ATOM      4  C   UNL     1      -5.200   0.094  -4.943  0.00  0.00    +0.166 C 
ATOM      5  H   UNL     1      -4.322  -1.699  -5.298  0.00  0.00    +0.163 HD
ATOM      6  H   UNL     1      -4.467   1.752  -5.915  0.00  0.00    +0.159 HD
ATOM      7  H   UNL     1      -3.626   0.288  -6.258  0.00  0.00    +0.159 HD
ATOM      8  H   UNL     1      -6.811   0.348  -3.686  0.00  0.00    +0.159 HD
ATOM      9  H   UNL     1      -6.268   1.785  -4.460  0.00  0.00    +0.159 HD
ENDROOT
BRANCH   1  10
ATOM     10  C   UNL     1      -5.854  -2.029  -3.855  0.00  0.00    +0.151 C 
BRANCH  10  11
ATOM     11  C   UNL     1      -7.111  -2.461  -4.558  0.00  0.00    -0.028 A 
ATOM     12  C   UNL     1      -8.359  -2.330  -3.931  0.00  0.00    +0.005 A 
ATOM     13  C   UNL     1      -7.061  -2.997  -5.854  0.00  0.00    +0.005 A 
ATOM     14  C   UNL     1      -9.529  -2.703  -4.596  0.00  0.00    +0.000 A 
ATOM     15  C   UNL     1      -8.232  -3.369  -6.514  0.00  0.00    +0.000 A 
ATOM     16  C   UNL     1      -9.466  -3.219  -5.886  0.00  0.00    +0.000 A 
ENDBRANCH  10  11
ENDBRANCH   1  10
TORSDOF 2
ENDMDL
MODEL 2
REMARK VINA RESULT:    -6.285      2.015      3.348
REMARK INTER + INTRA:          -7.134
REMARK INTER:                  -7.047
REMARK INTRA:                  -0.088
REMARK UNBOUND:                -0.115
REMARK  Name = 1550473
REMARK  2 active torsions:
REMARK  status: ('A' for Active; 'I' for Inactive)
REMARK    1  A    between atoms: N_1  and  C_4
REMARK    2  A    between atoms: C_4  and  C_5
REMARK                            x       y       z     vdW  Elec       q    Type
REMARK                         _______ _______ _______ _____ _____    ______ ____
ROOT
ATOM      1  N   UNL     1      -5.136  -0.818  -5.325  0.00  0.00    -0.354 N 
ATOM      2  N   UNL     1      -4.174   1.287  -5.422  0.00  0.00    -0.372 N 
ATOM      3  N   UNL     1      -6.244   1.057  -4.459  0.00  0.00    -0.372 N 
ATOM      4  C   UNL     1      -5.194   0.496  -5.067  0.00  0.00    +0.166 C 
ATOM      5  H   UNL     1      -4.325  -1.177  -5.815  0.00  0.00    +0.163 HD
ATOM      6  H   UNL     1      -4.188   2.281  -5.238  0.00  0.00    +0.159 HD
ATOM      7  H   UNL     1      -3.345   0.918  -5.871  0.00  0.00    +0.159 HD
ATOM      8  H   UNL     1      -7.048   0.516  -4.171  0.00  0.00    +0.159 HD
ATOM      9  H   UNL     1      -6.282   2.052  -4.277  0.00  0.00    +0.159 HD
ENDROOT
BRANCH   1  10
ATOM     10  C   UNL     1      -6.169  -1.775  -4.931  0.00  0.00    +0.151 C 
BRANCH  10  11
ATOM     11  C   UNL     1      -5.778  -2.410  -3.625  0.00  0.00    -0.028 A 
ATOM     12  C   UNL     1      -6.732  -3.077  -2.844  0.00  0.00    +0.005 A 
ATOM     13  C   UNL     1      -4.452  -2.354  -3.167  0.00  0.00    +0.005 A 
ATOM     14  C   UNL     1      -6.363  -3.694  -1.646  0.00  0.00    +0.000 A 
ATOM     15  C   UNL     1      -4.088  -2.970  -1.970  0.00  0.00    +0.000 A 
ATOM     16  C   UNL     1      -5.043  -3.642  -1.211  0.00  0.00    +0.000 A 
ENDBRANCH  10  11
ENDBRANCH   1  10
TORSDOF 2
ENDMDL
MODEL 3
REMARK VINA RESULT:    -5.957      2.907      4.317
REMARK INTER + INTRA:          -6.768
REMARK INTER:                  -6.682
REMARK INTRA:                  -0.085
REMARK UNBOUND:                -0.115
REMARK  Name = 1550473
REMARK  2 active torsions:
REMARK  status: ('A' for Active; 'I' for Inactive)
REMARK    1  A    between atoms: N_1  and  C_4
REMARK    2  A    between atoms: C_4  and  C_5
REMARK                            x       y       z     vdW  Elec       q    Type
REMARK                         _______ _______ _______ _____ _____    ______ ____
ROOT
ATOM      1  N   UNL     1      -8.006  -2.197  -6.090  0.00  0.00    -0.354 N 
ATOM      2  N   UNL     1      -8.365  -3.939  -7.574  0.00  0.00    -0.372 N 
ATOM      3  N   UNL     1      -9.957  -3.491  -5.983  0.00  0.00    -0.372 N 
ATOM      4  C   UNL     1      -8.776  -3.198  -6.537  0.00  0.00    +0.166 C 
ATOM      5  H   UNL     1      -7.108  -2.045  -6.534  0.00  0.00    +0.163 HD
ATOM      6  H   UNL     1      -8.926  -4.698  -7.936  0.00  0.00    +0.159 HD
ATOM      7  H   UNL     1      -7.487  -3.755  -8.045  0.00  0.00    +0.159 HD
ATOM      8  H   UNL     1     -10.322  -2.974  -5.195  0.00  0.00    +0.159 HD
ATOM      9  H   UNL     1     -10.528  -4.255  -6.324  0.00  0.00    +0.159 HD
ENDROOT
BRANCH   1  10
ATOM     10  C   UNL     1      -8.386  -1.297  -5.002  0.00  0.00    +0.151 C 
BRANCH  10  11
ATOM     11  C   UNL     1      -7.547  -1.606  -3.793  0.00  0.00    -0.028 A 
ATOM     12  C   UNL     1      -7.587  -0.772  -2.667  0.00  0.00    +0.005 A 
ATOM     13  C   UNL     1      -6.714  -2.736  -3.765  0.00  0.00    +0.005 A 
ATOM     14  C   UNL     1      -6.830  -1.075  -1.532  0.00  0.00    +0.000 A 
ATOM     15  C   UNL     1      -5.960  -3.035  -2.631  0.00  0.00    +0.000 A 
ATOM     16  C   UNL     1      -6.020  -2.205  -1.513  0.00  0.00    +0.000 A 
ENDBRANCH  10  11
ENDBRANCH   1  10
TORSDOF 2
ENDMDL
MODEL 4
REMARK VINA RESULT:    -5.103     13.597     14.476
REMARK INTER + INTRA:          -5.814
REMARK INTER:                  -5.681
REMARK INTRA:                  -0.133
REMARK UNBOUND:                -0.115
REMARK  Name = 1550473
REMARK  2 active torsions:
REMARK  status: ('A' for Active; 'I' for Inactive)
REMARK    1  A    between atoms: N_1  and  C_4
REMARK    2  A    between atoms: C_4  and  C_5
REMARK                            x       y       z     vdW  Elec       q    Type
REMARK                         _______ _______ _______ _____ _____    ______ ____
ROOT
ATOM      1  N   UNL     1      -7.614   6.817 -18.099  0.00  0.00    -0.354 N 
ATOM      2  N   UNL     1      -5.538   7.405 -18.942  0.00  0.00    -0.372 N 
ATOM      3  N   UNL     1      -6.531   8.770 -17.387  0.00  0.00    -0.372 N 
ATOM      4  C   UNL     1      -6.575   7.662 -18.136  0.00  0.00    +0.166 C 
ATOM      5  H   UNL     1      -7.600   6.011 -18.713  0.00  0.00    +0.163 HD
ATOM      6  H   UNL     1      -4.739   8.022 -18.989  0.00  0.00    +0.159 HD
ATOM      7  H   UNL     1      -5.507   6.574 -19.521  0.00  0.00    +0.159 HD
ATOM      8  H   UNL     1      -7.284   9.024 -16.763  0.00  0.00    +0.159 HD
ATOM      9  H   UNL     1      -5.745   9.406 -17.429  0.00  0.00    +0.159 HD
ENDROOT
BRANCH   1  10
ATOM     10  C   UNL     1      -8.768   6.977 -17.216  0.00  0.00    +0.151 C 
BRANCH  10  11
ATOM     11  C   UNL     1      -9.261   5.619 -16.800  0.00  0.00    -0.028 A 
ATOM     12  C   UNL     1      -8.621   4.458 -17.259  0.00  0.00    +0.005 A 
ATOM     13  C   UNL     1     -10.363   5.486 -15.942  0.00  0.00    +0.005 A 
ATOM     14  C   UNL     1      -9.060   3.197 -16.849  0.00  0.00    +0.000 A 
ATOM     15  C   UNL     1     -10.798   4.225 -15.535  0.00  0.00    +0.000 A 
ATOM     16  C   UNL     1     -10.145   3.081 -15.987  0.00  0.00    +0.000 A 
ENDBRANCH  10  11
ENDBRANCH   1  10
TORSDOF 2
ENDMDL
MODEL 5
REMARK VINA RESULT:    -5.093     14.759     15.827
REMARK INTER + INTRA:          -5.803
REMARK INTER:                  -5.665
REMARK INTRA:                  -0.138
REMARK UNBOUND:                -0.115
REMARK  Name = 1550473
REMARK  2 active torsions:
REMARK  status: ('A' for Active; 'I' for Inactive)
REMARK    1  A    between atoms: N_1  and  C_4
REMARK    2  A    between atoms: C_4  and  C_5
REMARK                            x       y       z     vdW  Elec       q    Type
REMARK                         _______ _______ _______ _____ _____    ______ ____
ROOT
ATOM      1  N   UNL     1      -8.372  -7.294   8.165  0.00  0.00    -0.354 N 
ATOM      2  N   UNL     1      -7.017  -8.762   6.995  0.00  0.00    -0.372 N 
ATOM      3  N   UNL     1      -6.338  -8.034   9.062  0.00  0.00    -0.372 N 
ATOM      4  C   UNL     1      -7.250  -8.020   8.084  0.00  0.00    +0.166 C 
ATOM      5  H   UNL     1      -9.009  -7.302   7.376  0.00  0.00    +0.163 HD
ATOM      6  H   UNL     1      -6.180  -9.323   6.907  0.00  0.00    +0.159 HD
ATOM      7  H   UNL     1      -7.677  -8.805   6.228  0.00  0.00    +0.159 HD
ATOM      8  H   UNL     1      -6.451  -7.490   9.907  0.00  0.00    +0.159 HD
ATOM      9  H   UNL     1      -5.488  -8.580   8.987  0.00  0.00    +0.159 HD
ENDROOT
BRANCH   1  10
ATOM     10  C   UNL     1      -8.746  -6.493   9.330  0.00  0.00    +0.151 C 
BRANCH  10  11
ATOM     11  C   UNL     1     -10.185  -6.767   9.672  0.00  0.00    -0.028 A 
ATOM     12  C   UNL     1     -10.696  -8.071   9.610  0.00  0.00    +0.005 A 
ATOM     13  C   UNL     1     -11.040  -5.726  10.066  0.00  0.00    +0.005 A 
ATOM     14  C   UNL     1     -12.024  -8.331   9.957  0.00  0.00    +0.000 A 
ATOM     15  C   UNL     1     -12.366  -5.989  10.411  0.00  0.00    +0.000 A 
ATOM     16  C   UNL     1     -12.857  -7.292  10.359  0.00  0.00    +0.000 A 
ENDBRANCH  10  11
ENDBRANCH   1  10
TORSDOF 2
ENDMDL
MODEL 6
REMARK VINA RESULT:    -4.974     10.574     11.985
REMARK INTER + INTRA:          -5.671
REMARK INTER:                  -5.554
REMARK INTRA:                  -0.117
REMARK UNBOUND:                -0.115
REMARK  Name = 1550473
REMARK  2 active torsions:
REMARK  status: ('A' for Active; 'I' for Inactive)
REMARK    1  A    between atoms: N_1  and  C_4
REMARK    2  A    between atoms: C_4  and  C_5
REMARK                            x       y       z     vdW  Elec       q    Type
REMARK                         _______ _______ _______ _____ _____    ______ ____
ROOT
ATOM      1  N   UNL     1     -12.125  -5.065 -14.180  0.00  0.00    -0.354 N 
ATOM      2  N   UNL     1     -10.474  -3.571 -13.544  0.00  0.00    -0.372 N 
ATOM      3  N   UNL     1     -11.579  -3.226 -15.525  0.00  0.00    -0.372 N 
ATOM      4  C   UNL     1     -11.404  -3.963 -14.423  0.00  0.00    +0.166 C 
ATOM      5  H   UNL     1     -11.923  -5.597 -13.341  0.00  0.00    +0.163 HD
ATOM      6  H   UNL     1      -9.917  -2.741 -13.699  0.00  0.00    +0.159 HD
ATOM      7  H   UNL     1     -10.306  -4.078 -12.684  0.00  0.00    +0.159 HD
ATOM      8  H   UNL     1     -12.261  -3.471 -16.230  0.00  0.00    +0.159 HD
ATOM      9  H   UNL     1     -11.023  -2.399 -15.703  0.00  0.00    +0.159 HD
ENDROOT
BRANCH   1  10
ATOM     10  C   UNL     1     -13.198  -5.548 -15.046  0.00  0.00    +0.151 C 
BRANCH  10  11
ATOM     11  C   UNL     1     -14.410  -5.846 -14.207  0.00  0.00    -0.028 A 
ATOM     12  C   UNL     1     -15.600  -5.126 -14.394  0.00  0.00    +0.005 A 
ATOM     13  C   UNL     1     -14.378  -6.850 -13.228  0.00  0.00    +0.005 A 
ATOM     14  C   UNL     1     -16.735  -5.422 -13.636  0.00  0.00    +0.000 A 
ATOM     15  C   UNL     1     -15.513  -7.142 -12.472  0.00  0.00    +0.000 A 
ATOM     16  C   UNL     1     -16.692  -6.430 -12.678  0.00  0.00    +0.000 A 
ENDBRANCH  10  11
ENDBRANCH   1  10
TORSDOF 2
ENDMDL
MODEL 7
REMARK VINA RESULT:    -4.836     10.944     12.365
REMARK INTER + INTRA:          -5.516
REMARK INTER:                  -5.357
REMARK INTRA:                  -0.159
REMARK UNBOUND:                -0.115
REMARK  Name = 1550473
REMARK  2 active torsions:
REMARK  status: ('A' for Active; 'I' for Inactive)
REMARK    1  A    between atoms: N_1  and  C_4
REMARK    2  A    between atoms: C_4  and  C_5
REMARK                            x       y       z     vdW  Elec       q    Type
REMARK                         _______ _______ _______ _____ _____    ______ ____
ROOT
ATOM      1  N   UNL     1     -11.932  -4.259 -15.449  0.00  0.00    -0.354 N 
ATOM      2  N   UNL     1     -10.235  -3.562 -14.034  0.00  0.00    -0.372 N 
ATOM      3  N   UNL     1     -11.193  -5.618 -13.689  0.00  0.00    -0.372 N 
ATOM      4  C   UNL     1     -11.132  -4.487 -14.399  0.00  0.00    +0.166 C 
ATOM      5  H   UNL     1     -11.857  -3.368 -15.927  0.00  0.00    +0.163 HD
ATOM      6  H   UNL     1      -9.616  -3.708 -13.249  0.00  0.00    +0.159 HD
ATOM      7  H   UNL     1     -10.131  -2.692 -14.542  0.00  0.00    +0.159 HD
ATOM      8  H   UNL     1     -11.852  -6.353 -13.908  0.00  0.00    +0.159 HD
ATOM      9  H   UNL     1     -10.589  -5.777 -12.892  0.00  0.00    +0.159 HD
ENDROOT
BRANCH   1  10
ATOM     10  C   UNL     1     -12.905  -5.223 -15.960  0.00  0.00    +0.151 C 
BRANCH  10  11
ATOM     11  C   UNL     1     -14.236  -4.970 -15.307  0.00  0.00    -0.028 A 
ATOM     12  C   UNL     1     -14.782  -5.908 -14.419  0.00  0.00    +0.005 A 
ATOM     13  C   UNL     1     -14.953  -3.793 -15.569  0.00  0.00    +0.005 A 
ATOM     14  C   UNL     1     -16.005  -5.660 -13.789  0.00  0.00    +0.000 A 
ATOM     15  C   UNL     1     -16.174  -3.550 -14.939  0.00  0.00    +0.000 A 
ATOM     16  C   UNL     1     -16.698  -4.482 -14.047  0.00  0.00    +0.000 A 
ENDBRANCH  10  11
ENDBRANCH   1  10
TORSDOF 2
ENDMDL
MODEL 8
REMARK VINA RESULT:    -4.827     19.251     20.338
REMARK INTER + INTRA:          -5.506
REMARK INTER:                  -5.383
REMARK INTRA:                  -0.123
REMARK UNBOUND:                -0.115
REMARK  Name = 1550473
REMARK  2 active torsions:
REMARK  status: ('A' for Active; 'I' for Inactive)
REMARK    1  A    between atoms: N_1  and  C_4
REMARK    2  A    between atoms: C_4  and  C_5
REMARK                            x       y       z     vdW  Elec       q    Type
REMARK                         _______ _______ _______ _____ _____    ______ ____
ROOT
ATOM      1  N   UNL     1       4.621   0.531 -20.492  0.00  0.00    -0.354 N 
ATOM      2  N   UNL     1       4.208  -1.481 -21.563  0.00  0.00    -0.372 N 
ATOM      3  N   UNL     1       2.475  -0.007 -21.265  0.00  0.00    -0.372 N 
ATOM      4  C   UNL     1       3.768  -0.305 -21.099  0.00  0.00    +0.166 C 
ATOM      5  H   UNL     1       5.582   0.233 -20.371  0.00  0.00    +0.163 HD
ATOM      6  H   UNL     1       3.589  -2.131 -22.028  0.00  0.00    +0.159 HD
ATOM      7  H   UNL     1       5.179  -1.756 -21.481  0.00  0.00    +0.159 HD
ATOM      8  H   UNL     1       2.079   0.862 -20.933  0.00  0.00    +0.159 HD
ATOM      9  H   UNL     1       1.837  -0.649 -21.718  0.00  0.00    +0.159 HD
ENDROOT
BRANCH   1  10
ATOM     10  C   UNL     1       4.254   1.858 -20.000  0.00  0.00    +0.151 C 
BRANCH  10  11
ATOM     11  C   UNL     1       5.507   2.622 -19.668  0.00  0.00    -0.028 A 
ATOM     12  C   UNL     1       5.442   3.979 -19.322  0.00  0.00    +0.005 A 
ATOM     13  C   UNL     1       6.761   1.992 -19.693  0.00  0.00    +0.005 A 
ATOM     14  C   UNL     1       6.601   4.682 -18.985  0.00  0.00    +0.000 A 
ATOM     15  C   UNL     1       7.916   2.697 -19.356  0.00  0.00    +0.000 A 
ATOM     16  C   UNL     1       7.836   4.041 -19.000  0.00  0.00    +0.000 A 
ENDBRANCH  10  11
ENDBRANCH   1  10
TORSDOF 2
ENDMDL
MODEL 9
REMARK VINA RESULT:    -4.798     16.481     17.590
REMARK INTER + INTRA:          -5.473
REMARK INTER:                  -5.337
REMARK INTRA:                  -0.137
REMARK UNBOUND:                -0.115
REMARK  Name = 1550473
REMARK  2 active torsions:
REMARK  status: ('A' for Active; 'I' for Inactive)
REMARK    1  A    between atoms: N_1  and  C_4
REMARK    2  A    between atoms: C_4  and  C_5
REMARK                            x       y       z     vdW  Elec       q    Type
REMARK                         _______ _______ _______ _____ _____    ______ ____
ROOT
ATOM      1  N   UNL     1      -7.015  -6.880   9.567  0.00  0.00    -0.354 N 
ATOM      2  N   UNL     1      -8.398  -7.035   7.716  0.00  0.00    -0.372 N 
ATOM      3  N   UNL     1      -6.533  -8.368   7.821  0.00  0.00    -0.372 N 
ATOM      4  C   UNL     1      -7.304  -7.429   8.379  0.00  0.00    +0.166 C 
ATOM      5  H   UNL     1      -7.623  -6.151   9.921  0.00  0.00    +0.163 HD
ATOM      6  H   UNL     1      -8.644  -7.434   6.819  0.00  0.00    +0.159 HD
ATOM      7  H   UNL     1      -9.029  -6.339   8.094  0.00  0.00    +0.159 HD
ATOM      8  H   UNL     1      -5.690  -8.704   8.268  0.00  0.00    +0.159 HD
ATOM      9  H   UNL     1      -6.756  -8.770   6.920  0.00  0.00    +0.159 HD
ENDROOT
BRANCH   1  10
ATOM     10  C   UNL     1      -5.877  -7.276  10.395  0.00  0.00    +0.151 C 
BRANCH  10  11
ATOM     11  C   UNL     1      -6.322  -7.371  11.828  0.00  0.00    -0.028 A 
ATOM     12  C   UNL     1      -5.478  -7.927  12.800  0.00  0.00    +0.005 A 
ATOM     13  C   UNL     1      -7.585  -6.903  12.221  0.00  0.00    +0.005 A 
ATOM     14  C   UNL     1      -5.879  -7.988  14.137  0.00  0.00    +0.000 A 
ATOM     15  C   UNL     1      -7.983  -6.967  13.557  0.00  0.00    +0.000 A 
ATOM     16  C   UNL     1      -7.128  -7.507  14.515  0.00  0.00    +0.000 A 
ENDBRANCH  10  11
ENDBRANCH   1  10
TORSDOF 2
ENDMDL
