MODEL 1
REMARK VINA RESULT:    -6.303      0.000      0.000
REMARK INTER + INTRA:          -7.160
REMARK INTER:                  -7.040
REMARK INTRA:                  -0.120
REMARK UNBOUND:                -0.120
REMARK  Name = 1550473
REMARK  2 active torsions:
REMARK  status: ('A' for Active; 'I' for Inactive)
REMARK    1  A    between atoms: N_1  and  C_4
REMARK    2  A    between atoms: C_4  and  C_5
REMARK                            x       y       z     vdW  Elec       q    Type
REMARK                         _______ _______ _______ _____ _____    ______ ____
ROOT
ATOM      1  N   UNL     1       1.675  -2.333  -5.538  0.00  0.00    -0.354 N 
ATOM      2  N   UNL     1      -0.513  -2.910  -5.047  0.00  0.00    -0.372 N 
ATOM      3  N   UNL     1       0.412  -1.084  -4.010  0.00  0.00    -0.372 N 
ATOM      4  C   UNL     1       0.539  -2.103  -4.866  0.00  0.00    +0.166 C 
ATOM      5  H   UNL     1       1.718  -3.140  -6.150  0.00  0.00    +0.163 HD
ATOM      6  H   UNL     1      -1.385  -2.759  -4.557  0.00  0.00    +0.159 HD
ATOM      7  H   UNL     1      -0.483  -3.689  -5.694  0.00  0.00    +0.159 HD
ATOM      8  H   UNL     1       1.171  -0.442  -3.825  0.00  0.00    +0.159 HD
ATOM      9  H   UNL     1      -0.449  -0.924  -3.501  0.00  0.00    +0.159 HD
ENDROOT
BRANCH   1  10
ATOM     10  C   UNL     1       2.861  -1.483  -5.454  0.00  0.00    +0.151 C 
BRANCH  10  11
ATOM     11  C   UNL     1       4.001  -2.157  -6.168  0.00  0.00    -0.028 A 
ATOM     12  C   UNL     1       5.057  -1.400  -6.695  0.00  0.00    +0.005 A 
ATOM     13  C   UNL     1       4.032  -3.552  -6.315  0.00  0.00    +0.005 A 
ATOM     14  C   UNL     1       6.131  -2.028  -7.332  0.00  0.00    +0.000 A 
ATOM     15  C   UNL     1       5.105  -4.175  -6.952  0.00  0.00    +0.000 A 
ATOM     16  C   UNL     1       6.155  -3.413  -7.458  0.00  0.00    +0.000 A 
ENDBRANCH  10  11
ENDBRANCH   1  10
TORSDOF 2
ENDMDL
MODEL 2
REMARK VINA RESULT:    -6.246      1.739      2.873
REMARK INTER + INTRA:          -7.096
REMARK INTER:                  -6.943
REMARK INTRA:                  -0.152
REMARK UNBOUND:                -0.120
REMARK  Name = 1550473
REMARK  2 active torsions:
REMARK  status: ('A' for Active; 'I' for Inactive)
REMARK    1  A    between atoms: N_1  and  C_4
REMARK    2  A    between atoms: C_4  and  C_5
REMARK                            x       y       z     vdW  Elec       q    Type
REMARK                         _______ _______ _______ _____ _____    ______ ____
ROOT
ATOM      1  N   UNL     1      -0.427  -2.471  -4.272  0.00  0.00    -0.354 N 
ATOM      2  N   UNL     1      -1.544  -2.565  -2.245  0.00  0.00    -0.372 N 
ATOM      3  N   UNL     1      -0.827  -0.529  -3.023  0.00  0.00    -0.372 N 
ATOM      4  C   UNL     1      -0.925  -1.852  -3.193  0.00  0.00    +0.166 C 
ATOM      5  H   UNL     1      -0.508  -3.480  -4.327  0.00  0.00    +0.163 HD
ATOM      6  H   UNL     1      -1.932  -2.124  -1.422  0.00  0.00    +0.159 HD
ATOM      7  H   UNL     1      -1.663  -3.567  -2.324  0.00  0.00    +0.159 HD
ATOM      8  H   UNL     1      -0.366   0.065  -3.699  0.00  0.00    +0.159 HD
ATOM      9  H   UNL     1      -1.199  -0.071  -2.200  0.00  0.00    +0.159 HD
ENDROOT
BRANCH   1  10
ATOM     10  C   UNL     1       0.217  -1.781  -5.387  0.00  0.00    +0.151 C 
BRANCH  10  11
ATOM     11  C   UNL     1       1.675  -2.150  -5.417  0.00  0.00    -0.028 A 
ATOM     12  C   UNL     1       2.067  -3.495  -5.482  0.00  0.00    +0.005 A 
ATOM     13  C   UNL     1       2.669  -1.160  -5.388  0.00  0.00    +0.005 A 
ATOM     14  C   UNL     1       3.420  -3.838  -5.541  0.00  0.00    +0.000 A 
ATOM     15  C   UNL     1       4.018  -1.506  -5.445  0.00  0.00    +0.000 A 
ATOM     16  C   UNL     1       4.394  -2.845  -5.524  0.00  0.00    +0.000 A 
ENDBRANCH  10  11
ENDBRANCH   1  10
TORSDOF 2
ENDMDL
MODEL 3
REMARK VINA RESULT:    -6.090      6.431      8.204
REMARK INTER + INTRA:          -6.921
REMARK INTER:                  -6.772
REMARK INTRA:                  -0.150
REMARK UNBOUND:                -0.120
REMARK  Name = 1550473
REMARK  2 active torsions:
REMARK  status: ('A' for Active; 'I' for Inactive)
REMARK    1  A    between atoms: N_1  and  C_4
REMARK    2  A    between atoms: C_4  and  C_5
REMARK                            x       y       z     vdW  Elec       q    Type
REMARK                         _______ _______ _______ _____ _____    ______ ____
ROOT
ATOM      1  N   UNL     1      -3.604  -2.690  -4.542  0.00  0.00    -0.354 N 
ATOM      2  N   UNL     1      -2.637  -4.780  -4.297  0.00  0.00    -0.372 N 
ATOM      3  N   UNL     1      -1.279  -2.964  -4.644  0.00  0.00    -0.372 N 
ATOM      4  C   UNL     1      -2.510  -3.463  -4.497  0.00  0.00    +0.166 C 
ATOM      5  H   UNL     1      -4.511  -3.134  -4.454  0.00  0.00    +0.163 HD
ATOM      6  H   UNL     1      -1.830  -5.388  -4.255  0.00  0.00    +0.159 HD
ATOM      7  H   UNL     1      -3.542  -5.215  -4.163  0.00  0.00    +0.159 HD
ATOM      8  H   UNL     1      -1.116  -1.978  -4.803  0.00  0.00    +0.159 HD
ATOM      9  H   UNL     1      -0.459  -3.557  -4.616  0.00  0.00    +0.159 HD
ENDROOT
BRANCH   1  10
ATOM     10  C   UNL     1      -3.573  -1.237  -4.700  0.00  0.00    +0.151 C 
BRANCH  10  11
ATOM     11  C   UNL     1      -4.270  -0.867  -5.980  0.00  0.00    -0.028 A 
ATOM     12  C   UNL     1      -4.111   0.411  -6.534  0.00  0.00    +0.005 A 
ATOM     13  C   UNL     1      -5.088  -1.793  -6.647  0.00  0.00    +0.005 A 
ATOM     14  C   UNL     1      -4.734   0.745  -7.739  0.00  0.00    +0.000 A 
ATOM     15  C   UNL     1      -5.710  -1.455  -7.848  0.00  0.00    +0.000 A 
ATOM     16  C   UNL     1      -5.531  -0.187  -8.395  0.00  0.00    +0.000 A 
ENDBRANCH  10  11
ENDBRANCH   1  10
TORSDOF 2
ENDMDL
MODEL 4
REMARK VINA RESULT:    -6.049      6.598      8.353
REMARK INTER + INTRA:          -6.876
REMARK INTER:                  -6.756
REMARK INTRA:                  -0.120
REMARK UNBOUND:                -0.120
REMARK  Name = 1550473
REMARK  2 active torsions:
REMARK  status: ('A' for Active; 'I' for Inactive)
REMARK    1  A    between atoms: N_1  and  C_4
REMARK    2  A    between atoms: C_4  and  C_5
REMARK                            x       y       z     vdW  Elec       q    Type
REMARK                         _______ _______ _______ _____ _____    ______ ____
ROOT
ATOM      1  N   UNL     1      -3.332  -3.771  -6.422  0.00  0.00    -0.354 N 
ATOM      2  N   UNL     1      -1.450  -5.108  -6.241  0.00  0.00    -0.372 N 
ATOM      3  N   UNL     1      -2.613  -4.567  -4.338  0.00  0.00    -0.372 N 
ATOM      4  C   UNL     1      -2.478  -4.473  -5.665  0.00  0.00    +0.166 C 
ATOM      5  H   UNL     1      -3.157  -3.713  -7.419  0.00  0.00    +0.163 HD
ATOM      6  H   UNL     1      -0.791  -5.648  -5.696  0.00  0.00    +0.159 HD
ATOM      7  H   UNL     1      -1.304  -5.087  -7.243  0.00  0.00    +0.159 HD
ATOM      8  H   UNL     1      -3.365  -4.106  -3.843  0.00  0.00    +0.159 HD
ATOM      9  H   UNL     1      -1.957  -5.093  -3.775  0.00  0.00    +0.159 HD
ENDROOT
BRANCH   1  10
ATOM     10  C   UNL     1      -4.514  -3.087  -5.900  0.00  0.00    +0.151 C 
BRANCH  10  11
ATOM     11  C   UNL     1      -4.595  -1.713  -6.507  0.00  0.00    -0.028 A 
ATOM     12  C   UNL     1      -5.359  -1.489  -7.662  0.00  0.00    +0.005 A 
ATOM     13  C   UNL     1      -3.914  -0.631  -5.929  0.00  0.00    +0.005 A 
ATOM     14  C   UNL     1      -5.458  -0.207  -8.209  0.00  0.00    +0.000 A 
ATOM     15  C   UNL     1      -4.015   0.647  -6.479  0.00  0.00    +0.000 A 
ATOM     16  C   UNL     1      -4.789   0.859  -7.617  0.00  0.00    +0.000 A 
ENDBRANCH  10  11
ENDBRANCH   1  10
TORSDOF 2
ENDMDL
MODEL 5
REMARK VINA RESULT:    -5.876      6.686      8.138
REMARK INTER + INTRA:          -6.683
REMARK INTER:                  -6.560
REMARK INTRA:                  -0.123
REMARK UNBOUND:                -0.120
REMARK  Name = 1550473
REMARK  2 active torsions:
REMARK  status: ('A' for Active; 'I' for Inactive)
REMARK    1  A    between atoms: N_1  and  C_4
REMARK    2  A    between atoms: C_4  and  C_5
REMARK                            x       y       z     vdW  Elec       q    Type
REMARK                         _______ _______ _______ _____ _____    ______ ____
ROOT
ATOM      1  N   UNL     1      -3.581  -4.056  -6.385  0.00  0.00    -0.354 N 
ATOM      2  N   UNL     1      -2.607  -4.599  -4.355  0.00  0.00    -0.372 N 
ATOM      3  N   UNL     1      -1.484  -5.100  -6.292  0.00  0.00    -0.372 N 
ATOM      4  C   UNL     1      -2.562  -4.583  -5.692  0.00  0.00    +0.166 C 
ATOM      5  H   UNL     1      -4.382  -3.708  -5.872  0.00  0.00    +0.163 HD
ATOM      6  H   UNL     1      -1.851  -4.986  -3.805  0.00  0.00    +0.159 HD
ATOM      7  H   UNL     1      -3.388  -4.208  -3.843  0.00  0.00    +0.159 HD
ATOM      8  H   UNL     1      -1.392  -5.124  -7.299  0.00  0.00    +0.159 HD
ATOM      9  H   UNL     1      -0.723  -5.503  -5.760  0.00  0.00    +0.159 HD
ENDROOT
BRANCH   1  10
ATOM     10  C   UNL     1      -3.606  -3.942  -7.842  0.00  0.00    +0.151 C 
BRANCH  10  11
ATOM     11  C   UNL     1      -4.002  -2.540  -8.217  0.00  0.00    -0.028 A 
ATOM     12  C   UNL     1      -3.275  -1.830  -9.184  0.00  0.00    +0.005 A 
ATOM     13  C   UNL     1      -5.106  -1.919  -7.614  0.00  0.00    +0.005 A 
ATOM     14  C   UNL     1      -3.660  -0.539  -9.554  0.00  0.00    +0.000 A 
ATOM     15  C   UNL     1      -5.487  -0.630  -7.987  0.00  0.00    +0.000 A 
ATOM     16  C   UNL     1      -4.765   0.059  -8.958  0.00  0.00    +0.000 A 
ENDBRANCH  10  11
ENDBRANCH   1  10
TORSDOF 2
ENDMDL
MODEL 6
REMARK VINA RESULT:    -5.821     14.255     14.867
REMARK INTER + INTRA:          -6.622
REMARK INTER:                  -6.441
REMARK INTRA:                  -0.180
REMARK UNBOUND:                -0.120
REMARK  Name = 1550473
REMARK  2 active torsions:
REMARK  status: ('A' for Active; 'I' for Inactive)
REMARK    1  A    between atoms: N_1  and  C_4
REMARK    2  A    between atoms: C_4  and  C_5
REMARK                            x       y       z     vdW  Elec       q    Type
REMARK                         _______ _______ _______ _____ _____    ______ ____
ROOT
ATOM      1  N   UNL     1       3.911   8.140 -17.229  0.00  0.00    -0.354 N 
ATOM      2  N   UNL     1       3.811   8.589 -14.959  0.00  0.00    -0.372 N 
ATOM      3  N   UNL     1       2.013   7.586 -15.971  0.00  0.00    -0.372 N 
ATOM      4  C   UNL     1       3.243   8.101 -16.068  0.00  0.00    +0.166 C 
ATOM      5  H   UNL     1       4.828   8.570 -17.242  0.00  0.00    +0.163 HD
ATOM      6  H   UNL     1       3.333   8.570 -14.068  0.00  0.00    +0.159 HD
ATOM      7  H   UNL     1       4.747   8.977 -14.966  0.00  0.00    +0.159 HD
ATOM      8  H   UNL     1       1.526   7.207 -16.772  0.00  0.00    +0.159 HD
ATOM      9  H   UNL     1       1.513   7.569 -15.091  0.00  0.00    +0.159 HD
ENDROOT
BRANCH   1  10
ATOM     10  C   UNL     1       3.403   7.586 -18.483  0.00  0.00    +0.151 C 
BRANCH  10  11
ATOM     11  C   UNL     1       3.929   6.188 -18.652  0.00  0.00    -0.028 A 
ATOM     12  C   UNL     1       5.303   5.958 -18.812  0.00  0.00    +0.005 A 
ATOM     13  C   UNL     1       3.058   5.087 -18.646  0.00  0.00    +0.005 A 
ATOM     14  C   UNL     1       5.795   4.657 -18.939  0.00  0.00    +0.000 A 
ATOM     15  C   UNL     1       3.553   3.789 -18.773  0.00  0.00    +0.000 A 
ATOM     16  C   UNL     1       4.922   3.574 -18.917  0.00  0.00    +0.000 A 
ENDBRANCH  10  11
ENDBRANCH   1  10
TORSDOF 2
ENDMDL
MODEL 7
REMARK VINA RESULT:    -5.758      5.863      6.807
REMARK INTER + INTRA:          -6.551
REMARK INTER:                  -6.417
REMARK INTRA:                  -0.134
REMARK UNBOUND:                -0.120
REMARK  Name = 1550473
REMARK  2 active torsions:
REMARK  status: ('A' for Active; 'I' for Inactive)
REMARK    1  A    between atoms: N_1  and  C_4
REMARK    2  A    between atoms: C_4  and  C_5
REMARK                            x       y       z     vdW  Elec       q    Type
REMARK                         _______ _______ _______ _____ _____    ______ ____
ROOT
ATOM      1  N   UNL     1      -2.860  -2.642  -5.327  0.00  0.00    -0.354 N 
ATOM      2  N   UNL     1      -1.918  -2.885  -3.225  0.00  0.00    -0.372 N 
ATOM      3  N   UNL     1      -2.620  -4.758  -4.348  0.00  0.00    -0.372 N 
ATOM      4  C   UNL     1      -2.473  -3.429  -4.314  0.00  0.00    +0.166 C 
ATOM      5  H   UNL     1      -2.749  -1.640  -5.227  0.00  0.00    +0.163 HD
ATOM      6  H   UNL     1      -1.613  -3.453  -2.447  0.00  0.00    +0.159 HD
ATOM      7  H   UNL     1      -1.766  -1.886  -3.147  0.00  0.00    +0.159 HD
ATOM      8  H   UNL     1      -3.038  -5.231  -5.139  0.00  0.00    +0.159 HD
ATOM      9  H   UNL     1      -2.332  -5.343  -3.574  0.00  0.00    +0.159 HD
ENDROOT
BRANCH   1  10
ATOM     10  C   UNL     1      -3.426  -3.140  -6.579  0.00  0.00    +0.151 C 
BRANCH  10  11
ATOM     11  C   UNL     1      -2.951  -2.273  -7.712  0.00  0.00    -0.028 A 
ATOM     12  C   UNL     1      -3.610  -2.294  -8.950  0.00  0.00    +0.005 A 
ATOM     13  C   UNL     1      -1.846  -1.423  -7.552  0.00  0.00    +0.005 A 
ATOM     14  C   UNL     1      -3.187  -1.467  -9.993  0.00  0.00    +0.000 A 
ATOM     15  C   UNL     1      -1.427  -0.598  -8.596  0.00  0.00    +0.000 A 
ATOM     16  C   UNL     1      -2.099  -0.619  -9.816  0.00  0.00    +0.000 A 
ENDBRANCH  10  11
ENDBRANCH   1  10
TORSDOF 2
ENDMDL
MODEL 8
REMARK VINA RESULT:    -5.676      6.071      8.323
REMARK INTER + INTRA:          -6.459
REMARK INTER:                  -6.350
REMARK INTRA:                  -0.109
REMARK UNBOUND:                -0.120
REMARK  Name = 1550473
REMARK  2 active torsions:
REMARK  status: ('A' for Active; 'I' for Inactive)
REMARK    1  A    between atoms: N_1  and  C_4
REMARK    2  A    between atoms: C_4  and  C_5
REMARK                            x       y       z     vdW  Elec       q    Type
REMARK                         _______ _______ _______ _____ _____    ______ ____
ROOT
ATOM      1  N   UNL     1      -2.500  -1.271  -4.331  0.00  0.00    -0.354 N 
ATOM      2  N   UNL     1      -0.326  -1.008  -3.576  0.00  0.00    -0.372 N 
ATOM      3  N   UNL     1      -1.838  -2.104  -2.243  0.00  0.00    -0.372 N 
ATOM      4  C   UNL     1      -1.570  -1.464  -3.386  0.00  0.00    +0.166 C 
ATOM      5  H   UNL     1      -2.241  -0.752  -5.162  0.00  0.00    +0.163 HD
ATOM      6  H   UNL     1       0.397  -1.141  -2.882  0.00  0.00    +0.159 HD
ATOM      7  H   UNL     1      -0.059  -0.529  -4.427  0.00  0.00    +0.159 HD
ATOM      8  H   UNL     1      -2.758  -2.468  -2.035  0.00  0.00    +0.159 HD
ATOM      9  H   UNL     1      -1.130  -2.238  -1.531  0.00  0.00    +0.159 HD
ENDROOT
BRANCH   1  10
ATOM     10  C   UNL     1      -3.870  -1.775  -4.245  0.00  0.00    +0.151 C 
BRANCH  10  11
ATOM     11  C   UNL     1      -4.525  -1.650  -5.593  0.00  0.00    -0.028 A 
ATOM     12  C   UNL     1      -5.353  -2.671  -6.080  0.00  0.00    +0.005 A 
ATOM     13  C   UNL     1      -4.325  -0.509  -6.385  0.00  0.00    +0.005 A 
ATOM     14  C   UNL     1      -5.986  -2.541  -7.318  0.00  0.00    +0.000 A 
ATOM     15  C   UNL     1      -4.958  -0.384  -7.622  0.00  0.00    +0.000 A 
ATOM     16  C   UNL     1      -5.790  -1.399  -8.087  0.00  0.00    +0.000 A 
ENDBRANCH  10  11
ENDBRANCH   1  10
TORSDOF 2
ENDMDL
MODEL 9
REMARK VINA RESULT:    -5.561     16.140     16.997
REMARK INTER + INTRA:          -6.331
REMARK INTER:                  -6.235
REMARK INTRA:                  -0.097
REMARK UNBOUND:                -0.120
REMARK  Name = 1550473
REMARK  2 active torsions:
REMARK  status: ('A' for Active; 'I' for Inactive)
REMARK    1  A    between atoms: N_1  and  C_4
REMARK    2  A    between atoms: C_4  and  C_5
REMARK                            x       y       z     vdW  Elec       q    Type
REMARK                         _______ _______ _______ _____ _____    ______ ____
ROOT
ATOM      1  N   UNL     1       9.753  10.847 -15.190  0.00  0.00    -0.354 N 
ATOM      2  N   UNL     1      11.318  12.521 -15.526  0.00  0.00    -0.372 N 
ATOM      3  N   UNL     1      11.541  11.143 -13.705  0.00  0.00    -0.372 N 
ATOM      4  C   UNL     1      10.861  11.492 -14.802  0.00  0.00    +0.166 C 
ATOM      5  H   UNL     1       9.266  11.180 -16.015  0.00  0.00    +0.163 HD
ATOM      6  H   UNL     1      12.154  13.024 -15.260  0.00  0.00    +0.159 HD
ATOM      7  H   UNL     1      10.856  12.822 -16.376  0.00  0.00    +0.159 HD
ATOM      8  H   UNL     1      11.245  10.379 -13.112  0.00  0.00    +0.159 HD
ATOM      9  H   UNL     1      12.373  11.642 -13.416  0.00  0.00    +0.159 HD
ENDROOT
BRANCH   1  10
ATOM     10  C   UNL     1       9.202   9.681 -14.503  0.00  0.00    +0.151 C 
BRANCH  10  11
ATOM     11  C   UNL     1       7.724   9.607 -14.768  0.00  0.00    -0.028 A 
ATOM     12  C   UNL     1       7.240   9.016 -15.944  0.00  0.00    +0.005 A 
ATOM     13  C   UNL     1       6.801  10.121 -13.844  0.00  0.00    +0.005 A 
ATOM     14  C   UNL     1       5.866   8.920 -16.177  0.00  0.00    +0.000 A 
ATOM     15  C   UNL     1       5.430  10.023 -14.081  0.00  0.00    +0.000 A 
ATOM     16  C   UNL     1       4.963   9.421 -15.246  0.00  0.00    +0.000 A 
ENDBRANCH  10  11
ENDBRANCH   1  10
TORSDOF 2
ENDMDL
