MODEL 1
REMARK VINA RESULT:    -5.492      0.000      0.000
REMARK INTER + INTRA:          -6.295
REMARK INTER:                  -6.134
REMARK INTRA:                  -0.160
REMARK UNBOUND:                -0.160
REMARK  Name = 1550473
REMARK  2 active torsions:
REMARK  status: ('A' for Active; 'I' for Inactive)
REMARK    1  A    between atoms: N_1  and  C_4
REMARK    2  A    between atoms: C_4  and  C_5
REMARK                            x       y       z     vdW  Elec       q    Type
REMARK                         _______ _______ _______ _____ _____    ______ ____
ROOT
ATOM      1  N   UNL     1       4.149   0.789 -13.493  0.00  0.00    -0.354 N 
ATOM      2  N   UNL     1       2.689   1.332 -15.208  0.00  0.00    -0.372 N 
ATOM      3  N   UNL     1       4.891   0.926 -15.712  0.00  0.00    -0.372 N 
ATOM      4  C   UNL     1       3.921   1.012 -14.794  0.00  0.00    +0.166 C 
ATOM      5  H   UNL     1       3.378   0.900 -12.844  0.00  0.00    +0.163 HD
ATOM      6  H   UNL     1       2.487   1.502 -16.184  0.00  0.00    +0.159 HD
ATOM      7  H   UNL     1       1.911   1.397 -14.563  0.00  0.00    +0.159 HD
ATOM      8  H   UNL     1       5.843   0.694 -15.464  0.00  0.00    +0.159 HD
ATOM      9  H   UNL     1       4.710   1.104 -16.692  0.00  0.00    +0.159 HD
ENDROOT
BRANCH   1  10
ATOM     10  C   UNL     1       5.442   0.383 -12.947  0.00  0.00    +0.151 C 
BRANCH  10  11
ATOM     11  C   UNL     1       5.370  -1.062 -12.537  0.00  0.00    -0.028 A 
ATOM     12  C   UNL     1       4.270  -1.543 -11.812  0.00  0.00    +0.005 A 
ATOM     13  C   UNL     1       6.396  -1.958 -12.876  0.00  0.00    +0.005 A 
ATOM     14  C   UNL     1       4.188  -2.892 -11.457  0.00  0.00    +0.000 A 
ATOM     15  C   UNL     1       6.311  -3.303 -12.520  0.00  0.00    +0.000 A 
ATOM     16  C   UNL     1       5.206  -3.771 -11.812  0.00  0.00    +0.000 A 
ENDBRANCH  10  11
ENDBRANCH   1  10
TORSDOF 2
ENDMDL
MODEL 2
REMARK VINA RESULT:    -5.093     44.050     44.952
REMARK INTER + INTRA:          -5.849
REMARK INTER:                  -5.709
REMARK INTRA:                  -0.139
REMARK UNBOUND:                -0.160
REMARK  Name = 1550473
REMARK  2 active torsions:
REMARK  status: ('A' for Active; 'I' for Inactive)
REMARK    1  A    between atoms: N_1  and  C_4
REMARK    2  A    between atoms: C_4  and  C_5
REMARK                            x       y       z     vdW  Elec       q    Type
REMARK                         _______ _______ _______ _____ _____    ______ ____
ROOT
ATOM      1  N   UNL     1      12.566   5.678  29.820  0.00  0.00    -0.354 N 
ATOM      2  N   UNL     1      11.302   7.174  28.585  0.00  0.00    -0.372 N 
ATOM      3  N   UNL     1      11.714   7.632  30.795  0.00  0.00    -0.372 N 
ATOM      4  C   UNL     1      11.869   6.820  29.744  0.00  0.00    +0.166 C 
ATOM      5  H   UNL     1      12.621   5.092  28.996  0.00  0.00    +0.163 HD
ATOM      6  H   UNL     1      10.773   8.031  28.496  0.00  0.00    +0.159 HD
ATOM      7  H   UNL     1      11.397   6.609  27.750  0.00  0.00    +0.159 HD
ATOM      8  H   UNL     1      12.112   7.418  31.700  0.00  0.00    +0.159 HD
ATOM      9  H   UNL     1      11.178   8.488  30.729  0.00  0.00    +0.159 HD
ENDROOT
BRANCH   1  10
ATOM     10  C   UNL     1      13.268   5.228  31.021  0.00  0.00    +0.151 C 
BRANCH  10  11
ATOM     11  C   UNL     1      13.023   3.756  31.209  0.00  0.00    -0.028 A 
ATOM     12  C   UNL     1      13.622   3.065  32.273  0.00  0.00    +0.005 A 
ATOM     13  C   UNL     1      12.190   3.047  30.331  0.00  0.00    +0.005 A 
ATOM     14  C   UNL     1      13.372   1.704  32.466  0.00  0.00    +0.000 A 
ATOM     15  C   UNL     1      11.943   1.688  30.526  0.00  0.00    +0.000 A 
ATOM     16  C   UNL     1      12.532   1.018  31.595  0.00  0.00    +0.000 A 
ENDBRANCH  10  11
ENDBRANCH   1  10
TORSDOF 2
ENDMDL
MODEL 3
REMARK VINA RESULT:    -4.997      0.907      1.968
REMARK INTER + INTRA:          -5.742
REMARK INTER:                  -5.588
REMARK INTRA:                  -0.154
REMARK UNBOUND:                -0.160
REMARK  Name = 1550473
REMARK  2 active torsions:
REMARK  status: ('A' for Active; 'I' for Inactive)
REMARK    1  A    between atoms: N_1  and  C_4
REMARK    2  A    between atoms: C_4  and  C_5
REMARK                            x       y       z     vdW  Elec       q    Type
REMARK                         _______ _______ _______ _____ _____    ______ ____
ROOT
ATOM      1  N   UNL     1       5.954   0.757 -14.326  0.00  0.00    -0.354 N 
ATOM      2  N   UNL     1       5.810   1.063 -16.617  0.00  0.00    -0.372 N 
ATOM      3  N   UNL     1       3.875   0.857 -15.401  0.00  0.00    -0.372 N 
ATOM      4  C   UNL     1       5.211   0.890 -15.432  0.00  0.00    +0.166 C 
ATOM      5  H   UNL     1       6.964   0.761 -14.420  0.00  0.00    +0.163 HD
ATOM      6  H   UNL     1       5.275   1.169 -17.468  0.00  0.00    +0.159 HD
ATOM      7  H   UNL     1       6.817   1.112 -16.702  0.00  0.00    +0.159 HD
ATOM      8  H   UNL     1       3.362   0.724 -14.539  0.00  0.00    +0.159 HD
ATOM      9  H   UNL     1       3.322   0.950 -16.244  0.00  0.00    +0.159 HD
ENDROOT
BRANCH   1  10
ATOM     10  C   UNL     1       5.400   0.619 -12.980  0.00  0.00    +0.151 C 
BRANCH  10  11
ATOM     11  C   UNL     1       5.362  -0.839 -12.612  0.00  0.00    -0.028 A 
ATOM     12  C   UNL     1       6.370  -1.710 -13.051  0.00  0.00    +0.005 A 
ATOM     13  C   UNL     1       4.324  -1.354 -11.821  0.00  0.00    +0.005 A 
ATOM     14  C   UNL     1       6.352  -3.058 -12.685  0.00  0.00    +0.000 A 
ATOM     15  C   UNL     1       4.309  -2.701 -11.458  0.00  0.00    +0.000 A 
ATOM     16  C   UNL     1       5.324  -3.552 -11.888  0.00  0.00    +0.000 A 
ENDBRANCH  10  11
ENDBRANCH   1  10
TORSDOF 2
ENDMDL
MODEL 4
REMARK VINA RESULT:    -4.990     44.321     45.279
REMARK INTER + INTRA:          -5.733
REMARK INTER:                  -5.555
REMARK INTRA:                  -0.179
REMARK UNBOUND:                -0.160
REMARK  Name = 1550473
REMARK  2 active torsions:
REMARK  status: ('A' for Active; 'I' for Inactive)
REMARK    1  A    between atoms: N_1  and  C_4
REMARK    2  A    between atoms: C_4  and  C_5
REMARK                            x       y       z     vdW  Elec       q    Type
REMARK                         _______ _______ _______ _____ _____    ______ ____
ROOT
ATOM      1  N   UNL     1      14.290   2.899  29.912  0.00  0.00    -0.354 N 
ATOM      2  N   UNL     1      16.117   3.901  28.901  0.00  0.00    -0.372 N 
ATOM      3  N   UNL     1      16.014   3.837  31.193  0.00  0.00    -0.372 N 
ATOM      4  C   UNL     1      15.462   3.540  30.012  0.00  0.00    +0.166 C 
ATOM      5  H   UNL     1      13.911   2.729  28.988  0.00  0.00    +0.163 HD
ATOM      6  H   UNL     1      17.005   4.383  28.945  0.00  0.00    +0.159 HD
ATOM      7  H   UNL     1      15.758   3.690  27.978  0.00  0.00    +0.159 HD
ATOM      8  H   UNL     1      15.567   3.597  32.068  0.00  0.00    +0.159 HD
ATOM      9  H   UNL     1      16.896   4.329  31.257  0.00  0.00    +0.159 HD
ENDROOT
BRANCH   1  10
ATOM     10  C   UNL     1      13.524   2.414  31.059  0.00  0.00    +0.151 C 
BRANCH  10  11
ATOM     11  C   UNL     1      12.345   3.322  31.281  0.00  0.00    -0.028 A 
ATOM     12  C   UNL     1      11.161   3.143  30.551  0.00  0.00    +0.005 A 
ATOM     13  C   UNL     1      12.405   4.360  32.224  0.00  0.00    +0.005 A 
ATOM     14  C   UNL     1      10.056   3.967  30.778  0.00  0.00    +0.000 A 
ATOM     15  C   UNL     1      11.300   5.181  32.447  0.00  0.00    +0.000 A 
ATOM     16  C   UNL     1      10.125   4.983  31.726  0.00  0.00    +0.000 A 
ENDBRANCH  10  11
ENDBRANCH   1  10
TORSDOF 2
ENDMDL
MODEL 5
REMARK VINA RESULT:    -4.878     12.084     13.140
REMARK INTER + INTRA:          -5.608
REMARK INTER:                  -5.467
REMARK INTRA:                  -0.142
REMARK UNBOUND:                -0.160
REMARK  Name = 1550473
REMARK  2 active torsions:
REMARK  status: ('A' for Active; 'I' for Inactive)
REMARK    1  A    between atoms: N_1  and  C_4
REMARK    2  A    between atoms: C_4  and  C_5
REMARK                            x       y       z     vdW  Elec       q    Type
REMARK                         _______ _______ _______ _____ _____    ______ ____
ROOT
ATOM      1  N   UNL     1      -4.309   4.854 -17.649  0.00  0.00    -0.354 N 
ATOM      2  N   UNL     1      -4.430   5.279 -15.376  0.00  0.00    -0.372 N 
ATOM      3  N   UNL     1      -5.430   6.743 -16.832  0.00  0.00    -0.372 N 
ATOM      4  C   UNL     1      -4.724   5.625 -16.635  0.00  0.00    +0.166 C 
ATOM      5  H   UNL     1      -3.752   4.035 -17.435  0.00  0.00    +0.163 HD
ATOM      6  H   UNL     1      -4.732   5.839 -14.590  0.00  0.00    +0.159 HD
ATOM      7  H   UNL     1      -3.912   4.435 -15.162  0.00  0.00    +0.159 HD
ATOM      8  H   UNL     1      -5.679   7.063 -17.759  0.00  0.00    +0.159 HD
ATOM      9  H   UNL     1      -5.731   7.323 -16.059  0.00  0.00    +0.159 HD
ENDROOT
BRANCH   1  10
ATOM     10  C   UNL     1      -4.622   5.113 -19.054  0.00  0.00    +0.151 C 
BRANCH  10  11
ATOM     11  C   UNL     1      -5.341   3.922 -19.625  0.00  0.00    -0.028 A 
ATOM     12  C   UNL     1      -6.309   4.088 -20.626  0.00  0.00    +0.005 A 
ATOM     13  C   UNL     1      -5.055   2.625 -19.173  0.00  0.00    +0.005 A 
ATOM     14  C   UNL     1      -6.956   2.980 -21.178  0.00  0.00    +0.000 A 
ATOM     15  C   UNL     1      -5.703   1.521 -19.726  0.00  0.00    +0.000 A 
ATOM     16  C   UNL     1      -6.652   1.698 -20.730  0.00  0.00    +0.000 A 
ENDBRANCH  10  11
ENDBRANCH   1  10
TORSDOF 2
ENDMDL
MODEL 6
REMARK VINA RESULT:    -4.857     42.699     43.927
REMARK INTER + INTRA:          -5.585
REMARK INTER:                  -5.455
REMARK INTRA:                  -0.130
REMARK UNBOUND:                -0.160
REMARK  Name = 1550473
REMARK  2 active torsions:
REMARK  status: ('A' for Active; 'I' for Inactive)
REMARK    1  A    between atoms: N_1  and  C_4
REMARK    2  A    between atoms: C_4  and  C_5
REMARK                            x       y       z     vdW  Elec       q    Type
REMARK                         _______ _______ _______ _____ _____    ______ ____
ROOT
ATOM      1  N   UNL     1       2.498  -1.976  31.768  0.00  0.00    -0.354 N 
ATOM      2  N   UNL     1       0.440  -2.912  32.274  0.00  0.00    -0.372 N 
ATOM      3  N   UNL     1       2.010  -4.198  31.203  0.00  0.00    -0.372 N 
ATOM      4  C   UNL     1       1.664  -3.024  31.744  0.00  0.00    +0.166 C 
ATOM      5  H   UNL     1       2.164  -1.105  32.165  0.00  0.00    +0.163 HD
ATOM      6  H   UNL     1      -0.209  -3.687  32.273  0.00  0.00    +0.159 HD
ATOM      7  H   UNL     1       0.126  -2.054  32.712  0.00  0.00    +0.159 HD
ATOM      8  H   UNL     1       2.917  -4.346  30.781  0.00  0.00    +0.159 HD
ATOM      9  H   UNL     1       1.370  -4.981  31.182  0.00  0.00    +0.159 HD
ENDROOT
BRANCH   1  10
ATOM     10  C   UNL     1       3.870  -2.011  31.266  0.00  0.00    +0.151 C 
BRANCH  10  11
ATOM     11  C   UNL     1       4.092  -0.831  30.360  0.00  0.00    -0.028 A 
ATOM     12  C   UNL     1       3.538   0.419  30.671  0.00  0.00    +0.005 A 
ATOM     13  C   UNL     1       4.859  -0.956  29.192  0.00  0.00    +0.005 A 
ATOM     14  C   UNL     1       3.768   1.523  29.846  0.00  0.00    +0.000 A 
ATOM     15  C   UNL     1       5.086   0.148  28.370  0.00  0.00    +0.000 A 
ATOM     16  C   UNL     1       4.543   1.387  28.698  0.00  0.00    +0.000 A 
ENDBRANCH  10  11
ENDBRANCH   1  10
TORSDOF 2
ENDMDL
MODEL 7
REMARK VINA RESULT:    -4.818     25.312     25.985
REMARK INTER + INTRA:          -5.542
REMARK INTER:                  -5.441
REMARK INTRA:                  -0.101
REMARK UNBOUND:                -0.160
REMARK  Name = 1550473
REMARK  2 active torsions:
REMARK  status: ('A' for Active; 'I' for Inactive)
REMARK    1  A    between atoms: N_1  and  C_4
REMARK    2  A    between atoms: C_4  and  C_5
REMARK                            x       y       z     vdW  Elec       q    Type
REMARK                         _______ _______ _______ _____ _____    ______ ____
ROOT
ATOM      1  N   UNL     1      -2.298   5.513  11.186  0.00  0.00    -0.354 N 
ATOM      2  N   UNL     1      -1.398   5.523  13.320  0.00  0.00    -0.372 N 
ATOM      3  N   UNL     1       0.022   5.489  11.517  0.00  0.00    -0.372 N 
ATOM      4  C   UNL     1      -1.228   5.508  11.992  0.00  0.00    +0.166 C 
ATOM      5  H   UNL     1      -3.219   5.498  11.608  0.00  0.00    +0.163 HD
ATOM      6  H   UNL     1      -0.610   5.523  13.953  0.00  0.00    +0.159 HD
ATOM      7  H   UNL     1      -2.319   5.554  13.739  0.00  0.00    +0.159 HD
ATOM      8  H   UNL     1       0.218   5.471  10.525  0.00  0.00    +0.159 HD
ATOM      9  H   UNL     1       0.824   5.477  12.136  0.00  0.00    +0.159 HD
ENDROOT
BRANCH   1  10
ATOM     10  C   UNL     1      -2.221   5.552   9.726  0.00  0.00    +0.151 C 
BRANCH  10  11
ATOM     11  C   UNL     1      -3.380   6.351   9.195  0.00  0.00    -0.028 A 
ATOM     12  C   UNL     1      -3.198   7.677   8.776  0.00  0.00    +0.005 A 
ATOM     13  C   UNL     1      -4.661   5.785   9.103  0.00  0.00    +0.005 A 
ATOM     14  C   UNL     1      -4.267   8.409   8.254  0.00  0.00    +0.000 A 
ATOM     15  C   UNL     1      -5.726   6.519   8.582  0.00  0.00    +0.000 A 
ATOM     16  C   UNL     1      -5.528   7.831   8.156  0.00  0.00    +0.000 A 
ENDBRANCH  10  11
ENDBRANCH   1  10
TORSDOF 2
ENDMDL
MODEL 8
REMARK VINA RESULT:    -4.730     44.152     45.070
REMARK INTER + INTRA:          -5.443
REMARK INTER:                  -5.316
REMARK INTRA:                  -0.127
REMARK UNBOUND:                -0.160
REMARK  Name = 1550473
REMARK  2 active torsions:
REMARK  status: ('A' for Active; 'I' for Inactive)
REMARK    1  A    between atoms: N_1  and  C_4
REMARK    2  A    between atoms: C_4  and  C_5
REMARK                            x       y       z     vdW  Elec       q    Type
REMARK                         _______ _______ _______ _____ _____    ______ ____
ROOT
ATOM      1  N   UNL     1      12.317   1.514  29.986  0.00  0.00    -0.354 N 
ATOM      2  N   UNL     1      12.273  -0.801  30.021  0.00  0.00    -0.372 N 
ATOM      3  N   UNL     1      14.209   0.280  30.609  0.00  0.00    -0.372 N 
ATOM      4  C   UNL     1      12.936   0.347  30.206  0.00  0.00    +0.166 C 
ATOM      5  H   UNL     1      11.360   1.496  29.652  0.00  0.00    +0.163 HD
ATOM      6  H   UNL     1      12.712  -1.697  30.183  0.00  0.00    +0.159 HD
ATOM      7  H   UNL     1      11.302  -0.815  29.732  0.00  0.00    +0.159 HD
ATOM      8  H   UNL     1      14.767   1.110  30.760  0.00  0.00    +0.159 HD
ATOM      9  H   UNL     1      14.670  -0.607  30.764  0.00  0.00    +0.159 HD
ENDROOT
BRANCH   1  10
ATOM     10  C   UNL     1      12.933   2.821  30.209  0.00  0.00    +0.151 C 
BRANCH  10  11
ATOM     11  C   UNL     1      11.942   3.720  30.895  0.00  0.00    -0.028 A 
ATOM     12  C   UNL     1      10.570   3.600  30.632  0.00  0.00    +0.005 A 
ATOM     13  C   UNL     1      12.369   4.691  31.814  0.00  0.00    +0.005 A 
ATOM     14  C   UNL     1       9.647   4.415  31.292  0.00  0.00    +0.000 A 
ATOM     15  C   UNL     1      11.444   5.503  32.470  0.00  0.00    +0.000 A 
ATOM     16  C   UNL     1      10.083   5.363  32.211  0.00  0.00    +0.000 A 
ENDBRANCH  10  11
ENDBRANCH   1  10
TORSDOF 2
ENDMDL
MODEL 9
REMARK VINA RESULT:    -4.672     44.459     45.415
REMARK INTER + INTRA:          -5.379
REMARK INTER:                  -5.280
REMARK INTRA:                  -0.099
REMARK UNBOUND:                -0.160
REMARK  Name = 1550473
REMARK  2 active torsions:
REMARK  status: ('A' for Active; 'I' for Inactive)
REMARK    1  A    between atoms: N_1  and  C_4
REMARK    2  A    between atoms: C_4  and  C_5
REMARK                            x       y       z     vdW  Elec       q    Type
REMARK                         _______ _______ _______ _____ _____    ______ ____
ROOT
ATOM      1  N   UNL     1      14.480   4.198  30.986  0.00  0.00    -0.354 N 
ATOM      2  N   UNL     1      16.367   2.875  31.219  0.00  0.00    -0.372 N 
ATOM      3  N   UNL     1      15.906   3.797  29.170  0.00  0.00    -0.372 N 
ATOM      4  C   UNL     1      15.572   3.633  30.454  0.00  0.00    +0.166 C 
ATOM      5  H   UNL     1      14.266   4.010  31.959  0.00  0.00    +0.163 HD
ATOM      6  H   UNL     1      17.199   2.438  30.847  0.00  0.00    +0.159 HD
ATOM      7  H   UNL     1      16.175   2.726  32.203  0.00  0.00    +0.159 HD
ATOM      8  H   UNL     1      15.345   4.352  28.537  0.00  0.00    +0.159 HD
ATOM      9  H   UNL     1      16.729   3.359  28.775  0.00  0.00    +0.159 HD
ENDROOT
BRANCH   1  10
ATOM     10  C   UNL     1      13.578   5.084  30.252  0.00  0.00    +0.151 C 
BRANCH  10  11
ATOM     11  C   UNL     1      12.213   5.025  30.880  0.00  0.00    -0.028 A 
ATOM     12  C   UNL     1      11.834   5.965  31.849  0.00  0.00    +0.005 A 
ATOM     13  C   UNL     1      11.292   4.034  30.505  0.00  0.00    +0.005 A 
ATOM     14  C   UNL     1      10.555   5.928  32.411  0.00  0.00    +0.000 A 
ATOM     15  C   UNL     1      10.017   4.001  31.069  0.00  0.00    +0.000 A 
ATOM     16  C   UNL     1       9.648   4.949  32.020  0.00  0.00    +0.000 A 
ENDBRANCH  10  11
ENDBRANCH   1  10
TORSDOF 2
ENDMDL
