MODEL 1
REMARK VINA RESULT:    -5.606      0.000      0.000
REMARK INTER + INTRA:          -6.386
REMARK INTER:                  -6.262
REMARK INTRA:                  -0.124
REMARK UNBOUND:                -0.124
REMARK  Name = 1550473
REMARK  2 active torsions:
REMARK  status: ('A' for Active; 'I' for Inactive)
REMARK    1  A    between atoms: N_1  and  C_4
REMARK    2  A    between atoms: C_4  and  C_5
REMARK                            x       y       z     vdW  Elec       q    Type
REMARK                         _______ _______ _______ _____ _____    ______ ____
ROOT
ATOM      1  N   UNL     1      -9.659  -0.380   3.466  0.00  0.00    -0.354 N 
ATOM      2  N   UNL     1     -10.707  -2.251   2.591  0.00  0.00    -0.372 N 
ATOM      3  N   UNL     1     -10.622  -0.335   1.330  0.00  0.00    -0.372 N 
ATOM      4  C   UNL     1     -10.323  -0.974   2.466  0.00  0.00    +0.166 C 
ATOM      5  H   UNL     1      -9.489  -0.910   4.313  0.00  0.00    +0.163 HD
ATOM      6  H   UNL     1     -11.207  -2.727   1.852  0.00  0.00    +0.159 HD
ATOM      7  H   UNL     1     -10.496  -2.792   3.421  0.00  0.00    +0.159 HD
ATOM      8  H   UNL     1     -10.366   0.631   1.176  0.00  0.00    +0.159 HD
ATOM      9  H   UNL     1     -11.132  -0.791   0.584  0.00  0.00    +0.159 HD
ENDROOT
BRANCH   1  10
ATOM     10  C   UNL     1      -9.149   0.989   3.409  0.00  0.00    +0.151 C 
BRANCH  10  11
ATOM     11  C   UNL     1      -9.769   1.791   4.521  0.00  0.00    -0.028 A 
ATOM     12  C   UNL     1     -10.945   1.351   5.145  0.00  0.00    +0.005 A 
ATOM     13  C   UNL     1      -9.181   2.988   4.957  0.00  0.00    +0.005 A 
ATOM     14  C   UNL     1     -11.504   2.079   6.198  0.00  0.00    +0.000 A 
ATOM     15  C   UNL     1      -9.743   3.713   6.008  0.00  0.00    +0.000 A 
ATOM     16  C   UNL     1     -10.903   3.257   6.630  0.00  0.00    +0.000 A 
ENDBRANCH  10  11
ENDBRANCH   1  10
TORSDOF 2
ENDMDL
MODEL 2
REMARK VINA RESULT:    -5.598     23.930     25.009
REMARK INTER + INTRA:          -6.377
REMARK INTER:                  -6.212
REMARK INTRA:                  -0.166
REMARK UNBOUND:                -0.124
REMARK  Name = 1550473
REMARK  2 active torsions:
REMARK  status: ('A' for Active; 'I' for Inactive)
REMARK    1  A    between atoms: N_1  and  C_4
REMARK    2  A    between atoms: C_4  and  C_5
REMARK                            x       y       z     vdW  Elec       q    Type
REMARK                         _______ _______ _______ _____ _____    ______ ____
ROOT
ATOM      1  N   UNL     1      14.175   3.078   4.018  0.00  0.00    -0.354 N 
ATOM      2  N   UNL     1      13.977   0.895   3.272  0.00  0.00    -0.372 N 
ATOM      3  N   UNL     1      15.928   2.032   2.868  0.00  0.00    -0.372 N 
ATOM      4  C   UNL     1      14.697   2.017   3.390  0.00  0.00    +0.166 C 
ATOM      5  H   UNL     1      13.225   3.013   4.365  0.00  0.00    +0.163 HD
ATOM      6  H   UNL     1      14.346   0.076   2.807  0.00  0.00    +0.159 HD
ATOM      7  H   UNL     1      13.045   0.817   3.661  0.00  0.00    +0.159 HD
ATOM      8  H   UNL     1      16.521   2.850   2.918  0.00  0.00    +0.159 HD
ATOM      9  H   UNL     1      16.311   1.227   2.388  0.00  0.00    +0.159 HD
ENDROOT
BRANCH   1  10
ATOM     10  C   UNL     1      14.895   4.330   4.247  0.00  0.00    +0.151 C 
BRANCH  10  11
ATOM     11  C   UNL     1      14.433   5.353   3.246  0.00  0.00    -0.028 A 
ATOM     12  C   UNL     1      15.339   6.271   2.696  0.00  0.00    +0.005 A 
ATOM     13  C   UNL     1      13.091   5.406   2.840  0.00  0.00    +0.005 A 
ATOM     14  C   UNL     1      14.916   7.202   1.744  0.00  0.00    +0.000 A 
ATOM     15  C   UNL     1      12.672   6.337   1.890  0.00  0.00    +0.000 A 
ATOM     16  C   UNL     1      13.586   7.233   1.340  0.00  0.00    +0.000 A 
ENDBRANCH  10  11
ENDBRANCH   1  10
TORSDOF 2
ENDMDL
MODEL 3
REMARK VINA RESULT:    -5.494      5.654      5.949
REMARK INTER + INTRA:          -6.261
REMARK INTER:                  -6.139
REMARK INTRA:                  -0.122
REMARK UNBOUND:                -0.124
REMARK  Name = 1550473
REMARK  2 active torsions:
REMARK  status: ('A' for Active; 'I' for Inactive)
REMARK    1  A    between atoms: N_1  and  C_4
REMARK    2  A    between atoms: C_4  and  C_5
REMARK                            x       y       z     vdW  Elec       q    Type
REMARK                         _______ _______ _______ _____ _____    ______ ____
ROOT
ATOM      1  N   UNL     1      -8.062  -0.657   6.469  0.00  0.00    -0.354 N 
ATOM      2  N   UNL     1      -9.967   0.052   5.358  0.00  0.00    -0.372 N 
ATOM      3  N   UNL     1      -7.915   0.479   4.425  0.00  0.00    -0.372 N 
ATOM      4  C   UNL     1      -8.633  -0.046   5.423  0.00  0.00    +0.166 C 
ATOM      5  H   UNL     1      -8.661  -1.007   7.208  0.00  0.00    +0.163 HD
ATOM      6  H   UNL     1     -10.426   0.504   4.579  0.00  0.00    +0.159 HD
ATOM      7  H   UNL     1     -10.565  -0.340   6.076  0.00  0.00    +0.159 HD
ATOM      8  H   UNL     1      -6.904   0.443   4.417  0.00  0.00    +0.159 HD
ATOM      9  H   UNL     1      -8.356   0.946   3.643  0.00  0.00    +0.159 HD
ENDROOT
BRANCH   1  10
ATOM     10  C   UNL     1      -6.622  -0.863   6.610  0.00  0.00    +0.151 C 
BRANCH  10  11
ATOM     11  C   UNL     1      -6.326  -1.326   8.009  0.00  0.00    -0.028 A 
ATOM     12  C   UNL     1      -7.358  -1.788   8.840  0.00  0.00    +0.005 A 
ATOM     13  C   UNL     1      -5.015  -1.311   8.509  0.00  0.00    +0.005 A 
ATOM     14  C   UNL     1      -7.079  -2.246  10.130  0.00  0.00    +0.000 A 
ATOM     15  C   UNL     1      -4.741  -1.768   9.798  0.00  0.00    +0.000 A 
ATOM     16  C   UNL     1      -5.773  -2.238  10.607  0.00  0.00    +0.000 A 
ENDBRANCH  10  11
ENDBRANCH   1  10
TORSDOF 2
ENDMDL
MODEL 4
REMARK VINA RESULT:    -5.492      6.788      7.404
REMARK INTER + INTRA:          -6.259
REMARK INTER:                  -6.124
REMARK INTRA:                  -0.135
REMARK UNBOUND:                -0.124
REMARK  Name = 1550473
REMARK  2 active torsions:
REMARK  status: ('A' for Active; 'I' for Inactive)
REMARK    1  A    between atoms: N_1  and  C_4
REMARK    2  A    between atoms: C_4  and  C_5
REMARK                            x       y       z     vdW  Elec       q    Type
REMARK                         _______ _______ _______ _____ _____    ______ ____
ROOT
ATOM      1  N   UNL     1      -9.332  -1.360   8.872  0.00  0.00    -0.354 N 
ATOM      2  N   UNL     1     -11.295  -1.125  10.079  0.00  0.00    -0.372 N 
ATOM      3  N   UNL     1     -10.889  -3.108   8.997  0.00  0.00    -0.372 N 
ATOM      4  C   UNL     1     -10.493  -1.869   9.307  0.00  0.00    +0.166 C 
ATOM      5  H   UNL     1      -9.103  -0.404   9.117  0.00  0.00    +0.163 HD
ATOM      6  H   UNL     1     -12.175  -1.483  10.425  0.00  0.00    +0.159 HD
ATOM      7  H   UNL     1     -11.042  -0.186  10.360  0.00  0.00    +0.159 HD
ATOM      8  H   UNL     1     -10.332  -3.717   8.413  0.00  0.00    +0.159 HD
ATOM      9  H   UNL     1     -11.772  -3.479   9.323  0.00  0.00    +0.159 HD
ENDROOT
BRANCH   1  10
ATOM     10  C   UNL     1      -8.362  -2.105   8.071  0.00  0.00    +0.151 C 
BRANCH  10  11
ATOM     11  C   UNL     1      -7.032  -2.092   8.772  0.00  0.00    -0.028 A 
ATOM     12  C   UNL     1      -5.846  -1.913   8.046  0.00  0.00    +0.005 A 
ATOM     13  C   UNL     1      -6.952  -2.251  10.164  0.00  0.00    +0.005 A 
ATOM     14  C   UNL     1      -4.612  -1.870   8.700  0.00  0.00    +0.000 A 
ATOM     15  C   UNL     1      -5.718  -2.209  10.814  0.00  0.00    +0.000 A 
ATOM     16  C   UNL     1      -4.549  -2.016  10.082  0.00  0.00    +0.000 A 
ENDBRANCH  10  11
ENDBRANCH   1  10
TORSDOF 2
ENDMDL
MODEL 5
REMARK VINA RESULT:    -5.445      2.027      2.823
REMARK INTER + INTRA:          -6.206
REMARK INTER:                  -6.143
REMARK INTRA:                  -0.063
REMARK UNBOUND:                -0.124
REMARK  Name = 1550473
REMARK  2 active torsions:
REMARK  status: ('A' for Active; 'I' for Inactive)
REMARK    1  A    between atoms: N_1  and  C_4
REMARK    2  A    between atoms: C_4  and  C_5
REMARK                            x       y       z     vdW  Elec       q    Type
REMARK                         _______ _______ _______ _____ _____    ______ ____
ROOT
ATOM      1  N   UNL     1      -8.192   1.180   3.515  0.00  0.00    -0.354 N 
ATOM      2  N   UNL     1      -5.896   1.284   3.224  0.00  0.00    -0.372 N 
ATOM      3  N   UNL     1      -6.741   0.010   4.936  0.00  0.00    -0.372 N 
ATOM      4  C   UNL     1      -6.958   0.823   3.896  0.00  0.00    +0.166 C 
ATOM      5  H   UNL     1      -8.288   1.823   2.738  0.00  0.00    +0.163 HD
ATOM      6  H   UNL     1      -4.953   1.029   3.486  0.00  0.00    +0.159 HD
ATOM      7  H   UNL     1      -5.997   1.890   2.419  0.00  0.00    +0.159 HD
ATOM      8  H   UNL     1      -7.499  -0.367   5.488  0.00  0.00    +0.159 HD
ATOM      9  H   UNL     1      -5.804  -0.247   5.221  0.00  0.00    +0.159 HD
ENDROOT
BRANCH   1  10
ATOM     10  C   UNL     1      -9.416   0.690   4.146  0.00  0.00    +0.151 C 
BRANCH  10  11
ATOM     11  C   UNL     1      -9.971   1.764   5.040  0.00  0.00    -0.028 A 
ATOM     12  C   UNL     1     -11.176   1.564   5.730  0.00  0.00    +0.005 A 
ATOM     13  C   UNL     1      -9.295   2.982   5.207  0.00  0.00    +0.005 A 
ATOM     14  C   UNL     1     -11.677   2.550   6.584  0.00  0.00    +0.000 A 
ATOM     15  C   UNL     1      -9.798   3.964   6.060  0.00  0.00    +0.000 A 
ATOM     16  C   UNL     1     -10.988   3.746   6.750  0.00  0.00    +0.000 A 
ENDBRANCH  10  11
ENDBRANCH   1  10
TORSDOF 2
ENDMDL
MODEL 6
REMARK VINA RESULT:    -5.372      8.482      9.446
REMARK INTER + INTRA:          -6.125
REMARK INTER:                  -5.989
REMARK INTRA:                  -0.136
REMARK UNBOUND:                -0.124
REMARK  Name = 1550473
REMARK  2 active torsions:
REMARK  status: ('A' for Active; 'I' for Inactive)
REMARK    1  A    between atoms: N_1  and  C_4
REMARK    2  A    between atoms: C_4  and  C_5
REMARK                            x       y       z     vdW  Elec       q    Type
REMARK                         _______ _______ _______ _____ _____    ______ ____
ROOT
ATOM      1  N   UNL     1     -13.721  -7.966   8.894  0.00  0.00    -0.354 N 
ATOM      2  N   UNL     1     -13.131 -10.096   8.201  0.00  0.00    -0.372 N 
ATOM      3  N   UNL     1     -14.814  -8.995   7.095  0.00  0.00    -0.372 N 
ATOM      4  C   UNL     1     -13.895  -9.005   8.066  0.00  0.00    +0.166 C 
ATOM      5  H   UNL     1     -13.028  -8.047   9.629  0.00  0.00    +0.163 HD
ATOM      6  H   UNL     1     -13.237 -10.893   7.589  0.00  0.00    +0.159 HD
ATOM      7  H   UNL     1     -12.408 -10.156   8.908  0.00  0.00    +0.159 HD
ATOM      8  H   UNL     1     -15.426  -8.205   6.944  0.00  0.00    +0.159 HD
ATOM      9  H   UNL     1     -14.942  -9.789   6.479  0.00  0.00    +0.159 HD
ENDROOT
BRANCH   1  10
ATOM     10  C   UNL     1     -14.464  -6.710   8.798  0.00  0.00    +0.151 C 
BRANCH  10  11
ATOM     11  C   UNL     1     -13.523  -5.563   9.043  0.00  0.00    -0.028 A 
ATOM     12  C   UNL     1     -13.989  -4.370   9.614  0.00  0.00    +0.005 A 
ATOM     13  C   UNL     1     -12.163  -5.665   8.712  0.00  0.00    +0.005 A 
ATOM     14  C   UNL     1     -13.109  -3.315   9.870  0.00  0.00    +0.000 A 
ATOM     15  C   UNL     1     -11.288  -4.610   8.968  0.00  0.00    +0.000 A 
ATOM     16  C   UNL     1     -11.761  -3.436   9.549  0.00  0.00    +0.000 A 
ENDBRANCH  10  11
ENDBRANCH   1  10
TORSDOF 2
ENDMDL
MODEL 7
REMARK VINA RESULT:    -5.225      5.158      6.785
REMARK INTER + INTRA:          -5.961
REMARK INTER:                  -5.866
REMARK INTRA:                  -0.094
REMARK UNBOUND:                -0.124
REMARK  Name = 1550473
REMARK  2 active torsions:
REMARK  status: ('A' for Active; 'I' for Inactive)
REMARK    1  A    between atoms: N_1  and  C_4
REMARK    2  A    between atoms: C_4  and  C_5
REMARK                            x       y       z     vdW  Elec       q    Type
REMARK                         _______ _______ _______ _____ _____    ______ ____
ROOT
ATOM      1  N   UNL     1     -10.856   5.428   8.757  0.00  0.00    -0.354 N 
ATOM      2  N   UNL     1     -10.436   6.451  10.792  0.00  0.00    -0.372 N 
ATOM      3  N   UNL     1     -11.774   7.523   9.266  0.00  0.00    -0.372 N 
ATOM      4  C   UNL     1     -11.026   6.462   9.590  0.00  0.00    +0.166 C 
ATOM      5  H   UNL     1     -10.252   4.668   9.050  0.00  0.00    +0.163 HD
ATOM      6  H   UNL     1     -10.550   7.216  11.443  0.00  0.00    +0.159 HD
ATOM      7  H   UNL     1      -9.871   5.669  11.100  0.00  0.00    +0.159 HD
ATOM      8  H   UNL     1     -12.241   7.595   8.373  0.00  0.00    +0.159 HD
ATOM      9  H   UNL     1     -11.890   8.303   9.901  0.00  0.00    +0.159 HD
ENDROOT
BRANCH   1  10
ATOM     10  C   UNL     1     -11.498   5.318   7.448  0.00  0.00    +0.151 C 
BRANCH  10  11
ATOM     11  C   UNL     1     -10.809   4.244   6.651  0.00  0.00    -0.028 A 
ATOM     12  C   UNL     1     -11.333   2.945   6.605  0.00  0.00    +0.005 A 
ATOM     13  C   UNL     1      -9.634   4.522   5.936  0.00  0.00    +0.005 A 
ATOM     14  C   UNL     1     -10.710   1.955   5.841  0.00  0.00    +0.000 A 
ATOM     15  C   UNL     1      -9.014   3.531   5.175  0.00  0.00    +0.000 A 
ATOM     16  C   UNL     1      -9.554   2.248   5.126  0.00  0.00    +0.000 A 
ENDBRANCH  10  11
ENDBRANCH   1  10
TORSDOF 2
ENDMDL
MODEL 8
REMARK VINA RESULT:    -5.086      9.228     10.417
REMARK INTER + INTRA:          -5.805
REMARK INTER:                  -5.626
REMARK INTRA:                  -0.179
REMARK UNBOUND:                -0.124
REMARK  Name = 1550473
REMARK  2 active torsions:
REMARK  status: ('A' for Active; 'I' for Inactive)
REMARK    1  A    between atoms: N_1  and  C_4
REMARK    2  A    between atoms: C_4  and  C_5
REMARK                            x       y       z     vdW  Elec       q    Type
REMARK                         _______ _______ _______ _____ _____    ______ ____
ROOT
ATOM      1  N   UNL     1     -12.319   8.107  10.952  0.00  0.00    -0.354 N 
ATOM      2  N   UNL     1     -12.981   9.526  12.659  0.00  0.00    -0.372 N 
ATOM      3  N   UNL     1     -10.740   9.272  12.235  0.00  0.00    -0.372 N 
ATOM      4  C   UNL     1     -12.006   8.959  11.938  0.00  0.00    +0.166 C 
ATOM      5  H   UNL     1     -13.296   7.889  10.797  0.00  0.00    +0.163 HD
ATOM      6  H   UNL     1     -12.776  10.175  13.407  0.00  0.00    +0.159 HD
ATOM      7  H   UNL     1     -13.959   9.341  12.472  0.00  0.00    +0.159 HD
ATOM      8  H   UNL     1      -9.958   8.874  11.732  0.00  0.00    +0.159 HD
ATOM      9  H   UNL     1     -10.515   9.910  12.988  0.00  0.00    +0.159 HD
ENDROOT
BRANCH   1  10
ATOM     10  C   UNL     1     -11.335   7.478  10.073  0.00  0.00    +0.151 C 
BRANCH  10  11
ATOM     11  C   UNL     1     -11.221   8.282   8.808  0.00  0.00    -0.028 A 
ATOM     12  C   UNL     1     -10.111   9.110   8.587  0.00  0.00    +0.005 A 
ATOM     13  C   UNL     1     -12.219   8.217   7.823  0.00  0.00    +0.005 A 
ATOM     14  C   UNL     1      -9.990   9.834   7.398  0.00  0.00    +0.000 A 
ATOM     15  C   UNL     1     -12.095   8.942   6.638  0.00  0.00    +0.000 A 
ATOM     16  C   UNL     1     -10.980   9.749   6.425  0.00  0.00    +0.000 A 
ENDBRANCH  10  11
ENDBRANCH   1  10
TORSDOF 2
ENDMDL
MODEL 9
REMARK VINA RESULT:    -5.010      4.601      5.235
REMARK INTER + INTRA:          -5.720
REMARK INTER:                  -5.601
REMARK INTRA:                  -0.118
REMARK UNBOUND:                -0.124
REMARK  Name = 1550473
REMARK  2 active torsions:
REMARK  status: ('A' for Active; 'I' for Inactive)
REMARK    1  A    between atoms: N_1  and  C_4
REMARK    2  A    between atoms: C_4  and  C_5
REMARK                            x       y       z     vdW  Elec       q    Type
REMARK                         _______ _______ _______ _____ _____    ______ ____
ROOT
ATOM      1  N   UNL     1      -7.690   0.870   5.167  0.00  0.00    -0.354 N 
ATOM      2  N   UNL     1      -8.611   2.724   4.129  0.00  0.00    -0.372 N 
ATOM      3  N   UNL     1      -6.340   2.409   4.027  0.00  0.00    -0.372 N 
ATOM      4  C   UNL     1      -7.538   1.989   4.447  0.00  0.00    +0.166 C 
ATOM      5  H   UNL     1      -8.622   0.622   5.481  0.00  0.00    +0.163 HD
ATOM      6  H   UNL     1      -8.527   3.572   3.584  0.00  0.00    +0.159 HD
ATOM      7  H   UNL     1      -9.546   2.450   4.405  0.00  0.00    +0.159 HD
ATOM      8  H   UNL     1      -5.491   1.903   4.239  0.00  0.00    +0.159 HD
ATOM      9  H   UNL     1      -6.235   3.261   3.491  0.00  0.00    +0.159 HD
ENDROOT
BRANCH   1  10
ATOM     10  C   UNL     1      -6.594  -0.030   5.521  0.00  0.00    +0.151 C 
BRANCH  10  11
ATOM     11  C   UNL     1      -6.935  -0.739   6.802  0.00  0.00    -0.028 A 
ATOM     12  C   UNL     1      -8.267  -1.053   7.110  0.00  0.00    +0.005 A 
ATOM     13  C   UNL     1      -5.930  -1.106   7.710  0.00  0.00    +0.005 A 
ATOM     14  C   UNL     1      -8.581  -1.738   8.286  0.00  0.00    +0.000 A 
ATOM     15  C   UNL     1      -6.248  -1.790   8.884  0.00  0.00    +0.000 A 
ATOM     16  C   UNL     1      -7.573  -2.108   9.170  0.00  0.00    +0.000 A 
ENDBRANCH  10  11
ENDBRANCH   1  10
TORSDOF 2
ENDMDL
