MODEL 1
REMARK VINA RESULT:    -4.967      0.000      0.000
REMARK INTER + INTRA:          -5.650
REMARK INTER:                  -5.547
REMARK INTRA:                  -0.102
REMARK UNBOUND:                -0.102
REMARK  Name = 1550473
REMARK  2 active torsions:
REMARK  status: ('A' for Active; 'I' for Inactive)
REMARK    1  A    between atoms: N_1  and  C_4
REMARK    2  A    between atoms: C_4  and  C_5
REMARK                            x       y       z     vdW  Elec       q    Type
REMARK                         _______ _______ _______ _____ _____    ______ ____
ROOT
ATOM      1  N   UNL     1       2.345  -2.889  16.844  0.00  0.00    -0.354 N 
ATOM      2  N   UNL     1       1.751  -4.637  15.446  0.00  0.00    -0.372 N 
ATOM      3  N   UNL     1       1.544  -2.484  14.679  0.00  0.00    -0.372 N 
ATOM      4  C   UNL     1       1.883  -3.323  15.664  0.00  0.00    +0.166 C 
ATOM      5  H   UNL     1       2.556  -3.574  17.560  0.00  0.00    +0.163 HD
ATOM      6  H   UNL     1       1.408  -4.994  14.564  0.00  0.00    +0.159 HD
ATOM      7  H   UNL     1       2.006  -5.322  16.147  0.00  0.00    +0.159 HD
ATOM      8  H   UNL     1       1.615  -1.481  14.783  0.00  0.00    +0.159 HD
ATOM      9  H   UNL     1       1.188  -2.822  13.794  0.00  0.00    +0.159 HD
ENDROOT
BRANCH   1  10
ATOM     10  C   UNL     1       2.577  -1.481  17.164  0.00  0.00    +0.151 C 
BRANCH  10  11
ATOM     11  C   UNL     1       2.790  -1.343  18.646  0.00  0.00    -0.028 A 
ATOM     12  C   UNL     1       2.021  -0.441  19.395  0.00  0.00    +0.005 A 
ATOM     13  C   UNL     1       3.757  -2.115  19.308  0.00  0.00    +0.005 A 
ATOM     14  C   UNL     1       2.198  -0.333  20.776  0.00  0.00    +0.000 A 
ATOM     15  C   UNL     1       3.932  -2.004  20.687  0.00  0.00    +0.000 A 
ATOM     16  C   UNL     1       3.150  -1.115  21.421  0.00  0.00    +0.000 A 
ENDBRANCH  10  11
ENDBRANCH   1  10
TORSDOF 2
ENDMDL
MODEL 2
REMARK VINA RESULT:    -4.520      1.225      2.120
REMARK INTER + INTRA:          -5.150
REMARK INTER:                  -5.215
REMARK INTRA:                   0.064
REMARK UNBOUND:                -0.102
REMARK  Name = 1550473
REMARK  2 active torsions:
REMARK  status: ('A' for Active; 'I' for Inactive)
REMARK    1  A    between atoms: N_1  and  C_4
REMARK    2  A    between atoms: C_4  and  C_5
REMARK                            x       y       z     vdW  Elec       q    Type
REMARK                         _______ _______ _______ _____ _____    ______ ____
ROOT
ATOM      1  N   UNL     1       1.245  -3.195  17.121  0.00  0.00    -0.354 N 
ATOM      2  N   UNL     1       1.642  -2.378  14.990  0.00  0.00    -0.372 N 
ATOM      3  N   UNL     1       3.423  -2.727  16.394  0.00  0.00    -0.372 N 
ATOM      4  C   UNL     1       2.103  -2.772  16.183  0.00  0.00    +0.166 C 
ATOM      5  H   UNL     1       0.254  -3.176  16.909  0.00  0.00    +0.163 HD
ATOM      6  H   UNL     1       2.265  -2.057  14.262  0.00  0.00    +0.159 HD
ATOM      7  H   UNL     1       0.654  -2.404  14.766  0.00  0.00    +0.159 HD
ATOM      8  H   UNL     1       3.834  -3.005  17.275  0.00  0.00    +0.159 HD
ATOM      9  H   UNL     1       4.062  -2.398  15.682  0.00  0.00    +0.159 HD
ENDROOT
BRANCH   1  10
ATOM     10  C   UNL     1       1.649  -3.696  18.433  0.00  0.00    +0.151 C 
BRANCH  10  11
ATOM     11  C   UNL     1       2.088  -2.539  19.287  0.00  0.00    -0.028 A 
ATOM     12  C   UNL     1       3.291  -2.601  20.006  0.00  0.00    +0.005 A 
ATOM     13  C   UNL     1       1.309  -1.375  19.376  0.00  0.00    +0.005 A 
ATOM     14  C   UNL     1       3.714  -1.514  20.775  0.00  0.00    +0.000 A 
ATOM     15  C   UNL     1       1.735  -0.292  20.146  0.00  0.00    +0.000 A 
ATOM     16  C   UNL     1       2.939  -0.361  20.843  0.00  0.00    +0.000 A 
ENDBRANCH  10  11
ENDBRANCH   1  10
TORSDOF 2
ENDMDL
MODEL 3
REMARK VINA RESULT:    -4.422     27.998     28.942
REMARK INTER + INTRA:          -5.042
REMARK INTER:                  -4.948
REMARK INTRA:                  -0.093
REMARK UNBOUND:                -0.102
REMARK  Name = 1550473
REMARK  2 active torsions:
REMARK  status: ('A' for Active; 'I' for Inactive)
REMARK    1  A    between atoms: N_1  and  C_4
REMARK    2  A    between atoms: C_4  and  C_5
REMARK                            x       y       z     vdW  Elec       q    Type
REMARK                         _______ _______ _______ _____ _____    ______ ____
ROOT
ATOM      1  N   UNL     1       8.884   1.553  -9.283  0.00  0.00    -0.354 N 
ATOM      2  N   UNL     1      10.806   1.142  -8.059  0.00  0.00    -0.372 N 
ATOM      3  N   UNL     1      10.264  -0.274  -9.781  0.00  0.00    -0.372 N 
ATOM      4  C   UNL     1       9.972   0.807  -9.051  0.00  0.00    +0.166 C 
ATOM      5  H   UNL     1       8.703   2.343  -8.675  0.00  0.00    +0.163 HD
ATOM      6  H   UNL     1      11.637   0.601  -7.862  0.00  0.00    +0.159 HD
ATOM      7  H   UNL     1      10.647   1.959  -7.482  0.00  0.00    +0.159 HD
ATOM      8  H   UNL     1       9.672  -0.584 -10.540  0.00  0.00    +0.159 HD
ATOM      9  H   UNL     1      11.085  -0.836  -9.591  0.00  0.00    +0.159 HD
ENDROOT
BRANCH   1  10
ATOM     10  C   UNL     1       7.940   1.306 -10.372  0.00  0.00    +0.151 C 
BRANCH  10  11
ATOM     11  C   UNL     1       6.779   2.252 -10.241  0.00  0.00    -0.028 A 
ATOM     12  C   UNL     1       5.757   2.002  -9.313  0.00  0.00    +0.005 A 
ATOM     13  C   UNL     1       6.698   3.405 -11.037  0.00  0.00    +0.005 A 
ATOM     14  C   UNL     1       4.694   2.897  -9.170  0.00  0.00    +0.000 A 
ATOM     15  C   UNL     1       5.635   4.296 -10.892  0.00  0.00    +0.000 A 
ATOM     16  C   UNL     1       4.634   4.042  -9.956  0.00  0.00    +0.000 A 
ENDBRANCH  10  11
ENDBRANCH   1  10
TORSDOF 2
ENDMDL
MODEL 4
REMARK VINA RESULT:    -4.341     28.935     30.584
REMARK INTER + INTRA:          -4.951
REMARK INTER:                  -4.808
REMARK INTRA:                  -0.142
REMARK UNBOUND:                -0.102
REMARK  Name = 1550473
REMARK  2 active torsions:
REMARK  status: ('A' for Active; 'I' for Inactive)
REMARK    1  A    between atoms: N_1  and  C_4
REMARK    2  A    between atoms: C_4  and  C_5
REMARK                            x       y       z     vdW  Elec       q    Type
REMARK                         _______ _______ _______ _____ _____    ______ ____
ROOT
ATOM      1  N   UNL     1       8.334   3.320 -12.642  0.00  0.00    -0.354 N 
ATOM      2  N   UNL     1       8.555   3.582 -14.933  0.00  0.00    -0.372 N 
ATOM      3  N   UNL     1       8.884   1.504 -14.017  0.00  0.00    -0.372 N 
ATOM      4  C   UNL     1       8.591   2.798 -13.849  0.00  0.00    +0.166 C 
ATOM      5  H   UNL     1       8.148   4.315 -12.578  0.00  0.00    +0.163 HD
ATOM      6  H   UNL     1       8.741   3.215 -15.856  0.00  0.00    +0.159 HD
ATOM      7  H   UNL     1       8.324   4.566 -14.871  0.00  0.00    +0.159 HD
ATOM      8  H   UNL     1       8.933   0.860 -13.238  0.00  0.00    +0.159 HD
ATOM      9  H   UNL     1       9.085   1.120 -14.932  0.00  0.00    +0.159 HD
ENDROOT
BRANCH   1  10
ATOM     10  C   UNL     1       8.294   2.542 -11.405  0.00  0.00    +0.151 C 
BRANCH  10  11
ATOM     11  C   UNL     1       7.001   2.822 -10.691  0.00  0.00    -0.028 A 
ATOM     12  C   UNL     1       6.219   3.932 -11.041  0.00  0.00    +0.005 A 
ATOM     13  C   UNL     1       6.548   1.977  -9.665  0.00  0.00    +0.005 A 
ATOM     14  C   UNL     1       5.003   4.176 -10.398  0.00  0.00    +0.000 A 
ATOM     15  C   UNL     1       5.334   2.224  -9.025  0.00  0.00    +0.000 A 
ATOM     16  C   UNL     1       4.561   3.322  -9.393  0.00  0.00    +0.000 A 
ENDBRANCH  10  11
ENDBRANCH   1  10
TORSDOF 2
ENDMDL
MODEL 5
REMARK VINA RESULT:    -4.306     28.378     29.471
REMARK INTER + INTRA:          -4.912
REMARK INTER:                  -4.788
REMARK INTRA:                  -0.125
REMARK UNBOUND:                -0.102
REMARK  Name = 1550473
REMARK  2 active torsions:
REMARK  status: ('A' for Active; 'I' for Inactive)
REMARK    1  A    between atoms: N_1  and  C_4
REMARK    2  A    between atoms: C_4  and  C_5
REMARK                            x       y       z     vdW  Elec       q    Type
REMARK                         _______ _______ _______ _____ _____    ______ ____
ROOT
ATOM      1  N   UNL     1       5.535   5.576  -9.949  0.00  0.00    -0.354 N 
ATOM      2  N   UNL     1       5.919   7.711  -9.137  0.00  0.00    -0.372 N 
ATOM      3  N   UNL     1       4.577   6.291  -7.933  0.00  0.00    -0.372 N 
ATOM      4  C   UNL     1       5.339   6.511  -9.010  0.00  0.00    +0.166 C 
ATOM      5  H   UNL     1       6.099   5.815 -10.756  0.00  0.00    +0.163 HD
ATOM      6  H   UNL     1       5.792   8.435  -8.443  0.00  0.00    +0.159 HD
ATOM      7  H   UNL     1       6.520   7.932  -9.922  0.00  0.00    +0.159 HD
ATOM      8  H   UNL     1       4.106   5.409  -7.781  0.00  0.00    +0.159 HD
ATOM      9  H   UNL     1       4.428   7.008  -7.233  0.00  0.00    +0.159 HD
ENDROOT
BRANCH   1  10
ATOM     10  C   UNL     1       4.993   4.220  -9.878  0.00  0.00    +0.151 C 
BRANCH  10  11
ATOM     11  C   UNL     1       6.046   3.246 -10.329  0.00  0.00    -0.028 A 
ATOM     12  C   UNL     1       6.126   1.968  -9.757  0.00  0.00    +0.005 A 
ATOM     13  C   UNL     1       6.963   3.593 -11.333  0.00  0.00    +0.005 A 
ATOM     14  C   UNL     1       7.084   1.052 -10.197  0.00  0.00    +0.000 A 
ATOM     15  C   UNL     1       7.919   2.676 -11.769  0.00  0.00    +0.000 A 
ATOM     16  C   UNL     1       7.978   1.405 -11.202  0.00  0.00    +0.000 A 
ENDBRANCH  10  11
ENDBRANCH   1  10
TORSDOF 2
ENDMDL
MODEL 6
REMARK VINA RESULT:    -4.093     25.906     27.439
REMARK INTER + INTRA:          -4.674
REMARK INTER:                  -4.523
REMARK INTRA:                  -0.151
REMARK UNBOUND:                -0.102
REMARK  Name = 1550473
REMARK  2 active torsions:
REMARK  status: ('A' for Active; 'I' for Inactive)
REMARK    1  A    between atoms: N_1  and  C_4
REMARK    2  A    between atoms: C_4  and  C_5
REMARK                            x       y       z     vdW  Elec       q    Type
REMARK                         _______ _______ _______ _____ _____    ______ ____
ROOT
ATOM      1  N   UNL     1       8.495   3.791  -6.669  0.00  0.00    -0.354 N 
ATOM      2  N   UNL     1       9.608   2.330  -5.257  0.00  0.00    -0.372 N 
ATOM      3  N   UNL     1      10.155   2.352  -7.486  0.00  0.00    -0.372 N 
ATOM      4  C   UNL     1       9.413   2.833  -6.482  0.00  0.00    +0.166 C 
ATOM      5  H   UNL     1       7.945   4.091  -5.873  0.00  0.00    +0.163 HD
ATOM      6  H   UNL     1      10.296   1.609  -5.086  0.00  0.00    +0.159 HD
ATOM      7  H   UNL     1       9.088   2.664  -4.455  0.00  0.00    +0.159 HD
ATOM      8  H   UNL     1      10.053   2.685  -8.435  0.00  0.00    +0.159 HD
ATOM      9  H   UNL     1      10.841   1.622  -7.336  0.00  0.00    +0.159 HD
ENDROOT
BRANCH   1  10
ATOM     10  C   UNL     1       8.243   4.443  -7.953  0.00  0.00    +0.151 C 
BRANCH  10  11
ATOM     11  C   UNL     1       6.874   4.056  -8.440  0.00  0.00    -0.028 A 
ATOM     12  C   UNL     1       5.862   5.020  -8.558  0.00  0.00    +0.005 A 
ATOM     13  C   UNL     1       6.584   2.729  -8.789  0.00  0.00    +0.005 A 
ATOM     14  C   UNL     1       4.599   4.668  -9.039  0.00  0.00    +0.000 A 
ATOM     15  C   UNL     1       5.321   2.380  -9.268  0.00  0.00    +0.000 A 
ATOM     16  C   UNL     1       4.330   3.350  -9.395  0.00  0.00    +0.000 A 
ENDBRANCH  10  11
ENDBRANCH   1  10
TORSDOF 2
ENDMDL
MODEL 7
REMARK VINA RESULT:    -4.086     28.983     30.390
REMARK INTER + INTRA:          -4.666
REMARK INTER:                  -4.514
REMARK INTRA:                  -0.152
REMARK UNBOUND:                -0.102
REMARK  Name = 1550473
REMARK  2 active torsions:
REMARK  status: ('A' for Active; 'I' for Inactive)
REMARK    1  A    between atoms: N_1  and  C_4
REMARK    2  A    between atoms: C_4  and  C_5
REMARK                            x       y       z     vdW  Elec       q    Type
REMARK                         _______ _______ _______ _____ _____    ______ ____
ROOT
ATOM      1  N   UNL     1       7.198   5.677 -12.369  0.00  0.00    -0.354 N 
ATOM      2  N   UNL     1       9.217   6.801 -12.212  0.00  0.00    -0.372 N 
ATOM      3  N   UNL     1       7.437   7.537 -10.964  0.00  0.00    -0.372 N 
ATOM      4  C   UNL     1       7.936   6.666 -11.848  0.00  0.00    +0.166 C 
ATOM      5  H   UNL     1       7.626   5.068 -13.057  0.00  0.00    +0.163 HD
ATOM      6  H   UNL     1       9.799   7.536 -11.832  0.00  0.00    +0.159 HD
ATOM      7  H   UNL     1       9.655   6.163 -12.865  0.00  0.00    +0.159 HD
ATOM      8  H   UNL     1       6.476   7.493 -10.653  0.00  0.00    +0.159 HD
ATOM      9  H   UNL     1       8.001   8.286 -10.582  0.00  0.00    +0.159 HD
ENDROOT
BRANCH   1  10
ATOM     10  C   UNL     1       5.809   5.410 -11.999  0.00  0.00    +0.151 C 
BRANCH  10  11
ATOM     11  C   UNL     1       5.768   4.235 -11.062  0.00  0.00    -0.028 A 
ATOM     12  C   UNL     1       6.771   3.256 -11.103  0.00  0.00    +0.005 A 
ATOM     13  C   UNL     1       4.731   4.098 -10.125  0.00  0.00    +0.005 A 
ATOM     14  C   UNL     1       6.749   2.180 -10.213  0.00  0.00    +0.000 A 
ATOM     15  C   UNL     1       4.713   3.022  -9.238  0.00  0.00    +0.000 A 
ATOM     16  C   UNL     1       5.723   2.064  -9.281  0.00  0.00    +0.000 A 
ENDBRANCH  10  11
ENDBRANCH   1  10
TORSDOF 2
ENDMDL
MODEL 8
REMARK VINA RESULT:    -4.068     10.278     11.034
REMARK INTER + INTRA:          -4.646
REMARK INTER:                  -4.537
REMARK INTRA:                  -0.110
REMARK UNBOUND:                -0.102
REMARK  Name = 1550473
REMARK  2 active torsions:
REMARK  status: ('A' for Active; 'I' for Inactive)
REMARK    1  A    between atoms: N_1  and  C_4
REMARK    2  A    between atoms: C_4  and  C_5
REMARK                            x       y       z     vdW  Elec       q    Type
REMARK                         _______ _______ _______ _____ _____    ______ ____
ROOT
ATOM      1  N   UNL     1       5.665   6.534  14.589  0.00  0.00    -0.354 N 
ATOM      2  N   UNL     1       5.650   4.260  14.149  0.00  0.00    -0.372 N 
ATOM      3  N   UNL     1       6.457   5.694  12.549  0.00  0.00    -0.372 N 
ATOM      4  C   UNL     1       5.925   5.512  13.763  0.00  0.00    +0.166 C 
ATOM      5  H   UNL     1       5.234   6.332  15.484  0.00  0.00    +0.163 HD
ATOM      6  H   UNL     1       5.838   3.469  13.549  0.00  0.00    +0.159 HD
ATOM      7  H   UNL     1       5.261   4.057  15.062  0.00  0.00    +0.159 HD
ATOM      8  H   UNL     1       6.682   6.614  12.196  0.00  0.00    +0.159 HD
ATOM      9  H   UNL     1       6.641   4.915  11.929  0.00  0.00    +0.159 HD
ENDROOT
BRANCH   1  10
ATOM     10  C   UNL     1       5.977   7.930  14.286  0.00  0.00    +0.151 C 
BRANCH  10  11
ATOM     11  C   UNL     1       5.074   8.821  15.094  0.00  0.00    -0.028 A 
ATOM     12  C   UNL     1       3.686   8.798  14.894  0.00  0.00    +0.005 A 
ATOM     13  C   UNL     1       5.600   9.687  16.064  0.00  0.00    +0.005 A 
ATOM     14  C   UNL     1       2.844   9.603  15.665  0.00  0.00    +0.000 A 
ATOM     15  C   UNL     1       4.757  10.491  16.832  0.00  0.00    +0.000 A 
ATOM     16  C   UNL     1       3.379  10.447  16.633  0.00  0.00    +0.000 A 
ENDBRANCH  10  11
ENDBRANCH   1  10
TORSDOF 2
ENDMDL
MODEL 9
REMARK VINA RESULT:    -4.000     29.115     30.540
REMARK INTER + INTRA:          -4.570
REMARK INTER:                  -4.418
REMARK INTRA:                  -0.153
REMARK UNBOUND:                -0.102
REMARK  Name = 1550473
REMARK  2 active torsions:
REMARK  status: ('A' for Active; 'I' for Inactive)
REMARK    1  A    between atoms: N_1  and  C_4
REMARK    2  A    between atoms: C_4  and  C_5
REMARK                            x       y       z     vdW  Elec       q    Type
REMARK                         _______ _______ _______ _____ _____    ______ ____
ROOT
ATOM      1  N   UNL     1       8.951   3.694 -12.471  0.00  0.00    -0.354 N 
ATOM      2  N   UNL     1      11.237   3.917 -12.177  0.00  0.00    -0.372 N 
ATOM      3  N   UNL     1       9.899   5.760 -11.897  0.00  0.00    -0.372 N 
ATOM      4  C   UNL     1      10.013   4.458 -12.183  0.00  0.00    +0.166 C 
ATOM      5  H   UNL     1       9.108   2.722 -12.709  0.00  0.00    +0.163 HD
ATOM      6  H   UNL     1      12.057   4.468 -11.960  0.00  0.00    +0.159 HD
ATOM      7  H   UNL     1      11.386   2.934 -12.370  0.00  0.00    +0.159 HD
ATOM      8  H   UNL     1       9.003   6.230 -11.892  0.00  0.00    +0.159 HD
ATOM      9  H   UNL     1      10.709   6.330 -11.689  0.00  0.00    +0.159 HD
ENDROOT
BRANCH   1  10
ATOM     10  C   UNL     1       7.570   4.174 -12.453  0.00  0.00    +0.151 C 
BRANCH  10  11
ATOM     11  C   UNL     1       6.824   3.482 -11.345  0.00  0.00    -0.028 A 
ATOM     12  C   UNL     1       7.269   2.248 -10.850  0.00  0.00    +0.005 A 
ATOM     13  C   UNL     1       5.676   4.059 -10.782  0.00  0.00    +0.005 A 
ATOM     14  C   UNL     1       6.594   1.619  -9.801  0.00  0.00    +0.000 A 
ATOM     15  C   UNL     1       5.004   3.428  -9.736  0.00  0.00    +0.000 A 
ATOM     16  C   UNL     1       5.465   2.209  -9.244  0.00  0.00    +0.000 A 
ENDBRANCH  10  11
ENDBRANCH   1  10
TORSDOF 2
ENDMDL
