MODEL 1
REMARK VINA RESULT:    -5.790      0.000      0.000
REMARK INTER + INTRA:          -6.588
REMARK INTER:                  -6.467
REMARK INTRA:                  -0.121
REMARK UNBOUND:                -0.121
REMARK  Name = 1550473
REMARK  2 active torsions:
REMARK  status: ('A' for Active; 'I' for Inactive)
REMARK    1  A    between atoms: N_1  and  C_4
REMARK    2  A    between atoms: C_4  and  C_5
REMARK                            x       y       z     vdW  Elec       q    Type
REMARK                         _______ _______ _______ _____ _____    ______ ____
ROOT
ATOM      1  N   UNL     1     -10.257   8.526   1.368  0.00  0.00    -0.354 N 
ATOM      2  N   UNL     1     -11.908   6.902   1.358  0.00  0.00    -0.372 N 
ATOM      3  N   UNL     1     -12.019   8.606  -0.175  0.00  0.00    -0.372 N 
ATOM      4  C   UNL     1     -11.385   8.024   0.848  0.00  0.00    +0.166 C 
ATOM      5  H   UNL     1      -9.841   8.054   2.163  0.00  0.00    +0.163 HD
ATOM      6  H   UNL     1     -12.756   6.497   0.984  0.00  0.00    +0.159 HD
ATOM      7  H   UNL     1     -11.465   6.407   2.122  0.00  0.00    +0.159 HD
ATOM      8  H   UNL     1     -11.679   9.458  -0.601  0.00  0.00    +0.159 HD
ATOM      9  H   UNL     1     -12.875   8.222  -0.555  0.00  0.00    +0.159 HD
ENDROOT
BRANCH   1  10
ATOM     10  C   UNL     1      -9.576   9.713   0.852  0.00  0.00    +0.151 C 
BRANCH  10  11
ATOM     11  C   UNL     1      -8.187   9.770   1.424  0.00  0.00    -0.028 A 
ATOM     12  C   UNL     1      -7.866   9.056   2.587  0.00  0.00    +0.005 A 
ATOM     13  C   UNL     1      -7.185  10.533   0.804  0.00  0.00    +0.005 A 
ATOM     14  C   UNL     1      -6.568   9.085   3.102  0.00  0.00    +0.000 A 
ATOM     15  C   UNL     1      -5.890  10.560   1.322  0.00  0.00    +0.000 A 
ATOM     16  C   UNL     1      -5.581   9.834   2.470  0.00  0.00    +0.000 A 
ENDBRANCH  10  11
ENDBRANCH   1  10
TORSDOF 2
ENDMDL
MODEL 2
REMARK VINA RESULT:    -5.728      0.184      1.464
REMARK INTER + INTRA:          -6.518
REMARK INTER:                  -6.397
REMARK INTRA:                  -0.122
REMARK UNBOUND:                -0.121
REMARK  Name = 1550473
REMARK  2 active torsions:
REMARK  status: ('A' for Active; 'I' for Inactive)
REMARK    1  A    between atoms: N_1  and  C_4
REMARK    2  A    between atoms: C_4  and  C_5
REMARK                            x       y       z     vdW  Elec       q    Type
REMARK                         _______ _______ _______ _____ _____    ______ ____
ROOT
ATOM      1  N   UNL     1     -10.396   8.499   1.470  0.00  0.00    -0.354 N 
ATOM      2  N   UNL     1     -11.973   6.803   1.504  0.00  0.00    -0.372 N 
ATOM      3  N   UNL     1     -12.111   8.413  -0.125  0.00  0.00    -0.372 N 
ATOM      4  C   UNL     1     -11.484   7.918   0.947  0.00  0.00    +0.166 C 
ATOM      5  H   UNL     1      -9.985   8.091   2.302  0.00  0.00    +0.163 HD
ATOM      6  H   UNL     1     -12.791   6.341   1.130  0.00  0.00    +0.159 HD
ATOM      7  H   UNL     1     -11.533   6.372   2.308  0.00  0.00    +0.159 HD
ATOM      8  H   UNL     1     -11.796   9.255  -0.588  0.00  0.00    +0.159 HD
ATOM      9  H   UNL     1     -12.938   7.971  -0.507  0.00  0.00    +0.159 HD
ENDROOT
BRANCH   1  10
ATOM     10  C   UNL     1      -9.753   9.685   0.907  0.00  0.00    +0.151 C 
BRANCH  10  11
ATOM     11  C   UNL     1      -8.329   9.746   1.387  0.00  0.00    -0.028 A 
ATOM     12  C   UNL     1      -7.382  10.527   0.710  0.00  0.00    +0.005 A 
ATOM     13  C   UNL     1      -7.922   9.029   2.523  0.00  0.00    +0.005 A 
ATOM     14  C   UNL     1      -6.066  10.608   1.173  0.00  0.00    +0.000 A 
ATOM     15  C   UNL     1      -6.608   9.111   2.982  0.00  0.00    +0.000 A 
ATOM     16  C   UNL     1      -5.681   9.902   2.308  0.00  0.00    +0.000 A 
ENDBRANCH  10  11
ENDBRANCH   1  10
TORSDOF 2
ENDMDL
MODEL 3
REMARK VINA RESULT:    -5.166      1.597      2.080
REMARK INTER + INTRA:          -5.891
REMARK INTER:                  -5.759
REMARK INTRA:                  -0.132
REMARK UNBOUND:                -0.121
REMARK  Name = 1550473
REMARK  2 active torsions:
REMARK  status: ('A' for Active; 'I' for Inactive)
REMARK    1  A    between atoms: N_1  and  C_4
REMARK    2  A    between atoms: C_4  and  C_5
REMARK                            x       y       z     vdW  Elec       q    Type
REMARK                         _______ _______ _______ _____ _____    ______ ____
ROOT
ATOM      1  N   UNL     1     -10.806   8.916   1.850  0.00  0.00    -0.354 N 
ATOM      2  N   UNL     1     -11.957   8.684  -0.146  0.00  0.00    -0.372 N 
ATOM      3  N   UNL     1     -12.772  10.124   1.443  0.00  0.00    -0.372 N 
ATOM      4  C   UNL     1     -11.839   9.244   1.063  0.00  0.00    +0.166 C 
ATOM      5  H   UNL     1     -10.149   8.220   1.516  0.00  0.00    +0.163 HD
ATOM      6  H   UNL     1     -12.724   8.915  -0.764  0.00  0.00    +0.159 HD
ATOM      7  H   UNL     1     -11.273   8.023  -0.496  0.00  0.00    +0.159 HD
ATOM      8  H   UNL     1     -12.745  10.578   2.346  0.00  0.00    +0.159 HD
ATOM      9  H   UNL     1     -13.554  10.359   0.844  0.00  0.00    +0.159 HD
ENDROOT
BRANCH   1  10
ATOM     10  C   UNL     1     -10.557   9.509   3.163  0.00  0.00    +0.151 C 
BRANCH  10  11
ATOM     11  C   UNL     1      -9.073   9.572   3.400  0.00  0.00    -0.028 A 
ATOM     12  C   UNL     1      -8.564  10.125   4.584  0.00  0.00    +0.005 A 
ATOM     13  C   UNL     1      -8.171   9.076   2.446  0.00  0.00    +0.005 A 
ATOM     14  C   UNL     1      -7.187  10.156   4.818  0.00  0.00    +0.000 A 
ATOM     15  C   UNL     1      -6.797   9.111   2.683  0.00  0.00    +0.000 A 
ATOM     16  C   UNL     1      -6.306   9.649   3.870  0.00  0.00    +0.000 A 
ENDBRANCH  10  11
ENDBRANCH   1  10
TORSDOF 2
ENDMDL
MODEL 4
REMARK VINA RESULT:    -5.071      1.563      2.315
REMARK INTER + INTRA:          -5.785
REMARK INTER:                  -5.635
REMARK INTRA:                  -0.149
REMARK UNBOUND:                -0.121
REMARK  Name = 1550473
REMARK  2 active torsions:
REMARK  status: ('A' for Active; 'I' for Inactive)
REMARK    1  A    between atoms: N_1  and  C_4
REMARK    2  A    between atoms: C_4  and  C_5
REMARK                            x       y       z     vdW  Elec       q    Type
REMARK                         _______ _______ _______ _____ _____    ______ ____
ROOT
ATOM      1  N   UNL     1     -10.798  10.798   0.616  0.00  0.00    -0.354 N 
ATOM      2  N   UNL     1     -12.865  11.185   1.586  0.00  0.00    -0.372 N 
ATOM      3  N   UNL     1     -12.457   9.144   0.621  0.00  0.00    -0.372 N 
ATOM      4  C   UNL     1     -12.027  10.371   0.934  0.00  0.00    +0.166 C 
ATOM      5  H   UNL     1     -10.543  11.750   0.854  0.00  0.00    +0.163 HD
ATOM      6  H   UNL     1     -13.797  10.889   1.843  0.00  0.00    +0.159 HD
ATOM      7  H   UNL     1     -12.591  12.120   1.864  0.00  0.00    +0.159 HD
ATOM      8  H   UNL     1     -11.876   8.483   0.124  0.00  0.00    +0.159 HD
ATOM      9  H   UNL     1     -13.391   8.833   0.859  0.00  0.00    +0.159 HD
ENDROOT
BRANCH   1  10
ATOM     10  C   UNL     1      -9.790   9.972  -0.047  0.00  0.00    +0.151 C 
BRANCH  10  11
ATOM     11  C   UNL     1      -8.564   9.903   0.821  0.00  0.00    -0.028 A 
ATOM     12  C   UNL     1      -7.416  10.638   0.491  0.00  0.00    +0.005 A 
ATOM     13  C   UNL     1      -8.545   9.108   1.977  0.00  0.00    +0.005 A 
ATOM     14  C   UNL     1      -6.287  10.598   1.312  0.00  0.00    +0.000 A 
ATOM     15  C   UNL     1      -7.415   9.070   2.794  0.00  0.00    +0.000 A 
ATOM     16  C   UNL     1      -6.287   9.817   2.463  0.00  0.00    +0.000 A 
ENDBRANCH  10  11
ENDBRANCH   1  10
TORSDOF 2
ENDMDL
MODEL 5
REMARK VINA RESULT:    -4.995      3.234      4.014
REMARK INTER + INTRA:          -5.700
REMARK INTER:                  -5.581
REMARK INTRA:                  -0.119
REMARK UNBOUND:                -0.121
REMARK  Name = 1550473
REMARK  2 active torsions:
REMARK  status: ('A' for Active; 'I' for Inactive)
REMARK    1  A    between atoms: N_1  and  C_4
REMARK    2  A    between atoms: C_4  and  C_5
REMARK                            x       y       z     vdW  Elec       q    Type
REMARK                         _______ _______ _______ _____ _____    ______ ____
ROOT
ATOM      1  N   UNL     1      -8.192  12.220  -0.435  0.00  0.00    -0.354 N 
ATOM      2  N   UNL     1      -7.502  13.758  -2.023  0.00  0.00    -0.372 N 
ATOM      3  N   UNL     1      -7.868  11.587  -2.668  0.00  0.00    -0.372 N 
ATOM      4  C   UNL     1      -7.858  12.509  -1.700  0.00  0.00    +0.166 C 
ATOM      5  H   UNL     1      -8.135  12.957   0.258  0.00  0.00    +0.163 HD
ATOM      6  H   UNL     1      -7.248  14.007  -2.970  0.00  0.00    +0.159 HD
ATOM      7  H   UNL     1      -7.490  14.503  -1.337  0.00  0.00    +0.159 HD
ATOM      8  H   UNL     1      -8.122  10.625  -2.489  0.00  0.00    +0.159 HD
ATOM      9  H   UNL     1      -7.606  11.814  -3.619  0.00  0.00    +0.159 HD
ENDROOT
BRANCH   1  10
ATOM     10  C   UNL     1      -8.646  10.904   0.010  0.00  0.00    +0.151 C 
BRANCH  10  11
ATOM     11  C   UNL     1      -7.683  10.372   1.035  0.00  0.00    -0.028 A 
ATOM     12  C   UNL     1      -8.122   9.495   2.037  0.00  0.00    +0.005 A 
ATOM     13  C   UNL     1      -6.328  10.737   1.006  0.00  0.00    +0.005 A 
ATOM     14  C   UNL     1      -7.222   8.977   2.972  0.00  0.00    +0.000 A 
ATOM     15  C   UNL     1      -5.433  10.219   1.941  0.00  0.00    +0.000 A 
ATOM     16  C   UNL     1      -5.879   9.337   2.922  0.00  0.00    +0.000 A 
ENDBRANCH  10  11
ENDBRANCH   1  10
TORSDOF 2
ENDMDL
MODEL 6
REMARK VINA RESULT:    -4.969      1.729      2.596
REMARK INTER + INTRA:          -5.670
REMARK INTER:                  -5.595
REMARK INTRA:                  -0.075
REMARK UNBOUND:                -0.121
REMARK  Name = 1550473
REMARK  2 active torsions:
REMARK  status: ('A' for Active; 'I' for Inactive)
REMARK    1  A    between atoms: N_1  and  C_4
REMARK    2  A    between atoms: C_4  and  C_5
REMARK                            x       y       z     vdW  Elec       q    Type
REMARK                         _______ _______ _______ _____ _____    ______ ____
ROOT
ATOM      1  N   UNL     1     -11.922   9.061   1.675  0.00  0.00    -0.354 N 
ATOM      2  N   UNL     1     -12.703   7.850  -0.138  0.00  0.00    -0.372 N 
ATOM      3  N   UNL     1     -12.518   6.805   1.896  0.00  0.00    -0.372 N 
ATOM      4  C   UNL     1     -12.376   7.911   1.158  0.00  0.00    +0.166 C 
ATOM      5  H   UNL     1     -11.808   9.855   1.055  0.00  0.00    +0.163 HD
ATOM      6  H   UNL     1     -13.052   6.997  -0.556  0.00  0.00    +0.159 HD
ATOM      7  H   UNL     1     -12.632   8.658  -0.745  0.00  0.00    +0.159 HD
ATOM      8  H   UNL     1     -12.283   6.784   2.880  0.00  0.00    +0.159 HD
ATOM      9  H   UNL     1     -12.854   5.939   1.494  0.00  0.00    +0.159 HD
ENDROOT
BRANCH   1  10
ATOM     10  C   UNL     1     -11.589   9.248   3.086  0.00  0.00    +0.151 C 
BRANCH  10  11
ATOM     11  C   UNL     1     -10.098   9.395   3.223  0.00  0.00    -0.028 A 
ATOM     12  C   UNL     1      -9.242   8.946   2.208  0.00  0.00    +0.005 A 
ATOM     13  C   UNL     1      -9.537   9.988   4.365  0.00  0.00    +0.005 A 
ATOM     14  C   UNL     1      -7.859   9.109   2.322  0.00  0.00    +0.000 A 
ATOM     15  C   UNL     1      -8.156  10.149   4.475  0.00  0.00    +0.000 A 
ATOM     16  C   UNL     1      -7.318   9.712   3.452  0.00  0.00    +0.000 A 
ENDBRANCH  10  11
ENDBRANCH   1  10
TORSDOF 2
ENDMDL
MODEL 7
REMARK VINA RESULT:    -4.862      1.413      2.199
REMARK INTER + INTRA:          -5.551
REMARK INTER:                  -5.411
REMARK INTRA:                  -0.140
REMARK UNBOUND:                -0.121
REMARK  Name = 1550473
REMARK  2 active torsions:
REMARK  status: ('A' for Active; 'I' for Inactive)
REMARK    1  A    between atoms: N_1  and  C_4
REMARK    2  A    between atoms: C_4  and  C_5
REMARK                            x       y       z     vdW  Elec       q    Type
REMARK                         _______ _______ _______ _____ _____    ______ ____
ROOT
ATOM      1  N   UNL     1     -11.644   7.272   1.192  0.00  0.00    -0.354 N 
ATOM      2  N   UNL     1     -12.956   6.034   2.643  0.00  0.00    -0.372 N 
ATOM      3  N   UNL     1     -13.758   8.034   1.856  0.00  0.00    -0.372 N 
ATOM      4  C   UNL     1     -12.779   7.124   1.887  0.00  0.00    +0.166 C 
ATOM      5  H   UNL     1     -10.927   6.560   1.282  0.00  0.00    +0.163 HD
ATOM      6  H   UNL     1     -13.803   5.893   3.177  0.00  0.00    +0.159 HD
ATOM      7  H   UNL     1     -12.258   5.302   2.695  0.00  0.00    +0.159 HD
ATOM      8  H   UNL     1     -13.683   8.882   1.310  0.00  0.00    +0.159 HD
ATOM      9  H   UNL     1     -14.608   7.917   2.392  0.00  0.00    +0.159 HD
ENDROOT
BRANCH   1  10
ATOM     10  C   UNL     1     -11.374   8.396   0.296  0.00  0.00    +0.151 C 
BRANCH  10  11
ATOM     11  C   UNL     1     -10.063   9.025   0.679  0.00  0.00    -0.028 A 
ATOM     12  C   UNL     1      -9.412   8.651   1.863  0.00  0.00    +0.005 A 
ATOM     13  C   UNL     1      -9.463   9.992  -0.143  0.00  0.00    +0.005 A 
ATOM     14  C   UNL     1      -8.179   9.213   2.204  0.00  0.00    +0.000 A 
ATOM     15  C   UNL     1      -8.233  10.552   0.201  0.00  0.00    +0.000 A 
ATOM     16  C   UNL     1      -7.590  10.160   1.373  0.00  0.00    +0.000 A 
ENDBRANCH  10  11
ENDBRANCH   1  10
TORSDOF 2
ENDMDL
MODEL 8
REMARK VINA RESULT:    -4.643      2.068      2.558
REMARK INTER + INTRA:          -5.306
REMARK INTER:                  -5.167
REMARK INTRA:                  -0.140
REMARK UNBOUND:                -0.121
REMARK  Name = 1550473
REMARK  2 active torsions:
REMARK  status: ('A' for Active; 'I' for Inactive)
REMARK    1  A    between atoms: N_1  and  C_4
REMARK    2  A    between atoms: C_4  and  C_5
REMARK                            x       y       z     vdW  Elec       q    Type
REMARK                         _______ _______ _______ _____ _____    ______ ____
ROOT
ATOM      1  N   UNL     1     -11.328   8.838   2.944  0.00  0.00    -0.354 N 
ATOM      2  N   UNL     1     -13.542   9.212   3.510  0.00  0.00    -0.372 N 
ATOM      3  N   UNL     1     -12.708  10.175   1.602  0.00  0.00    -0.372 N 
ATOM      4  C   UNL     1     -12.511   9.408   2.679  0.00  0.00    +0.166 C 
ATOM      5  H   UNL     1     -11.235   8.293   3.793  0.00  0.00    +0.163 HD
ATOM      6  H   UNL     1     -14.448   9.626   3.335  0.00  0.00    +0.159 HD
ATOM      7  H   UNL     1     -13.459   8.629   4.334  0.00  0.00    +0.159 HD
ATOM      8  H   UNL     1     -11.969  10.366   0.939  0.00  0.00    +0.159 HD
ATOM      9  H   UNL     1     -13.604  10.607   1.415  0.00  0.00    +0.159 HD
ENDROOT
BRANCH   1  10
ATOM     10  C   UNL     1     -10.157   8.944   2.075  0.00  0.00    +0.151 C 
BRANCH  10  11
ATOM     11  C   UNL     1      -8.957   9.299   2.909  0.00  0.00    -0.028 A 
ATOM     12  C   UNL     1      -7.665   8.968   2.474  0.00  0.00    +0.005 A 
ATOM     13  C   UNL     1      -9.105   9.972   4.131  0.00  0.00    +0.005 A 
ATOM     14  C   UNL     1      -6.548   9.324   3.234  0.00  0.00    +0.000 A 
ATOM     15  C   UNL     1      -7.987  10.325   4.887  0.00  0.00    +0.000 A 
ATOM     16  C   UNL     1      -6.709  10.003   4.437  0.00  0.00    +0.000 A 
ENDBRANCH  10  11
ENDBRANCH   1  10
TORSDOF 2
ENDMDL
MODEL 9
REMARK VINA RESULT:    -4.508      2.156      2.673
REMARK INTER + INTRA:          -5.156
REMARK INTER:                  -4.979
REMARK INTRA:                  -0.177
REMARK UNBOUND:                -0.121
REMARK  Name = 1550473
REMARK  2 active torsions:
REMARK  status: ('A' for Active; 'I' for Inactive)
REMARK    1  A    between atoms: N_1  and  C_4
REMARK    2  A    between atoms: C_4  and  C_5
REMARK                            x       y       z     vdW  Elec       q    Type
REMARK                         _______ _______ _______ _____ _____    ______ ____
ROOT
ATOM      1  N   UNL     1     -10.243  10.954   1.910  0.00  0.00    -0.354 N 
ATOM      2  N   UNL     1     -11.269  13.031   1.919  0.00  0.00    -0.372 N 
ATOM      3  N   UNL     1     -10.307  12.277  -0.023  0.00  0.00    -0.372 N 
ATOM      4  C   UNL     1     -10.599  12.074   1.266  0.00  0.00    +0.166 C 
ATOM      5  H   UNL     1     -10.467  10.874   2.896  0.00  0.00    +0.163 HD
ATOM      6  H   UNL     1     -11.553  13.885   1.458  0.00  0.00    +0.159 HD
ATOM      7  H   UNL     1     -11.532  12.928   2.892  0.00  0.00    +0.159 HD
ATOM      8  H   UNL     1      -9.799  11.596  -0.571  0.00  0.00    +0.159 HD
ATOM      9  H   UNL     1     -10.573  13.130  -0.499  0.00  0.00    +0.159 HD
ENDROOT
BRANCH   1  10
ATOM     10  C   UNL     1      -9.559   9.828   1.277  0.00  0.00    +0.151 C 
BRANCH  10  11
ATOM     11  C   UNL     1      -8.107   9.852   1.669  0.00  0.00    -0.028 A 
ATOM     12  C   UNL     1      -7.669   9.176   2.817  0.00  0.00    +0.005 A 
ATOM     13  C   UNL     1      -7.164  10.545   0.894  0.00  0.00    +0.005 A 
ATOM     14  C   UNL     1      -6.316   9.173   3.165  0.00  0.00    +0.000 A 
ATOM     15  C   UNL     1      -5.815  10.540   1.246  0.00  0.00    +0.000 A 
ATOM     16  C   UNL     1      -5.390   9.852   2.380  0.00  0.00    +0.000 A 
ENDBRANCH  10  11
ENDBRANCH   1  10
TORSDOF 2
ENDMDL
