MODEL 1
REMARK VINA RESULT:    -5.315      0.000      0.000
REMARK INTER + INTRA:          -6.112
REMARK INTER:                  -5.936
REMARK INTRA:                  -0.176
REMARK UNBOUND:                -0.176
REMARK  Name = 1550473
REMARK  2 active torsions:
REMARK  status: ('A' for Active; 'I' for Inactive)
REMARK    1  A    between atoms: N_1  and  C_4
REMARK    2  A    between atoms: C_4  and  C_5
REMARK                            x       y       z     vdW  Elec       q    Type
REMARK                         _______ _______ _______ _____ _____    ______ ____
ROOT
ATOM      1  N   UNL     1       0.512 -10.178  -6.297  0.00  0.00    -0.354 N 
ATOM      2  N   UNL     1       0.060  -8.985  -4.364  0.00  0.00    -0.372 N 
ATOM      3  N   UNL     1      -0.403 -11.232  -4.415  0.00  0.00    -0.372 N 
ATOM      4  C   UNL     1       0.058 -10.142  -5.037  0.00  0.00    +0.166 C 
ATOM      5  H   UNL     1       0.820  -9.311  -6.723  0.00  0.00    +0.163 HD
ATOM      6  H   UNL     1      -0.273  -8.928  -3.411  0.00  0.00    +0.159 HD
ATOM      7  H   UNL     1       0.411  -8.129  -4.776  0.00  0.00    +0.159 HD
ATOM      8  H   UNL     1      -0.436 -12.135  -4.870  0.00  0.00    +0.159 HD
ATOM      9  H   UNL     1      -0.751 -11.193  -3.465  0.00  0.00    +0.159 HD
ENDROOT
BRANCH   1  10
ATOM     10  C   UNL     1       0.603 -11.396  -7.099  0.00  0.00    +0.151 C 
BRANCH  10  11
ATOM     11  C   UNL     1      -0.466 -11.370  -8.156  0.00  0.00    -0.028 A 
ATOM     12  C   UNL     1      -0.212 -10.798  -9.412  0.00  0.00    +0.005 A 
ATOM     13  C   UNL     1      -1.734 -11.919  -7.911  0.00  0.00    +0.005 A 
ATOM     14  C   UNL     1      -1.195 -10.800 -10.404  0.00  0.00    +0.000 A 
ATOM     15  C   UNL     1      -2.713 -11.918  -8.904  0.00  0.00    +0.000 A 
ATOM     16  C   UNL     1      -2.443 -11.361 -10.151  0.00  0.00    +0.000 A 
ENDBRANCH  10  11
ENDBRANCH   1  10
TORSDOF 2
ENDMDL
MODEL 2
REMARK VINA RESULT:    -5.280     12.943     13.797
REMARK INTER + INTRA:          -6.074
REMARK INTER:                  -5.936
REMARK INTRA:                  -0.138
REMARK UNBOUND:                -0.176
REMARK  Name = 1550473
REMARK  2 active torsions:
REMARK  status: ('A' for Active; 'I' for Inactive)
REMARK    1  A    between atoms: N_1  and  C_4
REMARK    2  A    between atoms: C_4  and  C_5
REMARK                            x       y       z     vdW  Elec       q    Type
REMARK                         _______ _______ _______ _____ _____    ______ ____
ROOT
ATOM      1  N   UNL     1     -13.652  -9.207  -9.774  0.00  0.00    -0.354 N 
ATOM      2  N   UNL     1     -14.395  -7.242 -10.749  0.00  0.00    -0.372 N 
ATOM      3  N   UNL     1     -15.772  -9.077 -10.765  0.00  0.00    -0.372 N 
ATOM      4  C   UNL     1     -14.604  -8.523 -10.424  0.00  0.00    +0.166 C 
ATOM      5  H   UNL     1     -12.777  -8.738  -9.571  0.00  0.00    +0.163 HD
ATOM      6  H   UNL     1     -15.096  -6.700 -11.237  0.00  0.00    +0.159 HD
ATOM      7  H   UNL     1     -13.537  -6.763 -10.504  0.00  0.00    +0.159 HD
ATOM      8  H   UNL     1     -15.989 -10.042 -10.553  0.00  0.00    +0.159 HD
ATOM      9  H   UNL     1     -16.481  -8.555 -11.263  0.00  0.00    +0.159 HD
ENDROOT
BRANCH   1  10
ATOM     10  C   UNL     1     -13.801 -10.591  -9.326  0.00  0.00    +0.151 C 
BRANCH  10  11
ATOM     11  C   UNL     1     -13.431 -10.678  -7.871  0.00  0.00    -0.028 A 
ATOM     12  C   UNL     1     -13.316  -9.516  -7.094  0.00  0.00    +0.005 A 
ATOM     13  C   UNL     1     -13.199 -11.921  -7.262  0.00  0.00    +0.005 A 
ATOM     14  C   UNL     1     -13.001  -9.599  -5.736  0.00  0.00    +0.000 A 
ATOM     15  C   UNL     1     -12.884 -12.000  -5.906  0.00  0.00    +0.000 A 
ATOM     16  C   UNL     1     -12.788 -10.839  -5.142  0.00  0.00    +0.000 A 
ENDBRANCH  10  11
ENDBRANCH   1  10
TORSDOF 2
ENDMDL
MODEL 3
REMARK VINA RESULT:    -5.270     12.968     13.849
REMARK INTER + INTRA:          -6.063
REMARK INTER:                  -5.925
REMARK INTRA:                  -0.138
REMARK UNBOUND:                -0.176
REMARK  Name = 1550473
REMARK  2 active torsions:
REMARK  status: ('A' for Active; 'I' for Inactive)
REMARK    1  A    between atoms: N_1  and  C_4
REMARK    2  A    between atoms: C_4  and  C_5
REMARK                            x       y       z     vdW  Elec       q    Type
REMARK                         _______ _______ _______ _____ _____    ______ ____
ROOT
ATOM      1  N   UNL     1     -13.670  -9.220  -9.814  0.00  0.00    -0.354 N 
ATOM      2  N   UNL     1     -14.437  -7.249 -10.758  0.00  0.00    -0.372 N 
ATOM      3  N   UNL     1     -15.806  -9.090 -10.770  0.00  0.00    -0.372 N 
ATOM      4  C   UNL     1     -14.635  -8.534 -10.442  0.00  0.00    +0.166 C 
ATOM      5  H   UNL     1     -12.793  -8.749  -9.620  0.00  0.00    +0.163 HD
ATOM      6  H   UNL     1     -15.147  -6.705 -11.229  0.00  0.00    +0.159 HD
ATOM      7  H   UNL     1     -13.577  -6.768 -10.522  0.00  0.00    +0.159 HD
ATOM      8  H   UNL     1     -16.015 -10.058 -10.564  0.00  0.00    +0.159 HD
ATOM      9  H   UNL     1     -16.525  -8.565 -11.252  0.00  0.00    +0.159 HD
ENDROOT
BRANCH   1  10
ATOM     10  C   UNL     1     -13.806 -10.608  -9.377  0.00  0.00    +0.151 C 
BRANCH  10  11
ATOM     11  C   UNL     1     -13.467 -10.699  -7.914  0.00  0.00    -0.028 A 
ATOM     12  C   UNL     1     -13.263 -11.946  -7.307  0.00  0.00    +0.005 A 
ATOM     13  C   UNL     1     -13.344  -9.540  -7.132  0.00  0.00    +0.005 A 
ATOM     14  C   UNL     1     -12.919 -12.029  -5.955  0.00  0.00    +0.000 A 
ATOM     15  C   UNL     1     -13.001  -9.627  -5.783  0.00  0.00    +0.000 A 
ATOM     16  C   UNL     1     -12.786 -10.872  -5.196  0.00  0.00    +0.000 A 
ENDBRANCH  10  11
ENDBRANCH   1  10
TORSDOF 2
ENDMDL
MODEL 4
REMARK VINA RESULT:    -5.212      4.715      5.944
REMARK INTER + INTRA:          -5.997
REMARK INTER:                  -5.860
REMARK INTRA:                  -0.137
REMARK UNBOUND:                -0.176
REMARK  Name = 1550473
REMARK  2 active torsions:
REMARK  status: ('A' for Active; 'I' for Inactive)
REMARK    1  A    between atoms: N_1  and  C_4
REMARK    2  A    between atoms: C_4  and  C_5
REMARK                            x       y       z     vdW  Elec       q    Type
REMARK                         _______ _______ _______ _____ _____    ______ ____
ROOT
ATOM      1  N   UNL     1       1.688 -14.377 -11.092  0.00  0.00    -0.354 N 
ATOM      2  N   UNL     1       3.808 -14.460 -12.022  0.00  0.00    -0.372 N 
ATOM      3  N   UNL     1       2.072 -15.475 -13.127  0.00  0.00    -0.372 N 
ATOM      4  C   UNL     1       2.507 -14.772 -12.076  0.00  0.00    +0.166 C 
ATOM      5  H   UNL     1       2.086 -13.873 -10.308  0.00  0.00    +0.163 HD
ATOM      6  H   UNL     1       4.449 -14.741 -12.752  0.00  0.00    +0.159 HD
ATOM      7  H   UNL     1       4.194 -13.916 -11.260  0.00  0.00    +0.159 HD
ATOM      8  H   UNL     1       1.103 -15.748 -13.224  0.00  0.00    +0.159 HD
ATOM      9  H   UNL     1       2.701 -15.776 -13.861  0.00  0.00    +0.159 HD
ENDROOT
BRANCH   1  10
ATOM     10  C   UNL     1       0.247 -14.619 -11.082  0.00  0.00    +0.151 C 
BRANCH  10  11
ATOM     11  C   UNL     1      -0.465 -13.334 -10.760  0.00  0.00    -0.028 A 
ATOM     12  C   UNL     1      -1.813 -13.160 -11.107  0.00  0.00    +0.005 A 
ATOM     13  C   UNL     1       0.202 -12.288 -10.104  0.00  0.00    +0.005 A 
ATOM     14  C   UNL     1      -2.482 -11.978 -10.782  0.00  0.00    +0.000 A 
ATOM     15  C   UNL     1      -0.470 -11.109  -9.781  0.00  0.00    +0.000 A 
ATOM     16  C   UNL     1      -1.812 -10.955 -10.118  0.00  0.00    +0.000 A 
ENDBRANCH  10  11
ENDBRANCH   1  10
TORSDOF 2
ENDMDL
MODEL 5
REMARK VINA RESULT:    -5.139      1.732      2.664
REMARK INTER + INTRA:          -5.916
REMARK INTER:                  -5.819
REMARK INTRA:                  -0.096
REMARK UNBOUND:                -0.176
REMARK  Name = 1550473
REMARK  2 active torsions:
REMARK  status: ('A' for Active; 'I' for Inactive)
REMARK    1  A    between atoms: N_1  and  C_4
REMARK    2  A    between atoms: C_4  and  C_5
REMARK                            x       y       z     vdW  Elec       q    Type
REMARK                         _______ _______ _______ _____ _____    ______ ____
ROOT
ATOM      1  N   UNL     1      -1.208 -11.327  -7.749  0.00  0.00    -0.354 N 
ATOM      2  N   UNL     1      -0.640 -11.447  -5.507  0.00  0.00    -0.372 N 
ATOM      3  N   UNL     1       0.934 -10.728  -7.013  0.00  0.00    -0.372 N 
ATOM      4  C   UNL     1      -0.306 -11.166  -6.772  0.00  0.00    +0.166 C 
ATOM      5  H   UNL     1      -2.122 -11.692  -7.505  0.00  0.00    +0.163 HD
ATOM      6  H   UNL     1       0.018 -11.332  -4.749  0.00  0.00    +0.159 HD
ATOM      7  H   UNL     1      -1.569 -11.767  -5.260  0.00  0.00    +0.159 HD
ATOM      8  H   UNL     1       1.251 -10.503  -7.947  0.00  0.00    +0.159 HD
ATOM      9  H   UNL     1       1.611 -10.617  -6.269  0.00  0.00    +0.159 HD
ENDROOT
BRANCH   1  10
ATOM     10  C   UNL     1      -0.962 -10.999  -9.152  0.00  0.00    +0.151 C 
BRANCH  10  11
ATOM     11  C   UNL     1      -1.941 -11.750 -10.012  0.00  0.00    -0.028 A 
ATOM     12  C   UNL     1      -1.508 -12.809 -10.824  0.00  0.00    +0.005 A 
ATOM     13  C   UNL     1      -3.303 -11.412 -10.015  0.00  0.00    +0.005 A 
ATOM     14  C   UNL     1      -2.422 -13.527 -11.600  0.00  0.00    +0.000 A 
ATOM     15  C   UNL     1      -4.211 -12.130 -10.792  0.00  0.00    +0.000 A 
ATOM     16  C   UNL     1      -3.771 -13.189 -11.582  0.00  0.00    +0.000 A 
ENDBRANCH  10  11
ENDBRANCH   1  10
TORSDOF 2
ENDMDL
MODEL 6
REMARK VINA RESULT:    -4.736      3.234      4.851
REMARK INTER + INTRA:          -5.466
REMARK INTER:                  -5.296
REMARK INTRA:                  -0.170
REMARK UNBOUND:                -0.176
REMARK  Name = 1550473
REMARK  2 active torsions:
REMARK  status: ('A' for Active; 'I' for Inactive)
REMARK    1  A    between atoms: N_1  and  C_4
REMARK    2  A    between atoms: C_4  and  C_5
REMARK                            x       y       z     vdW  Elec       q    Type
REMARK                         _______ _______ _______ _____ _____    ______ ____
ROOT
ATOM      1  N   UNL     1       0.576 -12.177 -10.385  0.00  0.00    -0.354 N 
ATOM      2  N   UNL     1       1.645 -14.142 -10.985  0.00  0.00    -0.372 N 
ATOM      3  N   UNL     1      -0.618 -14.182 -10.604  0.00  0.00    -0.372 N 
ATOM      4  C   UNL     1       0.525 -13.489 -10.654  0.00  0.00    +0.166 C 
ATOM      5  H   UNL     1       1.478 -11.716 -10.411  0.00  0.00    +0.163 HD
ATOM      6  H   UNL     1       1.636 -15.131 -11.196  0.00  0.00    +0.159 HD
ATOM      7  H   UNL     1       2.537 -13.669 -11.055  0.00  0.00    +0.159 HD
ATOM      8  H   UNL     1      -1.497 -13.748 -10.355  0.00  0.00    +0.159 HD
ATOM      9  H   UNL     1      -0.644 -15.174 -10.801  0.00  0.00    +0.159 HD
ENDROOT
BRANCH   1  10
ATOM     10  C   UNL     1      -0.594 -11.361 -10.067  0.00  0.00    +0.151 C 
BRANCH  10  11
ATOM     11  C   UNL     1      -0.744 -11.278  -8.573  0.00  0.00    -0.028 A 
ATOM     12  C   UNL     1      -1.941 -11.666  -7.954  0.00  0.00    +0.005 A 
ATOM     13  C   UNL     1       0.311 -10.818  -7.769  0.00  0.00    +0.005 A 
ATOM     14  C   UNL     1      -2.070 -11.618  -6.564  0.00  0.00    +0.000 A 
ATOM     15  C   UNL     1       0.178 -10.770  -6.382  0.00  0.00    +0.000 A 
ATOM     16  C   UNL     1      -1.012 -11.173  -5.779  0.00  0.00    +0.000 A 
ENDBRANCH  10  11
ENDBRANCH   1  10
TORSDOF 2
ENDMDL
MODEL 7
REMARK VINA RESULT:    -4.655      1.409      2.515
REMARK INTER + INTRA:          -5.375
REMARK INTER:                  -5.274
REMARK INTRA:                  -0.100
REMARK UNBOUND:                -0.176
REMARK  Name = 1550473
REMARK  2 active torsions:
REMARK  status: ('A' for Active; 'I' for Inactive)
REMARK    1  A    between atoms: N_1  and  C_4
REMARK    2  A    between atoms: C_4  and  C_5
REMARK                            x       y       z     vdW  Elec       q    Type
REMARK                         _______ _______ _______ _____ _____    ______ ____
ROOT
ATOM      1  N   UNL     1      -0.981  -9.674  -4.360  0.00  0.00    -0.354 N 
ATOM      2  N   UNL     1      -1.439  -7.893  -2.953  0.00  0.00    -0.372 N 
ATOM      3  N   UNL     1       0.614  -8.910  -2.823  0.00  0.00    -0.372 N 
ATOM      4  C   UNL     1      -0.596  -8.838  -3.387  0.00  0.00    +0.166 C 
ATOM      5  H   UNL     1      -1.923  -9.587  -4.725  0.00  0.00    +0.163 HD
ATOM      6  H   UNL     1      -1.175  -7.245  -2.222  0.00  0.00    +0.159 HD
ATOM      7  H   UNL     1      -2.363  -7.779  -3.351  0.00  0.00    +0.159 HD
ATOM      8  H   UNL     1       1.294  -9.604  -3.102  0.00  0.00    +0.159 HD
ATOM      9  H   UNL     1       0.893  -8.278  -2.083  0.00  0.00    +0.159 HD
ENDROOT
BRANCH   1  10
ATOM     10  C   UNL     1      -0.121 -10.703  -4.942  0.00  0.00    +0.151 C 
BRANCH  10  11
ATOM     11  C   UNL     1      -0.588 -11.001  -6.340  0.00  0.00    -0.028 A 
ATOM     12  C   UNL     1      -1.874 -11.513  -6.567  0.00  0.00    +0.005 A 
ATOM     13  C   UNL     1       0.248 -10.769  -7.442  0.00  0.00    +0.005 A 
ATOM     14  C   UNL     1      -2.319 -11.762  -7.867  0.00  0.00    +0.000 A 
ATOM     15  C   UNL     1      -0.199 -11.019  -8.739  0.00  0.00    +0.000 A 
ATOM     16  C   UNL     1      -1.484 -11.514  -8.951  0.00  0.00    +0.000 A 
ENDBRANCH  10  11
ENDBRANCH   1  10
TORSDOF 2
ENDMDL
MODEL 8
REMARK VINA RESULT:    -4.649      6.352      7.867
REMARK INTER + INTRA:          -5.369
REMARK INTER:                  -5.252
REMARK INTRA:                  -0.117
REMARK UNBOUND:                -0.176
REMARK  Name = 1550473
REMARK  2 active torsions:
REMARK  status: ('A' for Active; 'I' for Inactive)
REMARK    1  A    between atoms: N_1  and  C_4
REMARK    2  A    between atoms: C_4  and  C_5
REMARK                            x       y       z     vdW  Elec       q    Type
REMARK                         _______ _______ _______ _____ _____    ______ ____
ROOT
ATOM      1  N   UNL     1       1.057  -8.438  -2.341  0.00  0.00    -0.354 N 
ATOM      2  N   UNL     1       0.989  -7.432  -4.426  0.00  0.00    -0.372 N 
ATOM      3  N   UNL     1       1.366  -6.127  -2.577  0.00  0.00    -0.372 N 
ATOM      4  C   UNL     1       1.138  -7.337  -3.099  0.00  0.00    +0.166 C 
ATOM      5  H   UNL     1       0.853  -9.321  -2.795  0.00  0.00    +0.163 HD
ATOM      6  H   UNL     1       1.049  -6.619  -5.024  0.00  0.00    +0.159 HD
ATOM      7  H   UNL     1       0.831  -8.323  -4.882  0.00  0.00    +0.159 HD
ATOM      8  H   UNL     1       1.482  -5.987  -1.582  0.00  0.00    +0.159 HD
ATOM      9  H   UNL     1       1.417  -5.300  -3.158  0.00  0.00    +0.159 HD
ENDROOT
BRANCH   1  10
ATOM     10  C   UNL     1       1.258  -8.451  -0.893  0.00  0.00    +0.151 C 
BRANCH  10  11
ATOM     11  C   UNL     1       1.018  -9.842  -0.376  0.00  0.00    -0.028 A 
ATOM     12  C   UNL     1       1.213 -10.954  -1.207  0.00  0.00    +0.005 A 
ATOM     13  C   UNL     1       0.601 -10.055   0.947  0.00  0.00    +0.005 A 
ATOM     14  C   UNL     1       1.019 -12.249  -0.718  0.00  0.00    +0.000 A 
ATOM     15  C   UNL     1       0.407 -11.349   1.431  0.00  0.00    +0.000 A 
ATOM     16  C   UNL     1       0.619 -12.445   0.599  0.00  0.00    +0.000 A 
ENDBRANCH  10  11
ENDBRANCH   1  10
TORSDOF 2
ENDMDL
MODEL 9
REMARK VINA RESULT:    -4.575      4.423      6.436
REMARK INTER + INTRA:          -5.286
REMARK INTER:                  -5.164
REMARK INTRA:                  -0.122
REMARK UNBOUND:                -0.176
REMARK  Name = 1550473
REMARK  2 active torsions:
REMARK  status: ('A' for Active; 'I' for Inactive)
REMARK    1  A    between atoms: N_1  and  C_4
REMARK    2  A    between atoms: C_4  and  C_5
REMARK                            x       y       z     vdW  Elec       q    Type
REMARK                         _______ _______ _______ _____ _____    ______ ____
ROOT
ATOM      1  N   UNL     1      -1.966 -10.100  -3.979  0.00  0.00    -0.354 N 
ATOM      2  N   UNL     1      -3.113 -11.316  -5.582  0.00  0.00    -0.372 N 
ATOM      3  N   UNL     1      -4.080 -11.003  -3.524  0.00  0.00    -0.372 N 
ATOM      4  C   UNL     1      -3.047 -10.799  -4.349  0.00  0.00    +0.166 C 
ATOM      5  H   UNL     1      -1.204 -10.007  -4.641  0.00  0.00    +0.163 HD
ATOM      6  H   UNL     1      -3.918 -11.845  -5.890  0.00  0.00    +0.159 HD
ATOM      7  H   UNL     1      -2.370 -11.182  -6.256  0.00  0.00    +0.159 HD
ATOM      8  H   UNL     1      -4.089 -10.644  -2.579  0.00  0.00    +0.159 HD
ATOM      9  H   UNL     1      -4.889 -11.539  -3.811  0.00  0.00    +0.159 HD
ENDROOT
BRANCH   1  10
ATOM     10  C   UNL     1      -1.818  -9.450  -2.679  0.00  0.00    +0.151 C 
BRANCH  10  11
ATOM     11  C   UNL     1      -0.620  -8.541  -2.717  0.00  0.00    -0.028 A 
ATOM     12  C   UNL     1      -0.135  -8.053  -3.940  0.00  0.00    +0.005 A 
ATOM     13  C   UNL     1       0.031  -8.159  -1.534  0.00  0.00    +0.005 A 
ATOM     14  C   UNL     1       0.959  -7.185  -3.974  0.00  0.00    +0.000 A 
ATOM     15  C   UNL     1       1.123  -7.293  -1.572  0.00  0.00    +0.000 A 
ATOM     16  C   UNL     1       1.585  -6.804  -2.792  0.00  0.00    +0.000 A 
ENDBRANCH  10  11
ENDBRANCH   1  10
TORSDOF 2
ENDMDL
