MODEL 1
REMARK VINA RESULT:    -5.913      0.000      0.000
REMARK INTER + INTRA:          -6.710
REMARK INTER:                  -6.604
REMARK INTRA:                  -0.106
REMARK UNBOUND:                -0.106
REMARK  Name = 1550473
REMARK  2 active torsions:
REMARK  status: ('A' for Active; 'I' for Inactive)
REMARK    1  A    between atoms: N_1  and  C_4
REMARK    2  A    between atoms: C_4  and  C_5
REMARK                            x       y       z     vdW  Elec       q    Type
REMARK                         _______ _______ _______ _____ _____    ______ ____
ROOT
ATOM      1  N   UNL     1       6.965   5.596   3.613  0.00  0.00    -0.354 N 
ATOM      2  N   UNL     1       5.704   6.215   5.455  0.00  0.00    -0.372 N 
ATOM      3  N   UNL     1       7.716   7.255   5.088  0.00  0.00    -0.372 N 
ATOM      4  C   UNL     1       6.805   6.353   4.707  0.00  0.00    +0.166 C 
ATOM      5  H   UNL     1       6.252   4.909   3.395  0.00  0.00    +0.163 HD
ATOM      6  H   UNL     1       5.555   6.774   6.284  0.00  0.00    +0.159 HD
ATOM      7  H   UNL     1       4.972   5.560   5.210  0.00  0.00    +0.159 HD
ATOM      8  H   UNL     1       8.572   7.403   4.570  0.00  0.00    +0.159 HD
ATOM      9  H   UNL     1       7.590   7.816   5.922  0.00  0.00    +0.159 HD
ENDROOT
BRANCH   1  10
ATOM     10  C   UNL     1       8.102   5.706   2.701  0.00  0.00    +0.151 C 
BRANCH  10  11
ATOM     11  C   UNL     1       7.616   5.535   1.288  0.00  0.00    -0.028 A 
ATOM     12  C   UNL     1       7.321   4.259   0.786  0.00  0.00    +0.005 A 
ATOM     13  C   UNL     1       7.444   6.646   0.448  0.00  0.00    +0.005 A 
ATOM     14  C   UNL     1       6.842   4.103  -0.517  0.00  0.00    +0.000 A 
ATOM     15  C   UNL     1       6.966   6.486  -0.852  0.00  0.00    +0.000 A 
ATOM     16  C   UNL     1       6.663   5.214  -1.333  0.00  0.00    +0.000 A 
ENDBRANCH  10  11
ENDBRANCH   1  10
TORSDOF 2
ENDMDL
MODEL 2
REMARK VINA RESULT:    -5.396      1.276      2.047
REMARK INTER + INTRA:          -6.133
REMARK INTER:                  -6.008
REMARK INTRA:                  -0.125
REMARK UNBOUND:                -0.106
REMARK  Name = 1550473
REMARK  2 active torsions:
REMARK  status: ('A' for Active; 'I' for Inactive)
REMARK    1  A    between atoms: N_1  and  C_4
REMARK    2  A    between atoms: C_4  and  C_5
REMARK                            x       y       z     vdW  Elec       q    Type
REMARK                         _______ _______ _______ _____ _____    ______ ____
ROOT
ATOM      1  N   UNL     1       7.763   5.836   3.105  0.00  0.00    -0.354 N 
ATOM      2  N   UNL     1       8.219   7.236   4.893  0.00  0.00    -0.372 N 
ATOM      3  N   UNL     1       6.238   6.078   4.869  0.00  0.00    -0.372 N 
ATOM      4  C   UNL     1       7.401   6.374   4.278  0.00  0.00    +0.166 C 
ATOM      5  H   UNL     1       8.644   6.124   2.695  0.00  0.00    +0.163 HD
ATOM      6  H   UNL     1       7.975   7.655   5.780  0.00  0.00    +0.159 HD
ATOM      7  H   UNL     1       9.120   7.487   4.503  0.00  0.00    +0.159 HD
ATOM      8  H   UNL     1       5.574   5.439   4.454  0.00  0.00    +0.159 HD
ATOM      9  H   UNL     1       5.971   6.496   5.751  0.00  0.00    +0.159 HD
ENDROOT
BRANCH   1  10
ATOM     10  C   UNL     1       6.969   4.846   2.380  0.00  0.00    +0.151 C 
BRANCH  10  11
ATOM     11  C   UNL     1       7.503   4.717   0.981  0.00  0.00    -0.028 A 
ATOM     12  C   UNL     1       8.626   5.454   0.577  0.00  0.00    +0.005 A 
ATOM     13  C   UNL     1       6.895   3.856   0.055  0.00  0.00    +0.005 A 
ATOM     14  C   UNL     1       9.141   5.313  -0.714  0.00  0.00    +0.000 A 
ATOM     15  C   UNL     1       7.411   3.718  -1.233  0.00  0.00    +0.000 A 
ATOM     16  C   UNL     1       8.536   4.444  -1.617  0.00  0.00    +0.000 A 
ENDBRANCH  10  11
ENDBRANCH   1  10
TORSDOF 2
ENDMDL
MODEL 3
REMARK VINA RESULT:    -5.191      2.229      2.521
REMARK INTER + INTRA:          -5.903
REMARK INTER:                  -5.769
REMARK INTRA:                  -0.134
REMARK UNBOUND:                -0.106
REMARK  Name = 1550473
REMARK  2 active torsions:
REMARK  status: ('A' for Active; 'I' for Inactive)
REMARK    1  A    between atoms: N_1  and  C_4
REMARK    2  A    between atoms: C_4  and  C_5
REMARK                            x       y       z     vdW  Elec       q    Type
REMARK                         _______ _______ _______ _____ _____    ______ ____
ROOT
ATOM      1  N   UNL     1       7.242   7.847   1.255  0.00  0.00    -0.354 N 
ATOM      2  N   UNL     1       6.432   8.960   3.117  0.00  0.00    -0.372 N 
ATOM      3  N   UNL     1       8.701   8.764   2.843  0.00  0.00    -0.372 N 
ATOM      4  C   UNL     1       7.466   8.516   2.394  0.00  0.00    +0.166 C 
ATOM      5  H   UNL     1       6.283   7.665   0.985  0.00  0.00    +0.163 HD
ATOM      6  H   UNL     1       6.570   9.471   3.979  0.00  0.00    +0.159 HD
ATOM      7  H   UNL     1       5.474   8.817   2.821  0.00  0.00    +0.159 HD
ATOM      8  H   UNL     1       9.525   8.451   2.347  0.00  0.00    +0.159 HD
ATOM      9  H   UNL     1       8.860   9.264   3.709  0.00  0.00    +0.159 HD
ENDROOT
BRANCH   1  10
ATOM     10  C   UNL     1       8.300   7.368   0.367  0.00  0.00    +0.151 C 
BRANCH  10  11
ATOM     11  C   UNL     1       7.940   5.995  -0.130  0.00  0.00    -0.028 A 
ATOM     12  C   UNL     1       7.408   5.038   0.747  0.00  0.00    +0.005 A 
ATOM     13  C   UNL     1       8.123   5.646  -1.477  0.00  0.00    +0.005 A 
ATOM     14  C   UNL     1       7.046   3.772   0.280  0.00  0.00    +0.000 A 
ATOM     15  C   UNL     1       7.760   4.381  -1.939  0.00  0.00    +0.000 A 
ATOM     16  C   UNL     1       7.220   3.445  -1.060  0.00  0.00    +0.000 A 
ENDBRANCH  10  11
ENDBRANCH   1  10
TORSDOF 2
ENDMDL
MODEL 4
REMARK VINA RESULT:    -5.082     13.527     15.434
REMARK INTER + INTRA:          -5.782
REMARK INTER:                  -5.628
REMARK INTRA:                  -0.154
REMARK UNBOUND:                -0.106
REMARK  Name = 1550473
REMARK  2 active torsions:
REMARK  status: ('A' for Active; 'I' for Inactive)
REMARK    1  A    between atoms: N_1  and  C_4
REMARK    2  A    between atoms: C_4  and  C_5
REMARK                            x       y       z     vdW  Elec       q    Type
REMARK                         _______ _______ _______ _____ _____    ______ ____
ROOT
ATOM      1  N   UNL     1       4.165  -2.769 -11.421  0.00  0.00    -0.354 N 
ATOM      2  N   UNL     1       2.245  -2.383 -12.657  0.00  0.00    -0.372 N 
ATOM      3  N   UNL     1       2.627  -4.489 -11.829  0.00  0.00    -0.372 N 
ATOM      4  C   UNL     1       3.025  -3.219 -11.961  0.00  0.00    +0.166 C 
ATOM      5  H   UNL     1       4.426  -1.802 -11.583  0.00  0.00    +0.163 HD
ATOM      6  H   UNL     1       1.377  -2.693 -13.072  0.00  0.00    +0.159 HD
ATOM      7  H   UNL     1       2.485  -1.406 -12.778  0.00  0.00    +0.159 HD
ATOM      8  H   UNL     1       3.173  -5.171 -11.321  0.00  0.00    +0.159 HD
ATOM      9  H   UNL     1       1.767  -4.821 -12.248  0.00  0.00    +0.159 HD
ENDROOT
BRANCH   1  10
ATOM     10  C   UNL     1       5.059  -3.583 -10.600  0.00  0.00    +0.151 C 
BRANCH  10  11
ATOM     11  C   UNL     1       5.159  -2.973  -9.229  0.00  0.00    -0.028 A 
ATOM     12  C   UNL     1       6.375  -2.444  -8.772  0.00  0.00    +0.005 A 
ATOM     13  C   UNL     1       4.040  -2.916  -8.384  0.00  0.00    +0.005 A 
ATOM     14  C   UNL     1       6.461  -1.850  -7.511  0.00  0.00    +0.000 A 
ATOM     15  C   UNL     1       4.130  -2.323  -7.125  0.00  0.00    +0.000 A 
ATOM     16  C   UNL     1       5.340  -1.788  -6.690  0.00  0.00    +0.000 A 
ENDBRANCH  10  11
ENDBRANCH   1  10
TORSDOF 2
ENDMDL
MODEL 5
REMARK VINA RESULT:    -5.015     12.749     13.447
REMARK INTER + INTRA:          -5.707
REMARK INTER:                  -5.580
REMARK INTRA:                  -0.127
REMARK UNBOUND:                -0.106
REMARK  Name = 1550473
REMARK  2 active torsions:
REMARK  status: ('A' for Active; 'I' for Inactive)
REMARK    1  A    between atoms: N_1  and  C_4
REMARK    2  A    between atoms: C_4  and  C_5
REMARK                            x       y       z     vdW  Elec       q    Type
REMARK                         _______ _______ _______ _____ _____    ______ ____
ROOT
ATOM      1  N   UNL     1      -3.516   9.436  -0.435  0.00  0.00    -0.354 N 
ATOM      2  N   UNL     1      -1.885  11.064  -0.668  0.00  0.00    -0.372 N 
ATOM      3  N   UNL     1      -2.883  10.216  -2.552  0.00  0.00    -0.372 N 
ATOM      4  C   UNL     1      -2.773  10.228  -1.220  0.00  0.00    +0.166 C 
ATOM      5  H   UNL     1      -3.364   9.471   0.566  0.00  0.00    +0.163 HD
ATOM      6  H   UNL     1      -1.313  11.676  -1.234  0.00  0.00    +0.159 HD
ATOM      7  H   UNL     1      -1.767  11.129   0.336  0.00  0.00    +0.159 HD
ATOM      8  H   UNL     1      -3.530   9.604  -3.031  0.00  0.00    +0.159 HD
ATOM      9  H   UNL     1      -2.310  10.813  -3.137  0.00  0.00    +0.159 HD
ENDROOT
BRANCH   1  10
ATOM     10  C   UNL     1      -4.549   8.529  -0.933  0.00  0.00    +0.151 C 
BRANCH  10  11
ATOM     11  C   UNL     1      -5.600   8.352   0.127  0.00  0.00    -0.028 A 
ATOM     12  C   UNL     1      -5.890   9.392   1.023  0.00  0.00    +0.005 A 
ATOM     13  C   UNL     1      -6.315   7.149   0.237  0.00  0.00    +0.005 A 
ATOM     14  C   UNL     1      -6.887   9.239   1.989  0.00  0.00    +0.000 A 
ATOM     15  C   UNL     1      -7.310   7.000   1.204  0.00  0.00    +0.000 A 
ATOM     16  C   UNL     1      -7.597   8.046   2.078  0.00  0.00    +0.000 A 
ENDBRANCH  10  11
ENDBRANCH   1  10
TORSDOF 2
ENDMDL
MODEL 6
REMARK VINA RESULT:    -4.888     13.578     15.529
REMARK INTER + INTRA:          -5.565
REMARK INTER:                  -5.428
REMARK INTRA:                  -0.137
REMARK UNBOUND:                -0.106
REMARK  Name = 1550473
REMARK  2 active torsions:
REMARK  status: ('A' for Active; 'I' for Inactive)
REMARK    1  A    between atoms: N_1  and  C_4
REMARK    2  A    between atoms: C_4  and  C_5
REMARK                            x       y       z     vdW  Elec       q    Type
REMARK                         _______ _______ _______ _____ _____    ______ ____
ROOT
ATOM      1  N   UNL     1       3.852  -4.240 -10.620  0.00  0.00    -0.354 N 
ATOM      2  N   UNL     1       2.008  -5.408 -11.394  0.00  0.00    -0.372 N 
ATOM      3  N   UNL     1       3.993  -6.526 -11.117  0.00  0.00    -0.372 N 
ATOM      4  C   UNL     1       3.298  -5.386 -11.039  0.00  0.00    +0.166 C 
ATOM      5  H   UNL     1       3.280  -3.404 -10.612  0.00  0.00    +0.163 HD
ATOM      6  H   UNL     1       1.562  -6.259 -11.711  0.00  0.00    +0.159 HD
ATOM      7  H   UNL     1       1.427  -4.581 -11.342  0.00  0.00    +0.159 HD
ATOM      8  H   UNL     1       4.972  -6.575 -10.868  0.00  0.00    +0.159 HD
ATOM      9  H   UNL     1       3.567  -7.385 -11.442  0.00  0.00    +0.159 HD
ENDROOT
BRANCH   1  10
ATOM     10  C   UNL     1       5.234  -4.121 -10.159  0.00  0.00    +0.151 C 
BRANCH  10  11
ATOM     11  C   UNL     1       5.272  -3.236  -8.944  0.00  0.00    -0.028 A 
ATOM     12  C   UNL     1       4.137  -3.091  -8.133  0.00  0.00    +0.005 A 
ATOM     13  C   UNL     1       6.442  -2.544  -8.594  0.00  0.00    +0.005 A 
ATOM     14  C   UNL     1       4.181  -2.293  -6.987  0.00  0.00    +0.000 A 
ATOM     15  C   UNL     1       6.481  -1.747  -7.450  0.00  0.00    +0.000 A 
ATOM     16  C   UNL     1       5.351  -1.624  -6.646  0.00  0.00    +0.000 A 
ENDBRANCH  10  11
ENDBRANCH   1  10
TORSDOF 2
ENDMDL
MODEL 7
REMARK VINA RESULT:    -4.773     15.275     16.227
REMARK INTER + INTRA:          -5.437
REMARK INTER:                  -5.298
REMARK INTRA:                  -0.139
REMARK UNBOUND:                -0.106
REMARK  Name = 1550473
REMARK  2 active torsions:
REMARK  status: ('A' for Active; 'I' for Inactive)
REMARK    1  A    between atoms: N_1  and  C_4
REMARK    2  A    between atoms: C_4  and  C_5
REMARK                            x       y       z     vdW  Elec       q    Type
REMARK                         _______ _______ _______ _____ _____    ______ ____
ROOT
ATOM      1  N   UNL     1      -6.819  -3.012   1.807  0.00  0.00    -0.354 N 
ATOM      2  N   UNL     1      -6.994  -5.016   2.953  0.00  0.00    -0.372 N 
ATOM      3  N   UNL     1      -4.927  -4.047   2.724  0.00  0.00    -0.372 N 
ATOM      4  C   UNL     1      -6.243  -4.011   2.487  0.00  0.00    +0.166 C 
ATOM      5  H   UNL     1      -7.817  -3.059   1.635  0.00  0.00    +0.163 HD
ATOM      6  H   UNL     1      -6.588  -5.782   3.473  0.00  0.00    +0.159 HD
ATOM      7  H   UNL     1      -7.998  -5.037   2.820  0.00  0.00    +0.159 HD
ATOM      8  H   UNL     1      -4.304  -3.322   2.393  0.00  0.00    +0.159 HD
ATOM      9  H   UNL     1      -4.500  -4.811   3.232  0.00  0.00    +0.159 HD
ENDROOT
BRANCH   1  10
ATOM     10  C   UNL     1      -6.098  -1.844   1.303  0.00  0.00    +0.151 C 
BRANCH  10  11
ATOM     11  C   UNL     1      -6.582  -1.530  -0.086  0.00  0.00    -0.028 A 
ATOM     12  C   UNL     1      -6.312  -0.283  -0.669  0.00  0.00    +0.005 A 
ATOM     13  C   UNL     1      -7.304  -2.478  -0.827  0.00  0.00    +0.005 A 
ATOM     14  C   UNL     1      -6.735  -0.002  -1.971  0.00  0.00    +0.000 A 
ATOM     15  C   UNL     1      -7.725  -2.193  -2.126  0.00  0.00    +0.000 A 
ATOM     16  C   UNL     1      -7.438  -0.956  -2.699  0.00  0.00    +0.000 A 
ENDBRANCH  10  11
ENDBRANCH   1  10
TORSDOF 2
ENDMDL
MODEL 8
REMARK VINA RESULT:    -4.498     16.664     17.738
REMARK INTER + INTRA:          -5.129
REMARK INTER:                  -4.978
REMARK INTRA:                  -0.151
REMARK UNBOUND:                -0.106
REMARK  Name = 1550473
REMARK  2 active torsions:
REMARK  status: ('A' for Active; 'I' for Inactive)
REMARK    1  A    between atoms: N_1  and  C_4
REMARK    2  A    between atoms: C_4  and  C_5
REMARK                            x       y       z     vdW  Elec       q    Type
REMARK                         _______ _______ _______ _____ _____    ______ ____
ROOT
ATOM      1  N   UNL     1      -7.547  -2.349  -1.444  0.00  0.00    -0.354 N 
ATOM      2  N   UNL     1      -8.724  -2.967  -3.341  0.00  0.00    -0.372 N 
ATOM      3  N   UNL     1      -9.812  -1.800  -1.692  0.00  0.00    -0.372 N 
ATOM      4  C   UNL     1      -8.689  -2.367  -2.145  0.00  0.00    +0.166 C 
ATOM      5  H   UNL     1      -6.739  -2.823  -1.829  0.00  0.00    +0.163 HD
ATOM      6  H   UNL     1      -9.570  -2.994  -3.894  0.00  0.00    +0.159 HD
ATOM      7  H   UNL     1      -7.902  -3.400  -3.744  0.00  0.00    +0.159 HD
ATOM      8  H   UNL     1      -9.853  -1.336  -0.794  0.00  0.00    +0.159 HD
ATOM      9  H   UNL     1     -10.672  -1.826  -2.226  0.00  0.00    +0.159 HD
ENDROOT
BRANCH   1  10
ATOM     10  C   UNL     1      -7.389  -1.676  -0.156  0.00  0.00    +0.151 C 
BRANCH  10  11
ATOM     11  C   UNL     1      -7.049  -2.697   0.894  0.00  0.00    -0.028 A 
ATOM     12  C   UNL     1      -7.927  -3.757   1.167  0.00  0.00    +0.005 A 
ATOM     13  C   UNL     1      -5.848  -2.615   1.615  0.00  0.00    +0.005 A 
ATOM     14  C   UNL     1      -7.598  -4.723   2.121  0.00  0.00    +0.000 A 
ATOM     15  C   UNL     1      -5.524  -3.581   2.567  0.00  0.00    +0.000 A 
ATOM     16  C   UNL     1      -6.398  -4.636   2.818  0.00  0.00    +0.000 A 
ENDBRANCH  10  11
ENDBRANCH   1  10
TORSDOF 2
ENDMDL
MODEL 9
REMARK VINA RESULT:    -4.483     12.816     13.564
REMARK INTER + INTRA:          -5.113
REMARK INTER:                  -4.944
REMARK INTRA:                  -0.168
REMARK UNBOUND:                -0.106
REMARK  Name = 1550473
REMARK  2 active torsions:
REMARK  status: ('A' for Active; 'I' for Inactive)
REMARK    1  A    between atoms: N_1  and  C_4
REMARK    2  A    between atoms: C_4  and  C_5
REMARK                            x       y       z     vdW  Elec       q    Type
REMARK                         _______ _______ _______ _____ _____    ______ ____
ROOT
ATOM      1  N   UNL     1      -4.287   8.906  -2.501  0.00  0.00    -0.354 N 
ATOM      2  N   UNL     1      -5.299   9.501  -4.498  0.00  0.00    -0.372 N 
ATOM      3  N   UNL     1      -3.885  10.996  -3.482  0.00  0.00    -0.372 N 
ATOM      4  C   UNL     1      -4.482   9.800  -3.480  0.00  0.00    +0.166 C 
ATOM      5  H   UNL     1      -4.794   8.029  -2.543  0.00  0.00    +0.163 HD
ATOM      6  H   UNL     1      -5.463  10.154  -5.253  0.00  0.00    +0.159 HD
ATOM      7  H   UNL     1      -5.768   8.606  -4.560  0.00  0.00    +0.159 HD
ATOM      8  H   UNL     1      -3.261  11.284  -2.740  0.00  0.00    +0.159 HD
ATOM      9  H   UNL     1      -4.045  11.667  -4.223  0.00  0.00    +0.159 HD
ENDROOT
BRANCH   1  10
ATOM     10  C   UNL     1      -3.377   9.111  -1.376  0.00  0.00    +0.151 C 
BRANCH  10  11
ATOM     11  C   UNL     1      -4.154   9.651  -0.207  0.00  0.00    -0.028 A 
ATOM     12  C   UNL     1      -5.299   8.985   0.255  0.00  0.00    +0.005 A 
ATOM     13  C   UNL     1      -3.748  10.825   0.446  0.00  0.00    +0.005 A 
ATOM     14  C   UNL     1      -6.004   9.469   1.359  0.00  0.00    +0.000 A 
ATOM     15  C   UNL     1      -4.456  11.306   1.547  0.00  0.00    +0.000 A 
ATOM     16  C   UNL     1      -5.582  10.626   2.005  0.00  0.00    +0.000 A 
ENDBRANCH  10  11
ENDBRANCH   1  10
TORSDOF 2
ENDMDL
