MODEL 1
REMARK VINA RESULT:    -4.554      0.000      0.000
REMARK INTER + INTRA:          -5.208
REMARK INTER:                  -5.087
REMARK INTRA:                  -0.121
REMARK UNBOUND:                -0.121
REMARK  Name = 1550473
REMARK  2 active torsions:
REMARK  status: ('A' for Active; 'I' for Inactive)
REMARK    1  A    between atoms: N_1  and  C_4
REMARK    2  A    between atoms: C_4  and  C_5
REMARK                            x       y       z     vdW  Elec       q    Type
REMARK                         _______ _______ _______ _____ _____    ______ ____
ROOT
ATOM      1  N   UNL     1      10.688  19.209  30.430  0.00  0.00    -0.354 N 
ATOM      2  N   UNL     1       9.042  19.181  32.059  0.00  0.00    -0.372 N 
ATOM      3  N   UNL     1       9.899  17.187  31.314  0.00  0.00    -0.372 N 
ATOM      4  C   UNL     1       9.887  18.523  31.257  0.00  0.00    +0.166 C 
ATOM      5  H   UNL     1      10.609  20.220  30.412  0.00  0.00    +0.163 HD
ATOM      6  H   UNL     1       8.428  18.690  32.696  0.00  0.00    +0.159 HD
ATOM      7  H   UNL     1       8.998  20.193  32.072  0.00  0.00    +0.159 HD
ATOM      8  H   UNL     1      10.510  16.632  30.730  0.00  0.00    +0.159 HD
ATOM      9  H   UNL     1       9.285  16.678  31.937  0.00  0.00    +0.159 HD
ENDROOT
BRANCH   1  10
ATOM     10  C   UNL     1      11.682  18.591  29.554  0.00  0.00    +0.151 C 
BRANCH  10  11
ATOM     11  C   UNL     1      12.449  19.671  28.842  0.00  0.00    -0.028 A 
ATOM     12  C   UNL     1      13.636  19.369  28.160  0.00  0.00    +0.005 A 
ATOM     13  C   UNL     1      11.990  20.997  28.842  0.00  0.00    +0.005 A 
ATOM     14  C   UNL     1      14.333  20.367  27.473  0.00  0.00    +0.000 A 
ATOM     15  C   UNL     1      12.689  21.990  28.156  0.00  0.00    +0.000 A 
ATOM     16  C   UNL     1      13.859  21.674  27.470  0.00  0.00    +0.000 A 
ENDBRANCH  10  11
ENDBRANCH   1  10
TORSDOF 2
ENDMDL
MODEL 2
REMARK VINA RESULT:    -4.531     21.913     22.696
REMARK INTER + INTRA:          -5.182
REMARK INTER:                  -5.053
REMARK INTRA:                  -0.129
REMARK UNBOUND:                -0.121
REMARK  Name = 1550473
REMARK  2 active torsions:
REMARK  status: ('A' for Active; 'I' for Inactive)
REMARK    1  A    between atoms: N_1  and  C_4
REMARK    2  A    between atoms: C_4  and  C_5
REMARK                            x       y       z     vdW  Elec       q    Type
REMARK                         _______ _______ _______ _____ _____    ______ ____
ROOT
ATOM      1  N   UNL     1       6.750  16.947   6.891  0.00  0.00    -0.354 N 
ATOM      2  N   UNL     1       4.722  16.265   6.005  0.00  0.00    -0.372 N 
ATOM      3  N   UNL     1       4.859  16.703   8.254  0.00  0.00    -0.372 N 
ATOM      4  C   UNL     1       5.456  16.643   7.059  0.00  0.00    +0.166 C 
ATOM      5  H   UNL     1       7.151  16.852   5.965  0.00  0.00    +0.163 HD
ATOM      6  H   UNL     1       3.742  16.032   6.100  0.00  0.00    +0.159 HD
ATOM      7  H   UNL     1       5.114  16.215   5.073  0.00  0.00    +0.159 HD
ATOM      8  H   UNL     1       5.359  16.976   9.089  0.00  0.00    +0.159 HD
ATOM      9  H   UNL     1       3.882  16.463   8.371  0.00  0.00    +0.159 HD
ENDROOT
BRANCH   1  10
ATOM     10  C   UNL     1       7.623  17.422   7.963  0.00  0.00    +0.151 C 
BRANCH  10  11
ATOM     11  C   UNL     1       9.012  16.891   7.736  0.00  0.00    -0.028 A 
ATOM     12  C   UNL     1       9.943  16.860   8.785  0.00  0.00    +0.005 A 
ATOM     13  C   UNL     1       9.402  16.412   6.476  0.00  0.00    +0.005 A 
ATOM     14  C   UNL     1      11.223  16.340   8.582  0.00  0.00    +0.000 A 
ATOM     15  C   UNL     1      10.681  15.894   6.277  0.00  0.00    +0.000 A 
ATOM     16  C   UNL     1      11.591  15.855   7.331  0.00  0.00    +0.000 A 
ENDBRANCH  10  11
ENDBRANCH   1  10
TORSDOF 2
ENDMDL
MODEL 3
REMARK VINA RESULT:    -4.498      3.610      5.258
REMARK INTER + INTRA:          -5.146
REMARK INTER:                  -4.988
REMARK INTRA:                  -0.158
REMARK UNBOUND:                -0.121
REMARK  Name = 1550473
REMARK  2 active torsions:
REMARK  status: ('A' for Active; 'I' for Inactive)
REMARK    1  A    between atoms: N_1  and  C_4
REMARK    2  A    between atoms: C_4  and  C_5
REMARK                            x       y       z     vdW  Elec       q    Type
REMARK                         _______ _______ _______ _____ _____    ______ ____
ROOT
ATOM      1  N   UNL     1      14.066  19.441  26.593  0.00  0.00    -0.354 N 
ATOM      2  N   UNL     1      13.849  19.731  24.305  0.00  0.00    -0.372 N 
ATOM      3  N   UNL     1      13.058  21.364  25.709  0.00  0.00    -0.372 N 
ATOM      4  C   UNL     1      13.658  20.179  25.552  0.00  0.00    +0.166 C 
ATOM      5  H   UNL     1      14.487  18.538  26.407  0.00  0.00    +0.163 HD
ATOM      6  H   UNL     1      13.555  20.267  23.500  0.00  0.00    +0.159 HD
ATOM      7  H   UNL     1      14.312  18.849  24.121  0.00  0.00    +0.159 HD
ATOM      8  H   UNL     1      12.878  21.755  26.624  0.00  0.00    +0.159 HD
ATOM      9  H   UNL     1      12.746  21.910  24.916  0.00  0.00    +0.159 HD
ENDROOT
BRANCH   1  10
ATOM     10  C   UNL     1      13.953  19.863  27.988  0.00  0.00    +0.151 C 
BRANCH  10  11
ATOM     11  C   UNL     1      12.894  19.038  28.666  0.00  0.00    -0.028 A 
ATOM     12  C   UNL     1      12.780  17.666  28.397  0.00  0.00    +0.005 A 
ATOM     13  C   UNL     1      12.005  19.621  29.582  0.00  0.00    +0.005 A 
ATOM     14  C   UNL     1      11.816  16.893  29.050  0.00  0.00    +0.000 A 
ATOM     15  C   UNL     1      11.044  18.846  30.231  0.00  0.00    +0.000 A 
ATOM     16  C   UNL     1      10.951  17.482  29.966  0.00  0.00    +0.000 A 
ENDBRANCH  10  11
ENDBRANCH   1  10
TORSDOF 2
ENDMDL
MODEL 4
REMARK VINA RESULT:    -4.466     16.547     17.275
REMARK INTER + INTRA:          -5.109
REMARK INTER:                  -4.991
REMARK INTRA:                  -0.118
REMARK UNBOUND:                -0.121
REMARK  Name = 1550473
REMARK  2 active torsions:
REMARK  status: ('A' for Active; 'I' for Inactive)
REMARK    1  A    between atoms: N_1  and  C_4
REMARK    2  A    between atoms: C_4  and  C_5
REMARK                            x       y       z     vdW  Elec       q    Type
REMARK                         _______ _______ _______ _____ _____    ______ ____
ROOT
ATOM      1  N   UNL     1       1.945  22.668  18.164  0.00  0.00    -0.354 N 
ATOM      2  N   UNL     1       4.078  21.768  18.075  0.00  0.00    -0.372 N 
ATOM      3  N   UNL     1       3.321  23.005  16.296  0.00  0.00    -0.372 N 
ATOM      4  C   UNL     1       3.100  22.488  17.510  0.00  0.00    +0.166 C 
ATOM      5  H   UNL     1       1.830  22.225  19.068  0.00  0.00    +0.163 HD
ATOM      6  H   UNL     1       4.961  21.618  17.607  0.00  0.00    +0.159 HD
ATOM      7  H   UNL     1       3.976  21.365  18.998  0.00  0.00    +0.159 HD
ATOM      8  H   UNL     1       2.621  23.552  15.813  0.00  0.00    +0.159 HD
ATOM      9  H   UNL     1       4.194  22.855  15.807  0.00  0.00    +0.159 HD
ENDROOT
BRANCH   1  10
ATOM     10  C   UNL     1       0.838  23.479  17.660  0.00  0.00    +0.151 C 
BRANCH  10  11
ATOM     11  C   UNL     1      -0.444  22.709  17.813  0.00  0.00    -0.028 A 
ATOM     12  C   UNL     1      -1.242  22.427  16.695  0.00  0.00    +0.005 A 
ATOM     13  C   UNL     1      -0.864  22.254  19.072  0.00  0.00    +0.005 A 
ATOM     14  C   UNL     1      -2.419  21.685  16.832  0.00  0.00    +0.000 A 
ATOM     15  C   UNL     1      -2.039  21.514  19.205  0.00  0.00    +0.000 A 
ATOM     16  C   UNL     1      -2.815  21.228  18.084  0.00  0.00    +0.000 A 
ENDBRANCH  10  11
ENDBRANCH   1  10
TORSDOF 2
ENDMDL
MODEL 5
REMARK VINA RESULT:    -4.434     24.637     25.205
REMARK INTER + INTRA:          -5.073
REMARK INTER:                  -4.951
REMARK INTRA:                  -0.122
REMARK UNBOUND:                -0.121
REMARK  Name = 1550473
REMARK  2 active torsions:
REMARK  status: ('A' for Active; 'I' for Inactive)
REMARK    1  A    between atoms: N_1  and  C_4
REMARK    2  A    between atoms: C_4  and  C_5
REMARK                            x       y       z     vdW  Elec       q    Type
REMARK                         _______ _______ _______ _____ _____    ______ ____
ROOT
ATOM      1  N   UNL     1      29.582  10.527  46.417  0.00  0.00    -0.354 N 
ATOM      2  N   UNL     1      29.058  11.282  48.543  0.00  0.00    -0.372 N 
ATOM      3  N   UNL     1      28.666   9.082  48.020  0.00  0.00    -0.372 N 
ATOM      4  C   UNL     1      29.105  10.289  47.646  0.00  0.00    +0.166 C 
ATOM      5  H   UNL     1      29.870  11.471  46.187  0.00  0.00    +0.163 HD
ATOM      6  H   UNL     1      28.706  11.132  49.479  0.00  0.00    +0.159 HD
ATOM      7  H   UNL     1      29.390  12.213  48.325  0.00  0.00    +0.159 HD
ATOM      8  H   UNL     1      28.669   8.293  47.388  0.00  0.00    +0.159 HD
ATOM      9  H   UNL     1      28.300   8.915  48.948  0.00  0.00    +0.159 HD
ENDROOT
BRANCH   1  10
ATOM     10  C   UNL     1      29.725   9.503  45.384  0.00  0.00    +0.151 C 
BRANCH  10  11
ATOM     11  C   UNL     1      29.684  10.160  44.032  0.00  0.00    -0.028 A 
ATOM     12  C   UNL     1      29.346   9.419  42.890  0.00  0.00    +0.005 A 
ATOM     13  C   UNL     1      29.976  11.525  43.887  0.00  0.00    +0.005 A 
ATOM     14  C   UNL     1      29.278  10.035  41.639  0.00  0.00    +0.000 A 
ATOM     15  C   UNL     1      29.907  12.136  42.635  0.00  0.00    +0.000 A 
ATOM     16  C   UNL     1      29.556  11.392  41.512  0.00  0.00    +0.000 A 
ENDBRANCH  10  11
ENDBRANCH   1  10
TORSDOF 2
ENDMDL
MODEL 6
REMARK VINA RESULT:    -4.358     60.163     60.848
REMARK INTER + INTRA:          -4.989
REMARK INTER:                  -4.891
REMARK INTRA:                  -0.098
REMARK UNBOUND:                -0.121
REMARK  Name = 1550473
REMARK  2 active torsions:
REMARK  status: ('A' for Active; 'I' for Inactive)
REMARK    1  A    between atoms: N_1  and  C_4
REMARK    2  A    between atoms: C_4  and  C_5
REMARK                            x       y       z     vdW  Elec       q    Type
REMARK                         _______ _______ _______ _____ _____    ______ ____
ROOT
ATOM      1  N   UNL     1       4.000  -5.563 -24.532  0.00  0.00    -0.354 N 
ATOM      2  N   UNL     1       4.817  -6.753 -22.721  0.00  0.00    -0.372 N 
ATOM      3  N   UNL     1       3.258  -7.740 -24.085  0.00  0.00    -0.372 N 
ATOM      4  C   UNL     1       4.018  -6.679 -23.792  0.00  0.00    +0.166 C 
ATOM      5  H   UNL     1       4.577  -4.782 -24.240  0.00  0.00    +0.163 HD
ATOM      6  H   UNL     1       4.854  -7.583 -22.146  0.00  0.00    +0.159 HD
ATOM      7  H   UNL     1       5.427  -5.988 -22.458  0.00  0.00    +0.159 HD
ATOM      8  H   UNL     1       2.629  -7.746 -24.877  0.00  0.00    +0.159 HD
ATOM      9  H   UNL     1       3.273  -8.576 -23.514  0.00  0.00    +0.159 HD
ENDROOT
BRANCH   1  10
ATOM     10  C   UNL     1       3.206  -5.400 -25.749  0.00  0.00    +0.151 C 
BRANCH  10  11
ATOM     11  C   UNL     1       3.656  -4.158 -26.467  0.00  0.00    -0.028 A 
ATOM     12  C   UNL     1       3.547  -2.902 -25.854  0.00  0.00    +0.005 A 
ATOM     13  C   UNL     1       4.197  -4.232 -27.760  0.00  0.00    +0.005 A 
ATOM     14  C   UNL     1       3.992  -1.751 -26.509  0.00  0.00    +0.000 A 
ATOM     15  C   UNL     1       4.640  -3.081 -28.411  0.00  0.00    +0.000 A 
ATOM     16  C   UNL     1       4.540  -1.841 -27.785  0.00  0.00    +0.000 A 
ENDBRANCH  10  11
ENDBRANCH   1  10
TORSDOF 2
ENDMDL
MODEL 7
REMARK VINA RESULT:    -4.353     20.950     22.873
REMARK INTER + INTRA:          -4.983
REMARK INTER:                  -4.878
REMARK INTRA:                  -0.105
REMARK UNBOUND:                -0.121
REMARK  Name = 1550473
REMARK  2 active torsions:
REMARK  status: ('A' for Active; 'I' for Inactive)
REMARK    1  A    between atoms: N_1  and  C_4
REMARK    2  A    between atoms: C_4  and  C_5
REMARK                            x       y       z     vdW  Elec       q    Type
REMARK                         _______ _______ _______ _____ _____    ______ ____
ROOT
ATOM      1  N   UNL     1      -7.034   4.946  25.479  0.00  0.00    -0.354 N 
ATOM      2  N   UNL     1      -8.081   3.003  24.778  0.00  0.00    -0.372 N 
ATOM      3  N   UNL     1      -8.993   5.026  24.196  0.00  0.00    -0.372 N 
ATOM      4  C   UNL     1      -8.031   4.340  24.822  0.00  0.00    +0.166 C 
ATOM      5  H   UNL     1      -6.352   4.369  25.958  0.00  0.00    +0.163 HD
ATOM      6  H   UNL     1      -8.819   2.517  24.287  0.00  0.00    +0.159 HD
ATOM      7  H   UNL     1      -7.372   2.429  25.219  0.00  0.00    +0.159 HD
ATOM      8  H   UNL     1      -9.016   6.037  24.196  0.00  0.00    +0.159 HD
ATOM      9  H   UNL     1      -9.747   4.558  23.709  0.00  0.00    +0.159 HD
ENDROOT
BRANCH   1  10
ATOM     10  C   UNL     1      -6.858   6.396  25.541  0.00  0.00    +0.151 C 
BRANCH  10  11
ATOM     11  C   UNL     1      -5.483   6.702  26.067  0.00  0.00    -0.028 A 
ATOM     12  C   UNL     1      -5.321   7.459  27.237  0.00  0.00    +0.005 A 
ATOM     13  C   UNL     1      -4.339   6.234  25.404  0.00  0.00    +0.005 A 
ATOM     14  C   UNL     1      -4.045   7.718  27.743  0.00  0.00    +0.000 A 
ATOM     15  C   UNL     1      -3.066   6.496  25.912  0.00  0.00    +0.000 A 
ATOM     16  C   UNL     1      -2.920   7.236  27.082  0.00  0.00    +0.000 A 
ENDBRANCH  10  11
ENDBRANCH   1  10
TORSDOF 2
ENDMDL
MODEL 8
REMARK VINA RESULT:    -4.271     55.149     55.837
REMARK INTER + INTRA:          -4.892
REMARK INTER:                  -4.756
REMARK INTRA:                  -0.136
REMARK UNBOUND:                -0.121
REMARK  Name = 1550473
REMARK  2 active torsions:
REMARK  status: ('A' for Active; 'I' for Inactive)
REMARK    1  A    between atoms: N_1  and  C_4
REMARK    2  A    between atoms: C_4  and  C_5
REMARK                            x       y       z     vdW  Elec       q    Type
REMARK                         _______ _______ _______ _____ _____    ______ ____
ROOT
ATOM      1  N   UNL     1      -9.099 -12.424 -10.632  0.00  0.00    -0.354 N 
ATOM      2  N   UNL     1      -6.793 -12.408 -10.852  0.00  0.00    -0.372 N 
ATOM      3  N   UNL     1      -8.053 -13.465 -12.453  0.00  0.00    -0.372 N 
ATOM      4  C   UNL     1      -7.997 -12.768 -11.313  0.00  0.00    +0.166 C 
ATOM      5  H   UNL     1      -8.988 -11.922  -9.759  0.00  0.00    +0.163 HD
ATOM      6  H   UNL     1      -5.945 -12.650 -11.345  0.00  0.00    +0.159 HD
ATOM      7  H   UNL     1      -6.688 -11.866 -10.003  0.00  0.00    +0.159 HD
ATOM      8  H   UNL     1      -8.930 -13.771 -12.851  0.00  0.00    +0.159 HD
ATOM      9  H   UNL     1      -7.214 -13.726 -12.955  0.00  0.00    +0.159 HD
ENDROOT
BRANCH   1  10
ATOM     10  C   UNL     1     -10.460 -12.720 -11.076  0.00  0.00    +0.151 C 
BRANCH  10  11
ATOM     11  C   UNL     1     -11.305 -11.485 -10.927  0.00  0.00    -0.028 A 
ATOM     12  C   UNL     1     -12.508 -11.355 -11.636  0.00  0.00    +0.005 A 
ATOM     13  C   UNL     1     -10.910 -10.442 -10.074  0.00  0.00    +0.005 A 
ATOM     14  C   UNL     1     -13.308 -10.221 -11.474  0.00  0.00    +0.000 A 
ATOM     15  C   UNL     1     -11.711  -9.311  -9.917  0.00  0.00    +0.000 A 
ATOM     16  C   UNL     1     -12.911  -9.202 -10.615  0.00  0.00    +0.000 A 
ENDBRANCH  10  11
ENDBRANCH   1  10
TORSDOF 2
ENDMDL
MODEL 9
REMARK VINA RESULT:    -4.086     10.341     12.147
REMARK INTER + INTRA:          -4.685
REMARK INTER:                  -4.581
REMARK INTRA:                  -0.104
REMARK UNBOUND:                -0.121
REMARK  Name = 1550473
REMARK  2 active torsions:
REMARK  status: ('A' for Active; 'I' for Inactive)
REMARK    1  A    between atoms: N_1  and  C_4
REMARK    2  A    between atoms: C_4  and  C_5
REMARK                            x       y       z     vdW  Elec       q    Type
REMARK                         _______ _______ _______ _____ _____    ______ ____
ROOT
ATOM      1  N   UNL     1       9.997   9.308  32.282  0.00  0.00    -0.354 N 
ATOM      2  N   UNL     1      10.674   9.526  30.077  0.00  0.00    -0.372 N 
ATOM      3  N   UNL     1      11.886  10.576  31.719  0.00  0.00    -0.372 N 
ATOM      4  C   UNL     1      10.850   9.804  31.375  0.00  0.00    +0.166 C 
ATOM      5  H   UNL     1       9.214   8.755  31.954  0.00  0.00    +0.163 HD
ATOM      6  H   UNL     1      11.303   9.882  29.371  0.00  0.00    +0.159 HD
ATOM      7  H   UNL     1       9.917   8.934  29.757  0.00  0.00    +0.159 HD
ATOM      8  H   UNL     1      12.071  10.827  32.681  0.00  0.00    +0.159 HD
ATOM      9  H   UNL     1      12.520  10.952  31.025  0.00  0.00    +0.159 HD
ENDROOT
BRANCH   1  10
ATOM     10  C   UNL     1      10.130   9.507  33.724  0.00  0.00    +0.151 C 
BRANCH  10  11
ATOM     11  C   UNL     1       8.763   9.684  34.324  0.00  0.00    -0.028 A 
ATOM     12  C   UNL     1       7.906   8.584  34.478  0.00  0.00    +0.005 A 
ATOM     13  C   UNL     1       8.321  10.947  34.746  0.00  0.00    +0.005 A 
ATOM     14  C   UNL     1       6.647   8.743  35.063  0.00  0.00    +0.000 A 
ATOM     15  C   UNL     1       7.063  11.101  35.329  0.00  0.00    +0.000 A 
ATOM     16  C   UNL     1       6.227   9.998  35.489  0.00  0.00    +0.000 A 
ENDBRANCH  10  11
ENDBRANCH   1  10
TORSDOF 2
ENDMDL
