MODEL 1
REMARK VINA RESULT:    -6.275      0.000      0.000
REMARK INTER + INTRA:          -7.141
REMARK INTER:                  -7.008
REMARK INTRA:                  -0.133
REMARK UNBOUND:                -0.133
REMARK  Name = 1550473
REMARK  2 active torsions:
REMARK  status: ('A' for Active; 'I' for Inactive)
REMARK    1  A    between atoms: N_1  and  C_4
REMARK    2  A    between atoms: C_4  and  C_5
REMARK                            x       y       z     vdW  Elec       q    Type
REMARK                         _______ _______ _______ _____ _____    ______ ____
ROOT
ATOM      1  N   UNL     1      -0.623   3.602  -0.665  0.00  0.00    -0.354 N 
ATOM      2  N   UNL     1      -1.608   1.520  -0.910  0.00  0.00    -0.372 N 
ATOM      3  N   UNL     1       0.285   2.000  -2.115  0.00  0.00    -0.372 N 
ATOM      4  C   UNL     1      -0.640   2.387  -1.230  0.00  0.00    +0.166 C 
ATOM      5  H   UNL     1      -1.370   3.845  -0.025  0.00  0.00    +0.163 HD
ATOM      6  H   UNL     1      -1.645   0.596  -1.318  0.00  0.00    +0.159 HD
ATOM      7  H   UNL     1      -2.328   1.750  -0.235  0.00  0.00    +0.159 HD
ATOM      8  H   UNL     1       1.039   2.610  -2.403  0.00  0.00    +0.159 HD
ATOM      9  H   UNL     1       0.258   1.083  -2.542  0.00  0.00    +0.159 HD
ENDROOT
BRANCH   1  10
ATOM     10  C   UNL     1       0.417   4.601  -0.904  0.00  0.00    +0.151 C 
BRANCH  10  11
ATOM     11  C   UNL     1      -0.231   5.930  -1.176  0.00  0.00    -0.028 A 
ATOM     12  C   UNL     1      -1.466   6.252  -0.592  0.00  0.00    +0.005 A 
ATOM     13  C   UNL     1       0.386   6.874  -2.011  0.00  0.00    +0.005 A 
ATOM     14  C   UNL     1      -2.054   7.499  -0.820  0.00  0.00    +0.000 A 
ATOM     15  C   UNL     1      -0.205   8.117  -2.236  0.00  0.00    +0.000 A 
ATOM     16  C   UNL     1      -1.424   8.430  -1.639  0.00  0.00    +0.000 A 
ENDBRANCH  10  11
ENDBRANCH   1  10
TORSDOF 2
ENDMDL
MODEL 2
REMARK VINA RESULT:    -6.016      1.781      2.348
REMARK INTER + INTRA:          -6.852
REMARK INTER:                  -6.727
REMARK INTRA:                  -0.125
REMARK UNBOUND:                -0.133
REMARK  Name = 1550473
REMARK  2 active torsions:
REMARK  status: ('A' for Active; 'I' for Inactive)
REMARK    1  A    between atoms: N_1  and  C_4
REMARK    2  A    between atoms: C_4  and  C_5
REMARK                            x       y       z     vdW  Elec       q    Type
REMARK                         _______ _______ _______ _____ _____    ______ ____
ROOT
ATOM      1  N   UNL     1       0.808   5.338  -1.521  0.00  0.00    -0.354 N 
ATOM      2  N   UNL     1       1.154   3.159  -0.816  0.00  0.00    -0.372 N 
ATOM      3  N   UNL     1       2.884   4.659  -0.669  0.00  0.00    -0.372 N 
ATOM      4  C   UNL     1       1.616   4.400  -1.006  0.00  0.00    +0.166 C 
ATOM      5  H   UNL     1      -0.133   5.070  -1.784  0.00  0.00    +0.163 HD
ATOM      6  H   UNL     1       1.738   2.432  -0.426  0.00  0.00    +0.159 HD
ATOM      7  H   UNL     1       0.198   2.906  -1.037  0.00  0.00    +0.159 HD
ATOM      8  H   UNL     1       3.294   5.575  -0.794  0.00  0.00    +0.159 HD
ATOM      9  H   UNL     1       3.488   3.942  -0.289  0.00  0.00    +0.159 HD
ENDROOT
BRANCH   1  10
ATOM     10  C   UNL     1       1.197   6.733  -1.719  0.00  0.00    +0.151 C 
BRANCH  10  11
ATOM     11  C   UNL     1      -0.041   7.584  -1.779  0.00  0.00    -0.028 A 
ATOM     12  C   UNL     1      -1.216   7.179  -1.128  0.00  0.00    +0.005 A 
ATOM     13  C   UNL     1      -0.045   8.799  -2.481  0.00  0.00    +0.005 A 
ATOM     14  C   UNL     1      -2.357   7.984  -1.159  0.00  0.00    +0.000 A 
ATOM     15  C   UNL     1      -1.187   9.599  -2.511  0.00  0.00    +0.000 A 
ATOM     16  C   UNL     1      -2.342   9.192  -1.847  0.00  0.00    +0.000 A 
ENDBRANCH  10  11
ENDBRANCH   1  10
TORSDOF 2
ENDMDL
MODEL 3
REMARK VINA RESULT:    -5.549      2.981      4.667
REMARK INTER + INTRA:          -6.330
REMARK INTER:                  -6.151
REMARK INTRA:                  -0.179
REMARK UNBOUND:                -0.133
REMARK  Name = 1550473
REMARK  2 active torsions:
REMARK  status: ('A' for Active; 'I' for Inactive)
REMARK    1  A    between atoms: N_1  and  C_4
REMARK    2  A    between atoms: C_4  and  C_5
REMARK                            x       y       z     vdW  Elec       q    Type
REMARK                         _______ _______ _______ _____ _____    ______ ____
ROOT
ATOM      1  N   UNL     1      -1.638   7.336  -2.242  0.00  0.00    -0.354 N 
ATOM      2  N   UNL     1      -1.651   8.087  -4.432  0.00  0.00    -0.372 N 
ATOM      3  N   UNL     1       0.048   8.753  -3.041  0.00  0.00    -0.372 N 
ATOM      4  C   UNL     1      -1.078   8.055  -3.223  0.00  0.00    +0.166 C 
ATOM      5  H   UNL     1      -2.509   6.854  -2.435  0.00  0.00    +0.163 HD
ATOM      6  H   UNL     1      -1.250   8.619  -5.193  0.00  0.00    +0.159 HD
ATOM      7  H   UNL     1      -2.496   7.568  -4.635  0.00  0.00    +0.159 HD
ATOM      8  H   UNL     1       0.527   8.775  -2.151  0.00  0.00    +0.159 HD
ATOM      9  H   UNL     1       0.459   9.300  -3.788  0.00  0.00    +0.159 HD
ENDROOT
BRANCH   1  10
ATOM     10  C   UNL     1      -1.065   7.191  -0.904  0.00  0.00    +0.151 C 
BRANCH  10  11
ATOM     11  C   UNL     1      -0.240   5.935  -0.857  0.00  0.00    -0.028 A 
ATOM     12  C   UNL     1      -0.855   4.676  -0.921  0.00  0.00    +0.005 A 
ATOM     13  C   UNL     1       1.158   5.997  -0.754  0.00  0.00    +0.005 A 
ATOM     14  C   UNL     1      -0.086   3.510  -0.907  0.00  0.00    +0.000 A 
ATOM     15  C   UNL     1       1.922   4.830  -0.740  0.00  0.00    +0.000 A 
ATOM     16  C   UNL     1       1.299   3.587  -0.819  0.00  0.00    +0.000 A 
ENDBRANCH  10  11
ENDBRANCH   1  10
TORSDOF 2
ENDMDL
MODEL 4
REMARK VINA RESULT:    -5.537      3.691      5.191
REMARK INTER + INTRA:          -6.316
REMARK INTER:                  -6.215
REMARK INTRA:                  -0.101
REMARK UNBOUND:                -0.133
REMARK  Name = 1550473
REMARK  2 active torsions:
REMARK  status: ('A' for Active; 'I' for Inactive)
REMARK    1  A    between atoms: N_1  and  C_4
REMARK    2  A    between atoms: C_4  and  C_5
REMARK                            x       y       z     vdW  Elec       q    Type
REMARK                         _______ _______ _______ _____ _____    ______ ____
ROOT
ATOM      1  N   UNL     1      -3.578   7.768  -2.183  0.00  0.00    -0.354 N 
ATOM      2  N   UNL     1      -5.690   7.443  -3.078  0.00  0.00    -0.372 N 
ATOM      3  N   UNL     1      -4.872   9.581  -2.913  0.00  0.00    -0.372 N 
ATOM      4  C   UNL     1      -4.699   8.269  -2.719  0.00  0.00    +0.166 C 
ATOM      5  H   UNL     1      -3.522   6.768  -2.033  0.00  0.00    +0.163 HD
ATOM      6  H   UNL     1      -6.546   7.792  -3.488  0.00  0.00    +0.159 HD
ATOM      7  H   UNL     1      -5.612   6.439  -2.970  0.00  0.00    +0.159 HD
ATOM      8  H   UNL     1      -4.165  10.258  -2.658  0.00  0.00    +0.159 HD
ATOM      9  H   UNL     1      -5.726   9.950  -3.312  0.00  0.00    +0.159 HD
ENDROOT
BRANCH   1  10
ATOM     10  C   UNL     1      -2.420   8.577  -1.807  0.00  0.00    +0.151 C 
BRANCH  10  11
ATOM     11  C   UNL     1      -1.283   7.664  -1.438  0.00  0.00    -0.028 A 
ATOM     12  C   UNL     1      -0.034   7.793  -2.063  0.00  0.00    +0.005 A 
ATOM     13  C   UNL     1      -1.447   6.672  -0.459  0.00  0.00    +0.005 A 
ATOM     14  C   UNL     1       1.030   6.965  -1.699  0.00  0.00    +0.000 A 
ATOM     15  C   UNL     1      -0.382   5.847  -0.098  0.00  0.00    +0.000 A 
ATOM     16  C   UNL     1       0.857   5.995  -0.717  0.00  0.00    +0.000 A 
ENDBRANCH  10  11
ENDBRANCH   1  10
TORSDOF 2
ENDMDL
MODEL 5
REMARK VINA RESULT:    -5.352      2.785      3.695
REMARK INTER + INTRA:          -6.110
REMARK INTER:                  -5.930
REMARK INTRA:                  -0.180
REMARK UNBOUND:                -0.133
REMARK  Name = 1550473
REMARK  2 active torsions:
REMARK  status: ('A' for Active; 'I' for Inactive)
REMARK    1  A    between atoms: N_1  and  C_4
REMARK    2  A    between atoms: C_4  and  C_5
REMARK                            x       y       z     vdW  Elec       q    Type
REMARK                         _______ _______ _______ _____ _____    ______ ____
ROOT
ATOM      1  N   UNL     1      -3.321   3.186  -2.079  0.00  0.00    -0.354 N 
ATOM      2  N   UNL     1      -4.681   3.678  -3.888  0.00  0.00    -0.372 N 
ATOM      3  N   UNL     1      -5.095   4.703  -1.877  0.00  0.00    -0.372 N 
ATOM      4  C   UNL     1      -4.358   3.854  -2.601  0.00  0.00    +0.166 C 
ATOM      5  H   UNL     1      -2.821   2.534  -2.672  0.00  0.00    +0.163 HD
ATOM      6  H   UNL     1      -5.457   4.171  -4.310  0.00  0.00    +0.159 HD
ATOM      7  H   UNL     1      -4.151   3.060  -4.490  0.00  0.00    +0.159 HD
ATOM      8  H   UNL     1      -4.907   4.876  -0.899  0.00  0.00    +0.159 HD
ATOM      9  H   UNL     1      -5.883   5.197  -2.279  0.00  0.00    +0.159 HD
ENDROOT
BRANCH   1  10
ATOM     10  C   UNL     1      -2.853   3.347  -0.703  0.00  0.00    +0.151 C 
BRANCH  10  11
ATOM     11  C   UNL     1      -1.606   4.187  -0.703  0.00  0.00    -0.028 A 
ATOM     12  C   UNL     1      -1.675   5.563  -0.443  0.00  0.00    +0.005 A 
ATOM     13  C   UNL     1      -0.352   3.611  -0.958  0.00  0.00    +0.005 A 
ATOM     14  C   UNL     1      -0.513   6.338  -0.413  0.00  0.00    +0.000 A 
ATOM     15  C   UNL     1       0.806   4.389  -0.928  0.00  0.00    +0.000 A 
ATOM     16  C   UNL     1       0.725   5.752  -0.653  0.00  0.00    +0.000 A 
ENDBRANCH  10  11
ENDBRANCH   1  10
TORSDOF 2
ENDMDL
MODEL 6
REMARK VINA RESULT:    -5.192      5.371      6.343
REMARK INTER + INTRA:          -5.932
REMARK INTER:                  -5.792
REMARK INTRA:                  -0.140
REMARK UNBOUND:                -0.133
REMARK  Name = 1550473
REMARK  2 active torsions:
REMARK  status: ('A' for Active; 'I' for Inactive)
REMARK    1  A    between atoms: N_1  and  C_4
REMARK    2  A    between atoms: C_4  and  C_5
REMARK                            x       y       z     vdW  Elec       q    Type
REMARK                         _______ _______ _______ _____ _____    ______ ____
ROOT
ATOM      1  N   UNL     1      -3.691   5.079  -2.949  0.00  0.00    -0.354 N 
ATOM      2  N   UNL     1      -2.397   6.740  -1.985  0.00  0.00    -0.372 N 
ATOM      3  N   UNL     1      -2.140   4.576  -1.266  0.00  0.00    -0.372 N 
ATOM      4  C   UNL     1      -2.751   5.452  -2.071  0.00  0.00    +0.166 C 
ATOM      5  H   UNL     1      -4.137   5.796  -3.510  0.00  0.00    +0.163 HD
ATOM      6  H   UNL     1      -1.687   7.050  -1.334  0.00  0.00    +0.159 HD
ATOM      7  H   UNL     1      -2.811   7.447  -2.579  0.00  0.00    +0.159 HD
ATOM      8  H   UNL     1      -2.366   3.590  -1.278  0.00  0.00    +0.159 HD
ATOM      9  H   UNL     1      -1.436   4.869  -0.600  0.00  0.00    +0.159 HD
ENDROOT
BRANCH   1  10
ATOM     10  C   UNL     1      -4.111   3.695  -3.160  0.00  0.00    +0.151 C 
BRANCH  10  11
ATOM     11  C   UNL     1      -5.613   3.628  -3.136  0.00  0.00    -0.028 A 
ATOM     12  C   UNL     1      -6.357   4.580  -2.425  0.00  0.00    +0.005 A 
ATOM     13  C   UNL     1      -6.298   2.617  -3.829  0.00  0.00    +0.005 A 
ATOM     14  C   UNL     1      -7.753   4.535  -2.427  0.00  0.00    +0.000 A 
ATOM     15  C   UNL     1      -7.692   2.576  -3.828  0.00  0.00    +0.000 A 
ATOM     16  C   UNL     1      -8.420   3.537  -3.129  0.00  0.00    +0.000 A 
ENDBRANCH  10  11
ENDBRANCH   1  10
TORSDOF 2
ENDMDL
MODEL 7
REMARK VINA RESULT:    -5.110      2.796      3.942
REMARK INTER + INTRA:          -5.840
REMARK INTER:                  -5.715
REMARK INTRA:                  -0.125
REMARK UNBOUND:                -0.133
REMARK  Name = 1550473
REMARK  2 active torsions:
REMARK  status: ('A' for Active; 'I' for Inactive)
REMARK    1  A    between atoms: N_1  and  C_4
REMARK    2  A    between atoms: C_4  and  C_5
REMARK                            x       y       z     vdW  Elec       q    Type
REMARK                         _______ _______ _______ _____ _____    ______ ____
ROOT
ATOM      1  N   UNL     1      -3.140   4.221  -2.439  0.00  0.00    -0.354 N 
ATOM      2  N   UNL     1      -4.848   3.011  -3.430  0.00  0.00    -0.372 N 
ATOM      3  N   UNL     1      -5.363   4.950  -2.317  0.00  0.00    -0.372 N 
ATOM      4  C   UNL     1      -4.441   4.071  -2.721  0.00  0.00    +0.166 C 
ATOM      5  H   UNL     1      -2.494   3.503  -2.748  0.00  0.00    +0.163 HD
ATOM      6  H   UNL     1      -5.823   2.873  -3.662  0.00  0.00    +0.159 HD
ATOM      7  H   UNL     1      -4.195   2.319  -3.777  0.00  0.00    +0.159 HD
ATOM      8  H   UNL     1      -5.122   5.768  -1.773  0.00  0.00    +0.159 HD
ATOM      9  H   UNL     1      -6.345   4.823  -2.529  0.00  0.00    +0.159 HD
ENDROOT
BRANCH   1  10
ATOM     10  C   UNL     1      -2.586   5.366  -1.719  0.00  0.00    +0.151 C 
BRANCH  10  11
ATOM     11  C   UNL     1      -1.168   5.060  -1.324  0.00  0.00    -0.028 A 
ATOM     12  C   UNL     1      -0.610   3.801  -1.593  0.00  0.00    +0.005 A 
ATOM     13  C   UNL     1      -0.374   6.026  -0.686  0.00  0.00    +0.005 A 
ATOM     14  C   UNL     1       0.717   3.526  -1.254  0.00  0.00    +0.000 A 
ATOM     15  C   UNL     1       0.950   5.746  -0.348  0.00  0.00    +0.000 A 
ATOM     16  C   UNL     1       1.496   4.497  -0.634  0.00  0.00    +0.000 A 
ENDBRANCH  10  11
ENDBRANCH   1  10
TORSDOF 2
ENDMDL
MODEL 8
REMARK VINA RESULT:    -4.894      2.925      4.350
REMARK INTER + INTRA:          -5.598
REMARK INTER:                  -5.516
REMARK INTRA:                  -0.082
REMARK UNBOUND:                -0.133
REMARK  Name = 1550473
REMARK  2 active torsions:
REMARK  status: ('A' for Active; 'I' for Inactive)
REMARK    1  A    between atoms: N_1  and  C_4
REMARK    2  A    between atoms: C_4  and  C_5
REMARK                            x       y       z     vdW  Elec       q    Type
REMARK                         _______ _______ _______ _____ _____    ______ ____
ROOT
ATOM      1  N   UNL     1      -1.824   5.538  -3.515  0.00  0.00    -0.354 N 
ATOM      2  N   UNL     1      -2.800   7.309  -4.644  0.00  0.00    -0.372 N 
ATOM      3  N   UNL     1      -3.524   6.812  -2.524  0.00  0.00    -0.372 N 
ATOM      4  C   UNL     1      -2.711   6.542  -3.551  0.00  0.00    +0.166 C 
ATOM      5  H   UNL     1      -1.259   5.366  -4.338  0.00  0.00    +0.163 HD
ATOM      6  H   UNL     1      -3.458   8.076  -4.699  0.00  0.00    +0.159 HD
ATOM      7  H   UNL     1      -2.202   7.163  -5.448  0.00  0.00    +0.159 HD
ATOM      8  H   UNL     1      -3.510   6.267  -1.673  0.00  0.00    +0.159 HD
ATOM      9  H   UNL     1      -4.196   7.568  -2.565  0.00  0.00    +0.159 HD
ENDROOT
BRANCH   1  10
ATOM     10  C   UNL     1      -1.611   4.678  -2.353  0.00  0.00    +0.151 C 
BRANCH  10  11
ATOM     11  C   UNL     1      -0.246   4.951  -1.783  0.00  0.00    -0.028 A 
ATOM     12  C   UNL     1       0.312   6.235  -1.858  0.00  0.00    +0.005 A 
ATOM     13  C   UNL     1       0.491   3.931  -1.162  0.00  0.00    +0.005 A 
ATOM     14  C   UNL     1       1.567   6.497  -1.303  0.00  0.00    +0.000 A 
ATOM     15  C   UNL     1       1.744   4.196  -0.609  0.00  0.00    +0.000 A 
ATOM     16  C   UNL     1       2.281   5.479  -0.678  0.00  0.00    +0.000 A 
ENDBRANCH  10  11
ENDBRANCH   1  10
TORSDOF 2
ENDMDL
MODEL 9
REMARK VINA RESULT:    -4.750      4.320      5.458
REMARK INTER + INTRA:          -5.438
REMARK INTER:                  -5.291
REMARK INTRA:                  -0.147
REMARK UNBOUND:                -0.133
REMARK  Name = 1550473
REMARK  2 active torsions:
REMARK  status: ('A' for Active; 'I' for Inactive)
REMARK    1  A    between atoms: N_1  and  C_4
REMARK    2  A    between atoms: C_4  and  C_5
REMARK                            x       y       z     vdW  Elec       q    Type
REMARK                         _______ _______ _______ _____ _____    ______ ____
ROOT
ATOM      1  N   UNL     1      -5.071   7.002  -2.746  0.00  0.00    -0.354 N 
ATOM      2  N   UNL     1      -6.657   8.689  -2.799  0.00  0.00    -0.372 N 
ATOM      3  N   UNL     1      -5.113   8.565  -4.493  0.00  0.00    -0.372 N 
ATOM      4  C   UNL     1      -5.602   8.075  -3.348  0.00  0.00    +0.166 C 
ATOM      5  H   UNL     1      -5.468   6.699  -1.865  0.00  0.00    +0.163 HD
ATOM      6  H   UNL     1      -7.081   9.499  -3.232  0.00  0.00    +0.159 HD
ATOM      7  H   UNL     1      -7.081   8.356  -1.942  0.00  0.00    +0.159 HD
ATOM      8  H   UNL     1      -4.315   8.151  -4.955  0.00  0.00    +0.159 HD
ATOM      9  H   UNL     1      -5.517   9.381  -4.935  0.00  0.00    +0.159 HD
ENDROOT
BRANCH   1  10
ATOM     10  C   UNL     1      -3.955   6.229  -3.289  0.00  0.00    +0.151 C 
BRANCH  10  11
ATOM     11  C   UNL     1      -2.865   6.150  -2.256  0.00  0.00    -0.028 A 
ATOM     12  C   UNL     1      -2.372   7.314  -1.650  0.00  0.00    +0.005 A 
ATOM     13  C   UNL     1      -2.324   4.912  -1.876  0.00  0.00    +0.005 A 
ATOM     14  C   UNL     1      -1.380   7.238  -0.669  0.00  0.00    +0.000 A 
ATOM     15  C   UNL     1      -1.333   4.840  -0.897  0.00  0.00    +0.000 A 
ATOM     16  C   UNL     1      -0.863   6.003  -0.292  0.00  0.00    +0.000 A 
ENDBRANCH  10  11
ENDBRANCH   1  10
TORSDOF 2
ENDMDL
