MODEL 1
REMARK VINA RESULT:    -4.826      0.000      0.000
REMARK INTER + INTRA:          -5.568
REMARK INTER:                  -5.390
REMARK INTRA:                  -0.178
REMARK UNBOUND:                -0.178
REMARK  Name = 1550473
REMARK  2 active torsions:
REMARK  status: ('A' for Active; 'I' for Inactive)
REMARK    1  A    between atoms: N_1  and  C_4
REMARK    2  A    between atoms: C_4  and  C_5
REMARK                            x       y       z     vdW  Elec       q    Type
REMARK                         _______ _______ _______ _____ _____    ______ ____
ROOT
ATOM      1  N   UNL     1      -5.408  -0.774 -13.263  0.00  0.00    -0.354 N 
ATOM      2  N   UNL     1      -3.161  -1.025 -13.766  0.00  0.00    -0.372 N 
ATOM      3  N   UNL     1      -4.712  -1.345 -15.426  0.00  0.00    -0.372 N 
ATOM      4  C   UNL     1      -4.443  -1.047 -14.151  0.00  0.00    +0.166 C 
ATOM      5  H   UNL     1      -5.140  -0.585 -12.304  0.00  0.00    +0.163 HD
ATOM      6  H   UNL     1      -2.411  -1.223 -14.415  0.00  0.00    +0.159 HD
ATOM      7  H   UNL     1      -2.893  -0.791 -12.818  0.00  0.00    +0.159 HD
ATOM      8  H   UNL     1      -5.659  -1.384 -15.779  0.00  0.00    +0.159 HD
ATOM      9  H   UNL     1      -3.976  -1.558 -16.088  0.00  0.00    +0.159 HD
ENDROOT
BRANCH   1  10
ATOM     10  C   UNL     1      -6.831  -0.719 -13.593  0.00  0.00    +0.151 C 
BRANCH  10  11
ATOM     11  C   UNL     1      -7.490  -1.992 -13.139  0.00  0.00    -0.028 A 
ATOM     12  C   UNL     1      -7.488  -2.350 -11.783  0.00  0.00    +0.005 A 
ATOM     13  C   UNL     1      -8.123  -2.842 -14.059  0.00  0.00    +0.005 A 
ATOM     14  C   UNL     1      -8.126  -3.518 -11.356  0.00  0.00    +0.000 A 
ATOM     15  C   UNL     1      -8.758  -4.007 -13.629  0.00  0.00    +0.000 A 
ATOM     16  C   UNL     1      -8.761  -4.343 -12.278  0.00  0.00    +0.000 A 
ENDBRANCH  10  11
ENDBRANCH   1  10
TORSDOF 2
ENDMDL
MODEL 2
REMARK VINA RESULT:    -4.445     19.519     20.482
REMARK INTER + INTRA:          -5.143
REMARK INTER:                  -5.048
REMARK INTRA:                  -0.095
REMARK UNBOUND:                -0.178
REMARK  Name = 1550473
REMARK  2 active torsions:
REMARK  status: ('A' for Active; 'I' for Inactive)
REMARK    1  A    between atoms: N_1  and  C_4
REMARK    2  A    between atoms: C_4  and  C_5
REMARK                            x       y       z     vdW  Elec       q    Type
REMARK                         _______ _______ _______ _____ _____    ______ ____
ROOT
ATOM      1  N   UNL     1      -8.025   1.617   6.868  0.00  0.00    -0.354 N 
ATOM      2  N   UNL     1      -5.800   2.244   6.721  0.00  0.00    -0.372 N 
ATOM      3  N   UNL     1      -6.940   2.651   8.670  0.00  0.00    -0.372 N 
ATOM      4  C   UNL     1      -6.937   2.167   7.423  0.00  0.00    +0.166 C 
ATOM      5  H   UNL     1      -7.966   1.296   5.908  0.00  0.00    +0.163 HD
ATOM      6  H   UNL     1      -4.962   2.651   7.114  0.00  0.00    +0.159 HD
ATOM      7  H   UNL     1      -5.731   1.881   5.778  0.00  0.00    +0.159 HD
ATOM      8  H   UNL     1      -7.768   2.628   9.251  0.00  0.00    +0.159 HD
ATOM      9  H   UNL     1      -6.115   3.073   9.077  0.00  0.00    +0.159 HD
ENDROOT
BRANCH   1  10
ATOM     10  C   UNL     1      -9.297   1.436   7.566  0.00  0.00    +0.151 C 
BRANCH  10  11
ATOM     11  C   UNL     1     -10.399   1.305   6.552  0.00  0.00    -0.028 A 
ATOM     12  C   UNL     1     -10.731   0.051   6.019  0.00  0.00    +0.005 A 
ATOM     13  C   UNL     1     -11.120   2.431   6.124  0.00  0.00    +0.005 A 
ATOM     14  C   UNL     1     -11.775  -0.076   5.099  0.00  0.00    +0.000 A 
ATOM     15  C   UNL     1     -12.161   2.300   5.205  0.00  0.00    +0.000 A 
ATOM     16  C   UNL     1     -12.490   1.047   4.695  0.00  0.00    +0.000 A 
ENDBRANCH  10  11
ENDBRANCH   1  10
TORSDOF 2
ENDMDL
MODEL 3
REMARK VINA RESULT:    -4.401     19.241     20.188
REMARK INTER + INTRA:          -5.094
REMARK INTER:                  -4.976
REMARK INTRA:                  -0.118
REMARK UNBOUND:                -0.178
REMARK  Name = 1550473
REMARK  2 active torsions:
REMARK  status: ('A' for Active; 'I' for Inactive)
REMARK    1  A    between atoms: N_1  and  C_4
REMARK    2  A    between atoms: C_4  and  C_5
REMARK                            x       y       z     vdW  Elec       q    Type
REMARK                         _______ _______ _______ _____ _____    ______ ____
ROOT
ATOM      1  N   UNL     1      -9.590   0.196   7.073  0.00  0.00    -0.354 N 
ATOM      2  N   UNL     1      -8.287  -0.769   8.726  0.00  0.00    -0.372 N 
ATOM      3  N   UNL     1      -8.099   1.485   8.340  0.00  0.00    -0.372 N 
ATOM      4  C   UNL     1      -8.666   0.313   8.036  0.00  0.00    +0.166 C 
ATOM      5  H   UNL     1      -9.960  -0.726   6.870  0.00  0.00    +0.163 HD
ATOM      6  H   UNL     1      -7.594  -0.711   9.461  0.00  0.00    +0.159 HD
ATOM      7  H   UNL     1      -8.692  -1.681   8.553  0.00  0.00    +0.159 HD
ATOM      8  H   UNL     1      -8.337   2.338   7.852  0.00  0.00    +0.159 HD
ATOM      9  H   UNL     1      -7.395   1.561   9.064  0.00  0.00    +0.159 HD
ENDROOT
BRANCH   1  10
ATOM     10  C   UNL     1     -10.112   1.321   6.299  0.00  0.00    +0.151 C 
BRANCH  10  11
ATOM     11  C   UNL     1     -11.254   0.843   5.446  0.00  0.00    -0.028 A 
ATOM     12  C   UNL     1     -11.321  -0.495   5.031  0.00  0.00    +0.005 A 
ATOM     13  C   UNL     1     -12.275   1.722   5.054  0.00  0.00    +0.005 A 
ATOM     14  C   UNL     1     -12.398  -0.946   4.263  0.00  0.00    +0.000 A 
ATOM     15  C   UNL     1     -13.348   1.268   4.286  0.00  0.00    +0.000 A 
ATOM     16  C   UNL     1     -13.410  -0.067   3.894  0.00  0.00    +0.000 A 
ENDBRANCH  10  11
ENDBRANCH   1  10
TORSDOF 2
ENDMDL
MODEL 4
REMARK VINA RESULT:    -4.377     29.827     30.941
REMARK INTER + INTRA:          -5.067
REMARK INTER:                  -4.946
REMARK INTRA:                  -0.121
REMARK UNBOUND:                -0.178
REMARK  Name = 1550473
REMARK  2 active torsions:
REMARK  status: ('A' for Active; 'I' for Inactive)
REMARK    1  A    between atoms: N_1  and  C_4
REMARK    2  A    between atoms: C_4  and  C_5
REMARK                            x       y       z     vdW  Elec       q    Type
REMARK                         _______ _______ _______ _____ _____    ______ ____
ROOT
ATOM      1  N   UNL     1       6.333   7.852  12.691  0.00  0.00    -0.354 N 
ATOM      2  N   UNL     1       5.328   8.823  14.538  0.00  0.00    -0.372 N 
ATOM      3  N   UNL     1       4.917   6.611  14.087  0.00  0.00    -0.372 N 
ATOM      4  C   UNL     1       5.531   7.753  13.760  0.00  0.00    +0.166 C 
ATOM      5  H   UNL     1       6.745   8.754  12.481  0.00  0.00    +0.163 HD
ATOM      6  H   UNL     1       4.731   8.777  15.353  0.00  0.00    +0.159 HD
ATOM      7  H   UNL     1       5.777   9.711  14.352  0.00  0.00    +0.159 HD
ATOM      8  H   UNL     1       5.024   5.769  13.537  0.00  0.00    +0.159 HD
ATOM      9  H   UNL     1       4.306   6.549  14.892  0.00  0.00    +0.159 HD
ENDROOT
BRANCH   1  10
ATOM     10  C   UNL     1       6.663   6.733  11.810  0.00  0.00    +0.151 C 
BRANCH  10  11
ATOM     11  C   UNL     1       8.067   6.908  11.300  0.00  0.00    -0.028 A 
ATOM     12  C   UNL     1       9.131   7.097  12.193  0.00  0.00    +0.005 A 
ATOM     13  C   UNL     1       8.340   6.879   9.924  0.00  0.00    +0.005 A 
ATOM     14  C   UNL     1      10.439   7.229  11.721  0.00  0.00    +0.000 A 
ATOM     15  C   UNL     1       9.647   7.012   9.456  0.00  0.00    +0.000 A 
ATOM     16  C   UNL     1      10.697   7.184  10.355  0.00  0.00    +0.000 A 
ENDBRANCH  10  11
ENDBRANCH   1  10
TORSDOF 2
ENDMDL
MODEL 5
REMARK VINA RESULT:    -4.299      4.361      5.858
REMARK INTER + INTRA:          -4.980
REMARK INTER:                  -4.800
REMARK INTRA:                  -0.180
REMARK UNBOUND:                -0.178
REMARK  Name = 1550473
REMARK  2 active torsions:
REMARK  status: ('A' for Active; 'I' for Inactive)
REMARK    1  A    between atoms: N_1  and  C_4
REMARK    2  A    between atoms: C_4  and  C_5
REMARK                            x       y       z     vdW  Elec       q    Type
REMARK                         _______ _______ _______ _____ _____    ______ ____
ROOT
ATOM      1  N   UNL     1      -9.871  -1.324  -8.888  0.00  0.00    -0.354 N 
ATOM      2  N   UNL     1     -11.497   0.302  -8.614  0.00  0.00    -0.372 N 
ATOM      3  N   UNL     1     -12.123  -1.906  -8.599  0.00  0.00    -0.372 N 
ATOM      4  C   UNL     1     -11.154  -0.989  -8.702  0.00  0.00    +0.166 C 
ATOM      5  H   UNL     1      -9.189  -0.581  -8.988  0.00  0.00    +0.163 HD
ATOM      6  H   UNL     1     -12.457   0.585  -8.470  0.00  0.00    +0.159 HD
ATOM      7  H   UNL     1     -10.807   1.041  -8.668  0.00  0.00    +0.159 HD
ATOM      8  H   UNL     1     -11.931  -2.897  -8.664  0.00  0.00    +0.159 HD
ATOM      9  H   UNL     1     -13.091  -1.642  -8.468  0.00  0.00    +0.159 HD
ENDROOT
BRANCH   1  10
ATOM     10  C   UNL     1      -9.385  -2.702  -8.944  0.00  0.00    +0.151 C 
BRANCH  10  11
ATOM     11  C   UNL     1      -9.139  -3.078 -10.379  0.00  0.00    -0.028 A 
ATOM     12  C   UNL     1      -8.101  -2.477 -11.104  0.00  0.00    +0.005 A 
ATOM     13  C   UNL     1      -9.938  -4.040 -11.017  0.00  0.00    +0.005 A 
ATOM     14  C   UNL     1      -7.853  -2.848 -12.428  0.00  0.00    +0.000 A 
ATOM     15  C   UNL     1      -9.688  -4.407 -12.339  0.00  0.00    +0.000 A 
ATOM     16  C   UNL     1      -8.644  -3.813 -13.043  0.00  0.00    +0.000 A 
ENDBRANCH  10  11
ENDBRANCH   1  10
TORSDOF 2
ENDMDL
MODEL 6
REMARK VINA RESULT:    -4.231     24.799     25.773
REMARK INTER + INTRA:          -4.903
REMARK INTER:                  -4.772
REMARK INTRA:                  -0.132
REMARK UNBOUND:                -0.178
REMARK  Name = 1550473
REMARK  2 active torsions:
REMARK  status: ('A' for Active; 'I' for Inactive)
REMARK    1  A    between atoms: N_1  and  C_4
REMARK    2  A    between atoms: C_4  and  C_5
REMARK                            x       y       z     vdW  Elec       q    Type
REMARK                         _______ _______ _______ _____ _____    ______ ____
ROOT
ATOM      1  N   UNL     1      10.374  -7.790   3.027  0.00  0.00    -0.354 N 
ATOM      2  N   UNL     1      11.206  -5.870   2.035  0.00  0.00    -0.372 N 
ATOM      3  N   UNL     1      12.481  -7.777   2.003  0.00  0.00    -0.372 N 
ATOM      4  C   UNL     1      11.351  -7.160   2.361  0.00  0.00    +0.166 C 
ATOM      5  H   UNL     1       9.554  -7.258   3.297  0.00  0.00    +0.163 HD
ATOM      6  H   UNL     1      11.925  -5.369   1.530  0.00  0.00    +0.159 HD
ATOM      7  H   UNL     1      10.366  -5.353   2.265  0.00  0.00    +0.159 HD
ATOM      8  H   UNL     1      12.655  -8.748   2.224  0.00  0.00    +0.159 HD
ATOM      9  H   UNL     1      13.217  -7.290   1.507  0.00  0.00    +0.159 HD
ENDROOT
BRANCH   1  10
ATOM     10  C   UNL     1      10.409  -9.207   3.383  0.00  0.00    +0.151 C 
BRANCH  10  11
ATOM     11  C   UNL     1      10.262  -9.343   4.874  0.00  0.00    -0.028 A 
ATOM     12  C   UNL     1      10.831  -8.394   5.735  0.00  0.00    +0.005 A 
ATOM     13  C   UNL     1       9.550 -10.416   5.431  0.00  0.00    +0.005 A 
ATOM     14  C   UNL     1      10.669  -8.503   7.118  0.00  0.00    +0.000 A 
ATOM     15  C   UNL     1       9.391 -10.523   6.812  0.00  0.00    +0.000 A 
ATOM     16  C   UNL     1       9.949  -9.565   7.656  0.00  0.00    +0.000 A 
ENDBRANCH  10  11
ENDBRANCH   1  10
TORSDOF 2
ENDMDL
MODEL 7
REMARK VINA RESULT:    -4.198     15.639     16.956
REMARK INTER + INTRA:          -4.866
REMARK INTER:                  -4.759
REMARK INTRA:                  -0.107
REMARK UNBOUND:                -0.178
REMARK  Name = 1550473
REMARK  2 active torsions:
REMARK  status: ('A' for Active; 'I' for Inactive)
REMARK    1  A    between atoms: N_1  and  C_4
REMARK    2  A    between atoms: C_4  and  C_5
REMARK                            x       y       z     vdW  Elec       q    Type
REMARK                         _______ _______ _______ _____ _____    ______ ____
ROOT
ATOM      1  N   UNL     1       5.702  -9.307  -3.958  0.00  0.00    -0.354 N 
ATOM      2  N   UNL     1       5.955  -8.970  -1.681  0.00  0.00    -0.372 N 
ATOM      3  N   UNL     1       7.003 -10.761  -2.661  0.00  0.00    -0.372 N 
ATOM      4  C   UNL     1       6.220  -9.684  -2.782  0.00  0.00    +0.166 C 
ATOM      5  H   UNL     1       5.091  -8.498  -3.978  0.00  0.00    +0.163 HD
ATOM      6  H   UNL     1       6.334  -9.228  -0.780  0.00  0.00    +0.159 HD
ATOM      7  H   UNL     1       5.381  -8.136  -1.712  0.00  0.00    +0.159 HD
ATOM      8  H   UNL     1       7.236 -11.345  -3.452  0.00  0.00    +0.159 HD
ATOM      9  H   UNL     1       7.383 -11.042  -1.765  0.00  0.00    +0.159 HD
ENDROOT
BRANCH   1  10
ATOM     10  C   UNL     1       5.972  -9.984  -5.225  0.00  0.00    +0.151 C 
BRANCH  10  11
ATOM     11  C   UNL     1       6.044  -8.960  -6.324  0.00  0.00    -0.028 A 
ATOM     12  C   UNL     1       4.961  -8.104  -6.572  0.00  0.00    +0.005 A 
ATOM     13  C   UNL     1       7.195  -8.836  -7.117  0.00  0.00    +0.005 A 
ATOM     14  C   UNL     1       5.039  -7.132  -7.572  0.00  0.00    +0.000 A 
ATOM     15  C   UNL     1       7.269  -7.865  -8.116  0.00  0.00    +0.000 A 
ATOM     16  C   UNL     1       6.192  -7.012  -8.342  0.00  0.00    +0.000 A 
ENDBRANCH  10  11
ENDBRANCH   1  10
TORSDOF 2
ENDMDL
MODEL 8
REMARK VINA RESULT:    -4.136      3.716      4.953
REMARK INTER + INTRA:          -4.798
REMARK INTER:                  -4.660
REMARK INTRA:                  -0.138
REMARK UNBOUND:                -0.178
REMARK  Name = 1550473
REMARK  2 active torsions:
REMARK  status: ('A' for Active; 'I' for Inactive)
REMARK    1  A    between atoms: N_1  and  C_4
REMARK    2  A    between atoms: C_4  and  C_5
REMARK                            x       y       z     vdW  Elec       q    Type
REMARK                         _______ _______ _______ _____ _____    ______ ____
ROOT
ATOM      1  N   UNL     1     -10.003  -4.342 -15.624  0.00  0.00    -0.354 N 
ATOM      2  N   UNL     1     -10.230  -4.259 -17.928  0.00  0.00    -0.372 N 
ATOM      3  N   UNL     1      -9.541  -6.217 -16.951  0.00  0.00    -0.372 N 
ATOM      4  C   UNL     1      -9.922  -4.942 -16.819  0.00  0.00    +0.166 C 
ATOM      5  H   UNL     1     -10.269  -3.364 -15.594  0.00  0.00    +0.163 HD
ATOM      6  H   UNL     1     -10.182  -4.686 -18.843  0.00  0.00    +0.159 HD
ATOM      7  H   UNL     1     -10.540  -3.295 -17.891  0.00  0.00    +0.159 HD
ATOM      8  H   UNL     1      -9.290  -6.787 -16.154  0.00  0.00    +0.159 HD
ATOM      9  H   UNL     1      -9.476  -6.660 -17.860  0.00  0.00    +0.159 HD
ENDROOT
BRANCH   1  10
ATOM     10  C   UNL     1      -9.742  -5.013 -14.352  0.00  0.00    +0.151 C 
BRANCH  10  11
ATOM     11  C   UNL     1      -8.940  -4.097 -13.469  0.00  0.00    -0.028 A 
ATOM     12  C   UNL     1      -8.954  -4.259 -12.076  0.00  0.00    +0.005 A 
ATOM     13  C   UNL     1      -8.160  -3.069 -14.020  0.00  0.00    +0.005 A 
ATOM     14  C   UNL     1      -8.186  -3.428 -11.257  0.00  0.00    +0.000 A 
ATOM     15  C   UNL     1      -7.395  -2.241 -13.199  0.00  0.00    +0.000 A 
ATOM     16  C   UNL     1      -7.406  -2.422 -11.818  0.00  0.00    +0.000 A 
ENDBRANCH  10  11
ENDBRANCH   1  10
TORSDOF 2
ENDMDL
MODEL 9
REMARK VINA RESULT:    -4.024     15.022     15.883
REMARK INTER + INTRA:          -4.672
REMARK INTER:                  -4.548
REMARK INTRA:                  -0.124
REMARK UNBOUND:                -0.178
REMARK  Name = 1550473
REMARK  2 active torsions:
REMARK  status: ('A' for Active; 'I' for Inactive)
REMARK    1  A    between atoms: N_1  and  C_4
REMARK    2  A    between atoms: C_4  and  C_5
REMARK                            x       y       z     vdW  Elec       q    Type
REMARK                         _______ _______ _______ _____ _____    ______ ____
ROOT
ATOM      1  N   UNL     1       5.834  -7.550  -7.640  0.00  0.00    -0.354 N 
ATOM      2  N   UNL     1       6.283  -6.900  -9.817  0.00  0.00    -0.372 N 
ATOM      3  N   UNL     1       8.010  -7.646  -8.503  0.00  0.00    -0.372 N 
ATOM      4  C   UNL     1       6.709  -7.370  -8.638  0.00  0.00    +0.166 C 
ATOM      5  H   UNL     1       4.866  -7.293  -7.797  0.00  0.00    +0.163 HD
ATOM      6  H   UNL     1       6.920  -6.757 -10.590  0.00  0.00    +0.159 HD
ATOM      7  H   UNL     1       5.307  -6.688  -9.985  0.00  0.00    +0.159 HD
ATOM      8  H   UNL     1       8.396  -7.998  -7.637  0.00  0.00    +0.159 HD
ATOM      9  H   UNL     1       8.665  -7.498  -9.261  0.00  0.00    +0.159 HD
ENDROOT
BRANCH   1  10
ATOM     10  C   UNL     1       6.185  -8.107  -6.335  0.00  0.00    +0.151 C 
BRANCH  10  11
ATOM     11  C   UNL     1       5.725  -9.537  -6.271  0.00  0.00    -0.028 A 
ATOM     12  C   UNL     1       6.395 -10.533  -6.997  0.00  0.00    +0.005 A 
ATOM     13  C   UNL     1       4.624  -9.904  -5.483  0.00  0.00    +0.005 A 
ATOM     14  C   UNL     1       5.987 -11.867  -6.914  0.00  0.00    +0.000 A 
ATOM     15  C   UNL     1       4.219 -11.236  -5.404  0.00  0.00    +0.000 A 
ATOM     16  C   UNL     1       4.902 -12.218  -6.118  0.00  0.00    +0.000 A 
ENDBRANCH  10  11
ENDBRANCH   1  10
TORSDOF 2
ENDMDL
