MODEL 1
REMARK VINA RESULT:    -4.353      0.000      0.000
REMARK INTER + INTRA:          -5.032
REMARK INTER:                  -4.862
REMARK INTRA:                  -0.171
REMARK UNBOUND:                -0.171
REMARK  Name = 1550473
REMARK  2 active torsions:
REMARK  status: ('A' for Active; 'I' for Inactive)
REMARK    1  A    between atoms: N_1  and  C_4
REMARK    2  A    between atoms: C_4  and  C_5
REMARK                            x       y       z     vdW  Elec       q    Type
REMARK                         _______ _______ _______ _____ _____    ______ ____
ROOT
ATOM      1  N   UNL     1       6.311   1.821  -7.447  0.00  0.00    -0.354 N 
ATOM      2  N   UNL     1       5.003   3.732  -7.448  0.00  0.00    -0.372 N 
ATOM      3  N   UNL     1       7.259   3.932  -7.818  0.00  0.00    -0.372 N 
ATOM      4  C   UNL     1       6.202   3.150  -7.571  0.00  0.00    +0.166 C 
ATOM      5  H   UNL     1       5.477   1.287  -7.230  0.00  0.00    +0.163 HD
ATOM      6  H   UNL     1       4.889   4.732  -7.541  0.00  0.00    +0.159 HD
ATOM      7  H   UNL     1       4.163   3.191  -7.277  0.00  0.00    +0.159 HD
ATOM      8  H   UNL     1       8.192   3.555  -7.916  0.00  0.00    +0.159 HD
ATOM      9  H   UNL     1       7.167   4.936  -7.902  0.00  0.00    +0.159 HD
ENDROOT
BRANCH   1  10
ATOM     10  C   UNL     1       7.562   1.083  -7.616  0.00  0.00    +0.151 C 
BRANCH  10  11
ATOM     11  C   UNL     1       7.662   0.606  -9.039  0.00  0.00    -0.028 A 
ATOM     12  C   UNL     1       8.532   1.235  -9.941  0.00  0.00    +0.005 A 
ATOM     13  C   UNL     1       6.893  -0.479  -9.489  0.00  0.00    +0.005 A 
ATOM     14  C   UNL     1       8.647   0.773 -11.255  0.00  0.00    +0.000 A 
ATOM     15  C   UNL     1       7.011  -0.937 -10.801  0.00  0.00    +0.000 A 
ATOM     16  C   UNL     1       7.890  -0.312 -11.683  0.00  0.00    +0.000 A 
ENDBRANCH  10  11
ENDBRANCH   1  10
TORSDOF 2
ENDMDL
MODEL 2
REMARK VINA RESULT:    -4.241     10.826     12.604
REMARK INTER + INTRA:          -4.908
REMARK INTER:                  -4.768
REMARK INTRA:                  -0.140
REMARK UNBOUND:                -0.171
REMARK  Name = 1550473
REMARK  2 active torsions:
REMARK  status: ('A' for Active; 'I' for Inactive)
REMARK    1  A    between atoms: N_1  and  C_4
REMARK    2  A    between atoms: C_4  and  C_5
REMARK                            x       y       z     vdW  Elec       q    Type
REMARK                         _______ _______ _______ _____ _____    ______ ____
ROOT
ATOM      1  N   UNL     1      13.564  -6.036 -17.777  0.00  0.00    -0.354 N 
ATOM      2  N   UNL     1      15.317  -7.240 -16.859  0.00  0.00    -0.372 N 
ATOM      3  N   UNL     1      13.595  -8.378 -17.862  0.00  0.00    -0.372 N 
ATOM      4  C   UNL     1      14.145  -7.212 -17.506  0.00  0.00    +0.166 C 
ATOM      5  H   UNL     1      14.017  -5.189 -17.453  0.00  0.00    +0.163 HD
ATOM      6  H   UNL     1      15.781  -8.112 -16.644  0.00  0.00    +0.159 HD
ATOM      7  H   UNL     1      15.790  -6.390 -16.578  0.00  0.00    +0.159 HD
ATOM      8  H   UNL     1      12.710  -8.426 -18.348  0.00  0.00    +0.159 HD
ATOM      9  H   UNL     1      14.039  -9.262 -17.646  0.00  0.00    +0.159 HD
ENDROOT
BRANCH   1  10
ATOM     10  C   UNL     1      12.315  -5.894 -18.523  0.00  0.00    +0.151 C 
BRANCH  10  11
ATOM     11  C   UNL     1      11.430  -4.905 -17.817  0.00  0.00    -0.028 A 
ATOM     12  C   UNL     1      10.384  -4.269 -18.502  0.00  0.00    +0.005 A 
ATOM     13  C   UNL     1      11.629  -4.602 -16.461  0.00  0.00    +0.005 A 
ATOM     14  C   UNL     1       9.543  -3.373 -17.839  0.00  0.00    +0.000 A 
ATOM     15  C   UNL     1      10.787  -3.706 -15.803  0.00  0.00    +0.000 A 
ATOM     16  C   UNL     1       9.743  -3.093 -16.491  0.00  0.00    +0.000 A 
ENDBRANCH  10  11
ENDBRANCH   1  10
TORSDOF 2
ENDMDL
MODEL 3
REMARK VINA RESULT:    -4.021     44.439     45.334
REMARK INTER + INTRA:          -4.662
REMARK INTER:                  -4.547
REMARK INTRA:                  -0.115
REMARK UNBOUND:                -0.171
REMARK  Name = 1550473
REMARK  2 active torsions:
REMARK  status: ('A' for Active; 'I' for Inactive)
REMARK    1  A    between atoms: N_1  and  C_4
REMARK    2  A    between atoms: C_4  and  C_5
REMARK                            x       y       z     vdW  Elec       q    Type
REMARK                         _______ _______ _______ _____ _____    ______ ____
ROOT
ATOM      1  N   UNL     1     -30.330   9.788  15.970  0.00  0.00    -0.354 N 
ATOM      2  N   UNL     1     -32.040   8.446  16.771  0.00  0.00    -0.372 N 
ATOM      3  N   UNL     1     -31.092   7.944  14.742  0.00  0.00    -0.372 N 
ATOM      4  C   UNL     1     -31.142   8.734  15.820  0.00  0.00    +0.166 C 
ATOM      5  H   UNL     1     -30.438  10.365  16.796  0.00  0.00    +0.163 HD
ATOM      6  H   UNL     1     -32.664   7.655  16.686  0.00  0.00    +0.159 HD
ATOM      7  H   UNL     1     -32.115   8.998  17.617  0.00  0.00    +0.159 HD
ATOM      8  H   UNL     1     -30.442   8.110  13.986  0.00  0.00    +0.159 HD
ATOM      9  H   UNL     1     -31.716   7.154  14.634  0.00  0.00    +0.159 HD
ENDROOT
BRANCH   1  10
ATOM     10  C   UNL     1     -29.282  10.156  15.019  0.00  0.00    +0.151 C 
BRANCH  10  11
ATOM     11  C   UNL     1     -28.567  11.378  15.524  0.00  0.00    -0.028 A 
ATOM     12  C   UNL     1     -28.401  11.589  16.901  0.00  0.00    +0.005 A 
ATOM     13  C   UNL     1     -28.048  12.328  14.631  0.00  0.00    +0.005 A 
ATOM     14  C   UNL     1     -27.711  12.709  17.369  0.00  0.00    +0.000 A 
ATOM     15  C   UNL     1     -27.361  13.446  15.102  0.00  0.00    +0.000 A 
ATOM     16  C   UNL     1     -27.190  13.635  16.472  0.00  0.00    +0.000 A 
ENDBRANCH  10  11
ENDBRANCH   1  10
TORSDOF 2
ENDMDL
MODEL 4
REMARK VINA RESULT:    -3.985     12.325     13.251
REMARK INTER + INTRA:          -4.622
REMARK INTER:                  -4.444
REMARK INTRA:                  -0.178
REMARK UNBOUND:                -0.171
REMARK  Name = 1550473
REMARK  2 active torsions:
REMARK  status: ('A' for Active; 'I' for Inactive)
REMARK    1  A    between atoms: N_1  and  C_4
REMARK    2  A    between atoms: C_4  and  C_5
REMARK                            x       y       z     vdW  Elec       q    Type
REMARK                         _______ _______ _______ _____ _____    ______ ____
ROOT
ATOM      1  N   UNL     1      20.664   0.953  -6.384  0.00  0.00    -0.354 N 
ATOM      2  N   UNL     1      20.682   1.610  -8.605  0.00  0.00    -0.372 N 
ATOM      3  N   UNL     1      19.014   2.385  -7.232  0.00  0.00    -0.372 N 
ATOM      4  C   UNL     1      20.117   1.646  -7.392  0.00  0.00    +0.166 C 
ATOM      5  H   UNL     1      21.483   0.388  -6.577  0.00  0.00    +0.163 HD
ATOM      6  H   UNL     1      20.294   2.126  -9.384  0.00  0.00    +0.159 HD
ATOM      7  H   UNL     1      21.527   1.082  -8.784  0.00  0.00    +0.159 HD
ATOM      8  H   UNL     1      18.537   2.449  -6.343  0.00  0.00    +0.159 HD
ATOM      9  H   UNL     1      18.604   2.899  -8.002  0.00  0.00    +0.159 HD
ENDROOT
BRANCH   1  10
ATOM     10  C   UNL     1      20.158   0.968  -5.013  0.00  0.00    +0.151 C 
BRANCH  10  11
ATOM     11  C   UNL     1      19.429  -0.320  -4.744  0.00  0.00    -0.028 A 
ATOM     12  C   UNL     1      18.043  -0.322  -4.531  0.00  0.00    +0.005 A 
ATOM     13  C   UNL     1      20.119  -1.542  -4.707  0.00  0.00    +0.005 A 
ATOM     14  C   UNL     1      17.361  -1.522  -4.311  0.00  0.00    +0.000 A 
ATOM     15  C   UNL     1      19.434  -2.737  -4.486  0.00  0.00    +0.000 A 
ATOM     16  C   UNL     1      18.055  -2.727  -4.291  0.00  0.00    +0.000 A 
ENDBRANCH  10  11
ENDBRANCH   1  10
TORSDOF 2
ENDMDL
MODEL 5
REMARK VINA RESULT:    -3.882     45.156     45.870
REMARK INTER + INTRA:          -4.506
REMARK INTER:                  -4.368
REMARK INTRA:                  -0.138
REMARK UNBOUND:                -0.171
REMARK  Name = 1550473
REMARK  2 active torsions:
REMARK  status: ('A' for Active; 'I' for Inactive)
REMARK    1  A    between atoms: N_1  and  C_4
REMARK    2  A    between atoms: C_4  and  C_5
REMARK                            x       y       z     vdW  Elec       q    Type
REMARK                         _______ _______ _______ _____ _____    ______ ____
ROOT
ATOM      1  N   UNL     1     -29.823   8.866  16.480  0.00  0.00    -0.354 N 
ATOM      2  N   UNL     1     -31.165   8.026  14.790  0.00  0.00    -0.372 N 
ATOM      3  N   UNL     1     -32.119   8.539  16.812  0.00  0.00    -0.372 N 
ATOM      4  C   UNL     1     -31.029   8.483  16.041  0.00  0.00    +0.166 C 
ATOM      5  H   UNL     1     -29.030   8.771  15.856  0.00  0.00    +0.163 HD
ATOM      6  H   UNL     1     -32.063   7.732  14.429  0.00  0.00    +0.159 HD
ATOM      7  H   UNL     1     -30.379   7.975  14.153  0.00  0.00    +0.159 HD
ATOM      8  H   UNL     1     -32.083   8.868  17.768  0.00  0.00    +0.159 HD
ATOM      9  H   UNL     1     -33.025   8.238  16.473  0.00  0.00    +0.159 HD
ENDROOT
BRANCH   1  10
ATOM     10  C   UNL     1     -29.577   9.429  17.807  0.00  0.00    +0.151 C 
BRANCH  10  11
ATOM     11  C   UNL     1     -28.703  10.645  17.671  0.00  0.00    -0.028 A 
ATOM     12  C   UNL     1     -28.753  11.432  16.511  0.00  0.00    +0.005 A 
ATOM     13  C   UNL     1     -27.826  11.019  18.701  0.00  0.00    +0.005 A 
ATOM     14  C   UNL     1     -27.963  12.578  16.397  0.00  0.00    +0.000 A 
ATOM     15  C   UNL     1     -27.038  12.164  18.582  0.00  0.00    +0.000 A 
ATOM     16  C   UNL     1     -27.109  12.944  17.431  0.00  0.00    +0.000 A 
ENDBRANCH  10  11
ENDBRANCH   1  10
TORSDOF 2
ENDMDL
MODEL 6
REMARK VINA RESULT:    -3.765     25.588     26.305
REMARK INTER + INTRA:          -4.376
REMARK INTER:                  -4.254
REMARK INTRA:                  -0.122
REMARK UNBOUND:                -0.171
REMARK  Name = 1550473
REMARK  2 active torsions:
REMARK  status: ('A' for Active; 'I' for Inactive)
REMARK    1  A    between atoms: N_1  and  C_4
REMARK    2  A    between atoms: C_4  and  C_5
REMARK                            x       y       z     vdW  Elec       q    Type
REMARK                         _______ _______ _______ _____ _____    ______ ____
ROOT
ATOM      1  N   UNL     1       6.694   5.448  16.246  0.00  0.00    -0.354 N 
ATOM      2  N   UNL     1       6.622   7.657  15.552  0.00  0.00    -0.372 N 
ATOM      3  N   UNL     1       7.315   7.188  17.689  0.00  0.00    -0.372 N 
ATOM      4  C   UNL     1       6.878   6.750  16.503  0.00  0.00    +0.166 C 
ATOM      5  H   UNL     1       6.332   5.184  15.338  0.00  0.00    +0.163 HD
ATOM      6  H   UNL     1       6.756   8.646  15.716  0.00  0.00    +0.159 HD
ATOM      7  H   UNL     1       6.305   7.386  14.630  0.00  0.00    +0.159 HD
ATOM      8  H   UNL     1       7.520   6.555  18.451  0.00  0.00    +0.159 HD
ATOM      9  H   UNL     1       7.443   8.174  17.875  0.00  0.00    +0.159 HD
ENDROOT
BRANCH   1  10
ATOM     10  C   UNL     1       6.993   4.377  17.195  0.00  0.00    +0.151 C 
BRANCH  10  11
ATOM     11  C   UNL     1       5.907   3.340  17.124  0.00  0.00    -0.028 A 
ATOM     12  C   UNL     1       4.638   3.599  17.660  0.00  0.00    +0.005 A 
ATOM     13  C   UNL     1       6.140   2.096  16.516  0.00  0.00    +0.005 A 
ATOM     14  C   UNL     1       3.620   2.647  17.567  0.00  0.00    +0.000 A 
ATOM     15  C   UNL     1       5.121   1.148  16.426  0.00  0.00    +0.000 A 
ATOM     16  C   UNL     1       3.861   1.425  16.949  0.00  0.00    +0.000 A 
ENDBRANCH  10  11
ENDBRANCH   1  10
TORSDOF 2
ENDMDL
MODEL 7
REMARK VINA RESULT:    -3.744     20.235     21.229
REMARK INTER + INTRA:          -4.352
REMARK INTER:                  -4.170
REMARK INTRA:                  -0.182
REMARK UNBOUND:                -0.171
REMARK  Name = 1550473
REMARK  2 active torsions:
REMARK  status: ('A' for Active; 'I' for Inactive)
REMARK    1  A    between atoms: N_1  and  C_4
REMARK    2  A    between atoms: C_4  and  C_5
REMARK                            x       y       z     vdW  Elec       q    Type
REMARK                         _______ _______ _______ _____ _____    ______ ____
ROOT
ATOM      1  N   UNL     1      13.773 -18.050  -5.087  0.00  0.00    -0.354 N 
ATOM      2  N   UNL     1      12.170 -17.233  -6.546  0.00  0.00    -0.372 N 
ATOM      3  N   UNL     1      13.310 -15.756  -5.211  0.00  0.00    -0.372 N 
ATOM      4  C   UNL     1      13.096 -17.016  -5.604  0.00  0.00    +0.166 C 
ATOM      5  H   UNL     1      13.542 -18.984  -5.405  0.00  0.00    +0.163 HD
ATOM      6  H   UNL     1      11.645 -16.473  -6.957  0.00  0.00    +0.159 HD
ATOM      7  H   UNL     1      11.974 -18.164  -6.895  0.00  0.00    +0.159 HD
ATOM      8  H   UNL     1      13.991 -15.525  -4.500  0.00  0.00    +0.159 HD
ATOM      9  H   UNL     1      12.787 -14.982  -5.602  0.00  0.00    +0.159 HD
ENDROOT
BRANCH   1  10
ATOM     10  C   UNL     1      14.839 -17.915  -4.095  0.00  0.00    +0.151 C 
BRANCH  10  11
ATOM     11  C   UNL     1      16.169 -17.942  -4.797  0.00  0.00    -0.028 A 
ATOM     12  C   UNL     1      16.557 -19.065  -5.543  0.00  0.00    +0.005 A 
ATOM     13  C   UNL     1      17.042 -16.847  -4.724  0.00  0.00    +0.005 A 
ATOM     14  C   UNL     1      17.779 -19.078  -6.219  0.00  0.00    +0.000 A 
ATOM     15  C   UNL     1      18.262 -16.865  -5.400  0.00  0.00    +0.000 A 
ATOM     16  C   UNL     1      18.629 -17.980  -6.150  0.00  0.00    +0.000 A 
ENDBRANCH  10  11
ENDBRANCH   1  10
TORSDOF 2
ENDMDL
MODEL 8
REMARK VINA RESULT:    -3.694     26.219     26.970
REMARK INTER + INTRA:          -4.296
REMARK INTER:                  -4.198
REMARK INTRA:                  -0.098
REMARK UNBOUND:                -0.171
REMARK  Name = 1550473
REMARK  2 active torsions:
REMARK  status: ('A' for Active; 'I' for Inactive)
REMARK    1  A    between atoms: N_1  and  C_4
REMARK    2  A    between atoms: C_4  and  C_5
REMARK                            x       y       z     vdW  Elec       q    Type
REMARK                         _______ _______ _______ _____ _____    ______ ____
ROOT
ATOM      1  N   UNL     1       2.446   0.486  18.005  0.00  0.00    -0.354 N 
ATOM      2  N   UNL     1       1.052  -0.342  19.660  0.00  0.00    -0.372 N 
ATOM      3  N   UNL     1       0.116   0.654  17.817  0.00  0.00    -0.372 N 
ATOM      4  C   UNL     1       1.212   0.273  18.481  0.00  0.00    +0.166 C 
ATOM      5  H   UNL     1       3.236   0.200  18.571  0.00  0.00    +0.163 HD
ATOM      6  H   UNL     1       0.134  -0.519  20.043  0.00  0.00    +0.159 HD
ATOM      7  H   UNL     1       1.843  -0.668  20.202  0.00  0.00    +0.159 HD
ATOM      8  H   UNL     1       0.168   1.127  16.925  0.00  0.00    +0.159 HD
ATOM      9  H   UNL     1      -0.812   0.495  18.189  0.00  0.00    +0.159 HD
ENDROOT
BRANCH   1  10
ATOM     10  C   UNL     1       2.727   1.098  16.708  0.00  0.00    +0.151 C 
BRANCH  10  11
ATOM     11  C   UNL     1       4.066   1.780  16.767  0.00  0.00    -0.028 A 
ATOM     12  C   UNL     1       5.240   1.070  16.476  0.00  0.00    +0.005 A 
ATOM     13  C   UNL     1       4.166   3.138  17.107  0.00  0.00    +0.005 A 
ATOM     14  C   UNL     1       6.481   1.711  16.501  0.00  0.00    +0.000 A 
ATOM     15  C   UNL     1       5.407   3.774  17.132  0.00  0.00    +0.000 A 
ATOM     16  C   UNL     1       6.564   3.061  16.826  0.00  0.00    +0.000 A 
ENDBRANCH  10  11
ENDBRANCH   1  10
TORSDOF 2
ENDMDL
MODEL 9
REMARK VINA RESULT:    -3.654     27.843     29.469
REMARK INTER + INTRA:          -4.251
REMARK INTER:                  -4.089
REMARK INTRA:                  -0.163
REMARK UNBOUND:                -0.171
REMARK  Name = 1550473
REMARK  2 active torsions:
REMARK  status: ('A' for Active; 'I' for Inactive)
REMARK    1  A    between atoms: N_1  and  C_4
REMARK    2  A    between atoms: C_4  and  C_5
REMARK                            x       y       z     vdW  Elec       q    Type
REMARK                         _______ _______ _______ _____ _____    ______ ____
ROOT
ATOM      1  N   UNL     1      20.037   3.824 -33.685  0.00  0.00    -0.354 N 
ATOM      2  N   UNL     1      19.587   4.054 -31.425  0.00  0.00    -0.372 N 
ATOM      3  N   UNL     1      21.468   2.910 -32.070  0.00  0.00    -0.372 N 
ATOM      4  C   UNL     1      20.369   3.593 -32.408  0.00  0.00    +0.166 C 
ATOM      5  H   UNL     1      19.175   4.323 -33.875  0.00  0.00    +0.163 HD
ATOM      6  H   UNL     1      19.814   3.898 -30.452  0.00  0.00    +0.159 HD
ATOM      7  H   UNL     1      18.750   4.591 -31.617  0.00  0.00    +0.159 HD
ATOM      8  H   UNL     1      22.097   2.530 -32.765  0.00  0.00    +0.159 HD
ATOM      9  H   UNL     1      21.706   2.733 -31.102  0.00  0.00    +0.159 HD
ENDROOT
BRANCH   1  10
ATOM     10  C   UNL     1      20.849   3.412 -34.829  0.00  0.00    +0.151 C 
BRANCH  10  11
ATOM     11  C   UNL     1      21.707   4.568 -35.264  0.00  0.00    -0.028 A 
ATOM     12  C   UNL     1      23.024   4.692 -34.799  0.00  0.00    +0.005 A 
ATOM     13  C   UNL     1      21.210   5.539 -36.147  0.00  0.00    +0.005 A 
ATOM     14  C   UNL     1      23.831   5.749 -35.227  0.00  0.00    +0.000 A 
ATOM     15  C   UNL     1      22.019   6.593 -36.571  0.00  0.00    +0.000 A 
ATOM     16  C   UNL     1      23.330   6.697 -36.113  0.00  0.00    +0.000 A 
ENDBRANCH  10  11
ENDBRANCH   1  10
TORSDOF 2
ENDMDL
