MODEL 1
REMARK VINA RESULT:    -5.782      0.000      0.000
REMARK INTER + INTRA:          -6.576
REMARK INTER:                  -6.458
REMARK INTRA:                  -0.118
REMARK UNBOUND:                -0.118
REMARK  Name = 1550473
REMARK  2 active torsions:
REMARK  status: ('A' for Active; 'I' for Inactive)
REMARK    1  A    between atoms: N_1  and  C_4
REMARK    2  A    between atoms: C_4  and  C_5
REMARK                            x       y       z     vdW  Elec       q    Type
REMARK                         _______ _______ _______ _____ _____    ______ ____
ROOT
ATOM      1  N   UNL     1       1.357  -2.513   1.753  0.00  0.00    -0.354 N 
ATOM      2  N   UNL     1       0.725  -4.661   1.161  0.00  0.00    -0.372 N 
ATOM      3  N   UNL     1       2.775  -3.882   0.486  0.00  0.00    -0.372 N 
ATOM      4  C   UNL     1       1.626  -3.671   1.136  0.00  0.00    +0.166 C 
ATOM      5  H   UNL     1       0.455  -2.405   2.203  0.00  0.00    +0.163 HD
ATOM      6  H   UNL     1       0.902  -5.547   0.707  0.00  0.00    +0.159 HD
ATOM      7  H   UNL     1      -0.156  -4.567   1.650  0.00  0.00    +0.159 HD
ATOM      8  H   UNL     1       3.494  -3.173   0.425  0.00  0.00    +0.159 HD
ATOM      9  H   UNL     1       2.965  -4.758   0.016  0.00  0.00    +0.159 HD
ENDROOT
BRANCH   1  10
ATOM     10  C   UNL     1       2.292  -1.391   1.831  0.00  0.00    +0.151 C 
BRANCH  10  11
ATOM     11  C   UNL     1       1.517  -0.103   1.794  0.00  0.00    -0.028 A 
ATOM     12  C   UNL     1       1.550   0.779   2.884  0.00  0.00    +0.005 A 
ATOM     13  C   UNL     1       0.754   0.244   0.669  0.00  0.00    +0.005 A 
ATOM     14  C   UNL     1       0.855   1.990   2.837  0.00  0.00    +0.000 A 
ATOM     15  C   UNL     1       0.060   1.454   0.627  0.00  0.00    +0.000 A 
ATOM     16  C   UNL     1       0.113   2.328   1.710  0.00  0.00    +0.000 A 
ENDBRANCH  10  11
ENDBRANCH   1  10
TORSDOF 2
ENDMDL
MODEL 2
REMARK VINA RESULT:    -5.639      2.172      2.871
REMARK INTER + INTRA:          -6.417
REMARK INTER:                  -6.258
REMARK INTRA:                  -0.158
REMARK UNBOUND:                -0.118
REMARK  Name = 1550473
REMARK  2 active torsions:
REMARK  status: ('A' for Active; 'I' for Inactive)
REMARK    1  A    between atoms: N_1  and  C_4
REMARK    2  A    between atoms: C_4  and  C_5
REMARK                            x       y       z     vdW  Elec       q    Type
REMARK                         _______ _______ _______ _____ _____    ______ ____
ROOT
ATOM      1  N   UNL     1      -0.273  -0.109   1.151  0.00  0.00    -0.354 N 
ATOM      2  N   UNL     1      -1.335  -1.521   2.649  0.00  0.00    -0.372 N 
ATOM      3  N   UNL     1       0.954  -1.580   2.502  0.00  0.00    -0.372 N 
ATOM      4  C   UNL     1      -0.208  -1.062   2.091  0.00  0.00    +0.166 C 
ATOM      5  H   UNL     1      -1.187   0.221   0.862  0.00  0.00    +0.163 HD
ATOM      6  H   UNL     1      -1.317  -2.237   3.363  0.00  0.00    +0.159 HD
ATOM      7  H   UNL     1      -2.244  -1.157   2.391  0.00  0.00    +0.159 HD
ATOM      8  H   UNL     1       1.840  -1.280   2.116  0.00  0.00    +0.159 HD
ATOM      9  H   UNL     1       0.992  -2.305   3.207  0.00  0.00    +0.159 HD
ENDROOT
BRANCH   1  10
ATOM     10  C   UNL     1       0.898   0.497   0.520  0.00  0.00    +0.151 C 
BRANCH  10  11
ATOM     11  C   UNL     1       0.965   1.950   0.903  0.00  0.00    -0.028 A 
ATOM     12  C   UNL     1       1.306   2.327   2.210  0.00  0.00    +0.005 A 
ATOM     13  C   UNL     1       0.695   2.955  -0.039  0.00  0.00    +0.005 A 
ATOM     14  C   UNL     1       1.399   3.676   2.558  0.00  0.00    +0.000 A 
ATOM     15  C   UNL     1       0.787   4.301   0.313  0.00  0.00    +0.000 A 
ATOM     16  C   UNL     1       1.141   4.662   1.611  0.00  0.00    +0.000 A 
ENDBRANCH  10  11
ENDBRANCH   1  10
TORSDOF 2
ENDMDL
MODEL 3
REMARK VINA RESULT:    -5.482      2.798      3.251
REMARK INTER + INTRA:          -6.241
REMARK INTER:                  -6.073
REMARK INTRA:                  -0.169
REMARK UNBOUND:                -0.118
REMARK  Name = 1550473
REMARK  2 active torsions:
REMARK  status: ('A' for Active; 'I' for Inactive)
REMARK    1  A    between atoms: N_1  and  C_4
REMARK    2  A    between atoms: C_4  and  C_5
REMARK                            x       y       z     vdW  Elec       q    Type
REMARK                         _______ _______ _______ _____ _____    ______ ____
ROOT
ATOM      1  N   UNL     1       4.078  -0.174   0.183  0.00  0.00    -0.354 N 
ATOM      2  N   UNL     1       3.458  -2.300   0.861  0.00  0.00    -0.372 N 
ATOM      3  N   UNL     1       3.890  -0.709   2.457  0.00  0.00    -0.372 N 
ATOM      4  C   UNL     1       3.813  -1.046   1.165  0.00  0.00    +0.166 C 
ATOM      5  H   UNL     1       4.031  -0.500  -0.776  0.00  0.00    +0.163 HD
ATOM      6  H   UNL     1       3.249  -2.979   1.580  0.00  0.00    +0.159 HD
ATOM      7  H   UNL     1       3.368  -2.610  -0.099  0.00  0.00    +0.159 HD
ATOM      8  H   UNL     1       4.158   0.220   2.753  0.00  0.00    +0.159 HD
ATOM      9  H   UNL     1       3.696  -1.377   3.192  0.00  0.00    +0.159 HD
ENDROOT
BRANCH   1  10
ATOM     10  C   UNL     1       4.420   1.230   0.406  0.00  0.00    +0.151 C 
BRANCH  10  11
ATOM     11  C   UNL     1       3.188   2.072   0.218  0.00  0.00    -0.028 A 
ATOM     12  C   UNL     1       2.930   3.155   1.070  0.00  0.00    +0.005 A 
ATOM     13  C   UNL     1       2.279   1.795  -0.815  0.00  0.00    +0.005 A 
ATOM     14  C   UNL     1       1.801   3.956   0.877  0.00  0.00    +0.000 A 
ATOM     15  C   UNL     1       1.153   2.597  -1.004  0.00  0.00    +0.000 A 
ATOM     16  C   UNL     1       0.916   3.678  -0.159  0.00  0.00    +0.000 A 
ENDBRANCH  10  11
ENDBRANCH   1  10
TORSDOF 2
ENDMDL
MODEL 4
REMARK VINA RESULT:    -5.412      3.455      4.189
REMARK INTER + INTRA:          -6.163
REMARK INTER:                  -6.023
REMARK INTRA:                  -0.140
REMARK UNBOUND:                -0.118
REMARK  Name = 1550473
REMARK  2 active torsions:
REMARK  status: ('A' for Active; 'I' for Inactive)
REMARK    1  A    between atoms: N_1  and  C_4
REMARK    2  A    between atoms: C_4  and  C_5
REMARK                            x       y       z     vdW  Elec       q    Type
REMARK                         _______ _______ _______ _____ _____    ______ ____
ROOT
ATOM      1  N   UNL     1       4.631   0.060   0.238  0.00  0.00    -0.354 N 
ATOM      2  N   UNL     1       6.102   1.286  -1.065  0.00  0.00    -0.372 N 
ATOM      3  N   UNL     1       6.557   1.017   1.168  0.00  0.00    -0.372 N 
ATOM      4  C   UNL     1       5.755   0.780   0.125  0.00  0.00    +0.166 C 
ATOM      5  H   UNL     1       4.050  -0.059  -0.584  0.00  0.00    +0.163 HD
ATOM      6  H   UNL     1       6.946   1.830  -1.181  0.00  0.00    +0.159 HD
ATOM      7  H   UNL     1       5.544   1.127  -1.895  0.00  0.00    +0.159 HD
ATOM      8  H   UNL     1       6.349   0.668   2.094  0.00  0.00    +0.159 HD
ATOM      9  H   UNL     1       7.400   1.570   1.074  0.00  0.00    +0.159 HD
ENDROOT
BRANCH   1  10
ATOM     10  C   UNL     1       4.191  -0.580   1.477  0.00  0.00    +0.151 C 
BRANCH  10  11
ATOM     11  C   UNL     1       2.802  -0.108   1.807  0.00  0.00    -0.028 A 
ATOM     12  C   UNL     1       1.831  -1.013   2.260  0.00  0.00    +0.005 A 
ATOM     13  C   UNL     1       2.453   1.245   1.676  0.00  0.00    +0.005 A 
ATOM     14  C   UNL     1       0.550  -0.570   2.595  0.00  0.00    +0.000 A 
ATOM     15  C   UNL     1       1.172   1.683   2.011  0.00  0.00    +0.000 A 
ATOM     16  C   UNL     1       0.221   0.776   2.473  0.00  0.00    +0.000 A 
ENDBRANCH  10  11
ENDBRANCH   1  10
TORSDOF 2
ENDMDL
MODEL 5
REMARK VINA RESULT:    -5.362      1.984      2.858
REMARK INTER + INTRA:          -6.107
REMARK INTER:                  -5.952
REMARK INTRA:                  -0.155
REMARK UNBOUND:                -0.118
REMARK  Name = 1550473
REMARK  2 active torsions:
REMARK  status: ('A' for Active; 'I' for Inactive)
REMARK    1  A    between atoms: N_1  and  C_4
REMARK    2  A    between atoms: C_4  and  C_5
REMARK                            x       y       z     vdW  Elec       q    Type
REMARK                         _______ _______ _______ _____ _____    ______ ____
ROOT
ATOM      1  N   UNL     1       1.848  -0.568   1.578  0.00  0.00    -0.354 N 
ATOM      2  N   UNL     1       3.363  -2.135   0.793  0.00  0.00    -0.372 N 
ATOM      3  N   UNL     1       4.007  -0.715   2.477  0.00  0.00    -0.372 N 
ATOM      4  C   UNL     1       3.064  -1.127   1.623  0.00  0.00    +0.166 C 
ATOM      5  H   UNL     1       1.188  -0.906   0.887  0.00  0.00    +0.163 HD
ATOM      6  H   UNL     1       4.271  -2.579   0.807  0.00  0.00    +0.159 HD
ATOM      7  H   UNL     1       2.686  -2.501   0.135  0.00  0.00    +0.159 HD
ATOM      8  H   UNL     1       3.847   0.044   3.125  0.00  0.00    +0.159 HD
ATOM      9  H   UNL     1       4.926  -1.140   2.498  0.00  0.00    +0.159 HD
ENDROOT
BRANCH   1  10
ATOM     10  C   UNL     1       1.405   0.499   2.474  0.00  0.00    +0.151 C 
BRANCH  10  11
ATOM     11  C   UNL     1       1.301   1.782   1.697  0.00  0.00    -0.028 A 
ATOM     12  C   UNL     1       0.047   2.322   1.378  0.00  0.00    +0.005 A 
ATOM     13  C   UNL     1       2.454   2.466   1.283  0.00  0.00    +0.005 A 
ATOM     14  C   UNL     1      -0.050   3.530   0.682  0.00  0.00    +0.000 A 
ATOM     15  C   UNL     1       2.354   3.672   0.588  0.00  0.00    +0.000 A 
ATOM     16  C   UNL     1       1.102   4.204   0.290  0.00  0.00    +0.000 A 
ENDBRANCH  10  11
ENDBRANCH   1  10
TORSDOF 2
ENDMDL
MODEL 6
REMARK VINA RESULT:    -5.126      3.407      4.888
REMARK INTER + INTRA:          -5.843
REMARK INTER:                  -5.668
REMARK INTRA:                  -0.175
REMARK UNBOUND:                -0.118
REMARK  Name = 1550473
REMARK  2 active torsions:
REMARK  status: ('A' for Active; 'I' for Inactive)
REMARK    1  A    between atoms: N_1  and  C_4
REMARK    2  A    between atoms: C_4  and  C_5
REMARK                            x       y       z     vdW  Elec       q    Type
REMARK                         _______ _______ _______ _____ _____    ______ ____
ROOT
ATOM      1  N   UNL     1       1.411   1.353   1.592  0.00  0.00    -0.354 N 
ATOM      2  N   UNL     1      -0.570   2.385   0.981  0.00  0.00    -0.372 N 
ATOM      3  N   UNL     1      -0.441   0.096   0.899  0.00  0.00    -0.372 N 
ATOM      4  C   UNL     1       0.146   1.269   1.161  0.00  0.00    +0.166 C 
ATOM      5  H   UNL     1       1.808   2.274   1.743  0.00  0.00    +0.163 HD
ATOM      6  H   UNL     1      -1.529   2.352   0.660  0.00  0.00    +0.159 HD
ATOM      7  H   UNL     1      -0.186   3.302   1.177  0.00  0.00    +0.159 HD
ATOM      8  H   UNL     1       0.047  -0.783   1.009  0.00  0.00    +0.159 HD
ATOM      9  H   UNL     1      -1.396   0.043   0.566  0.00  0.00    +0.159 HD
ENDROOT
BRANCH   1  10
ATOM     10  C   UNL     1       2.259   0.196   1.871  0.00  0.00    +0.151 C 
BRANCH  10  11
ATOM     11  C   UNL     1       3.322   0.099   0.812  0.00  0.00    -0.028 A 
ATOM     12  C   UNL     1       3.078  -0.598  -0.381  0.00  0.00    +0.005 A 
ATOM     13  C   UNL     1       4.574   0.707   0.992  0.00  0.00    +0.005 A 
ATOM     14  C   UNL     1       4.055  -0.663  -1.377  0.00  0.00    +0.000 A 
ATOM     15  C   UNL     1       5.547   0.639  -0.005  0.00  0.00    +0.000 A 
ATOM     16  C   UNL     1       5.286  -0.044  -1.190  0.00  0.00    +0.000 A 
ENDBRANCH  10  11
ENDBRANCH   1  10
TORSDOF 2
ENDMDL
MODEL 7
REMARK VINA RESULT:    -5.096      2.532      3.578
REMARK INTER + INTRA:          -5.810
REMARK INTER:                  -5.706
REMARK INTRA:                  -0.104
REMARK UNBOUND:                -0.118
REMARK  Name = 1550473
REMARK  2 active torsions:
REMARK  status: ('A' for Active; 'I' for Inactive)
REMARK    1  A    between atoms: N_1  and  C_4
REMARK    2  A    between atoms: C_4  and  C_5
REMARK                            x       y       z     vdW  Elec       q    Type
REMARK                         _______ _______ _______ _____ _____    ______ ____
ROOT
ATOM      1  N   UNL     1       0.747  -0.482   2.605  0.00  0.00    -0.354 N 
ATOM      2  N   UNL     1      -0.633  -2.101   1.687  0.00  0.00    -0.372 N 
ATOM      3  N   UNL     1      -0.624   0.001   0.767  0.00  0.00    -0.372 N 
ATOM      4  C   UNL     1      -0.162  -0.848   1.691  0.00  0.00    +0.166 C 
ATOM      5  H   UNL     1       1.035  -1.165   3.297  0.00  0.00    +0.163 HD
ATOM      6  H   UNL     1      -1.316  -2.406   1.007  0.00  0.00    +0.159 HD
ATOM      7  H   UNL     1      -0.309  -2.793   2.351  0.00  0.00    +0.159 HD
ATOM      8  H   UNL     1      -0.313   0.962   0.719  0.00  0.00    +0.159 HD
ATOM      9  H   UNL     1      -1.317  -0.283   0.085  0.00  0.00    +0.159 HD
ENDROOT
BRANCH   1  10
ATOM     10  C   UNL     1       1.363   0.842   2.661  0.00  0.00    +0.151 C 
BRANCH  10  11
ATOM     11  C   UNL     1       2.505   0.895   1.684  0.00  0.00    -0.028 A 
ATOM     12  C   UNL     1       2.631   1.972   0.794  0.00  0.00    +0.005 A 
ATOM     13  C   UNL     1       3.467  -0.126   1.646  0.00  0.00    +0.005 A 
ATOM     14  C   UNL     1       3.708   2.037  -0.094  0.00  0.00    +0.000 A 
ATOM     15  C   UNL     1       4.540  -0.058   0.757  0.00  0.00    +0.000 A 
ATOM     16  C   UNL     1       4.661   1.024  -0.110  0.00  0.00    +0.000 A 
ENDBRANCH  10  11
ENDBRANCH   1  10
TORSDOF 2
ENDMDL
MODEL 8
REMARK VINA RESULT:    -5.003     22.339     23.444
REMARK INTER + INTRA:          -5.706
REMARK INTER:                  -5.596
REMARK INTRA:                  -0.110
REMARK UNBOUND:                -0.118
REMARK  Name = 1550473
REMARK  2 active torsions:
REMARK  status: ('A' for Active; 'I' for Inactive)
REMARK    1  A    between atoms: N_1  and  C_4
REMARK    2  A    between atoms: C_4  and  C_5
REMARK                            x       y       z     vdW  Elec       q    Type
REMARK                         _______ _______ _______ _____ _____    ______ ____
ROOT
ATOM      1  N   UNL     1      -3.572  10.799  21.048  0.00  0.00    -0.354 N 
ATOM      2  N   UNL     1      -2.648  12.903  21.334  0.00  0.00    -0.372 N 
ATOM      3  N   UNL     1      -2.569  11.930  19.258  0.00  0.00    -0.372 N 
ATOM      4  C   UNL     1      -2.935  11.863  20.542  0.00  0.00    +0.166 C 
ATOM      5  H   UNL     1      -3.796  10.797  22.037  0.00  0.00    +0.163 HD
ATOM      6  H   UNL     1      -2.171  13.721  20.980  0.00  0.00    +0.159 HD
ATOM      7  H   UNL     1      -2.913  12.918  22.311  0.00  0.00    +0.159 HD
ATOM      8  H   UNL     1      -2.752  11.176  18.609  0.00  0.00    +0.159 HD
ATOM      9  H   UNL     1      -2.080  12.735  18.887  0.00  0.00    +0.159 HD
ENDROOT
BRANCH   1  10
ATOM     10  C   UNL     1      -3.980   9.638  20.259  0.00  0.00    +0.151 C 
BRANCH  10  11
ATOM     11  C   UNL     1      -5.217   9.039  20.869  0.00  0.00    -0.028 A 
ATOM     12  C   UNL     1      -5.297   8.827  22.253  0.00  0.00    +0.005 A 
ATOM     13  C   UNL     1      -6.314   8.686  20.069  0.00  0.00    +0.005 A 
ATOM     14  C   UNL     1      -6.457   8.298  22.824  0.00  0.00    +0.000 A 
ATOM     15  C   UNL     1      -7.471   8.158  20.643  0.00  0.00    +0.000 A 
ATOM     16  C   UNL     1      -7.543   7.966  22.020  0.00  0.00    +0.000 A 
ENDBRANCH  10  11
ENDBRANCH   1  10
TORSDOF 2
ENDMDL
MODEL 9
REMARK VINA RESULT:    -4.826     11.130     12.244
REMARK INTER + INTRA:          -5.508
REMARK INTER:                  -5.335
REMARK INTRA:                  -0.173
REMARK UNBOUND:                -0.118
REMARK  Name = 1550473
REMARK  2 active torsions:
REMARK  status: ('A' for Active; 'I' for Inactive)
REMARK    1  A    between atoms: N_1  and  C_4
REMARK    2  A    between atoms: C_4  and  C_5
REMARK                            x       y       z     vdW  Elec       q    Type
REMARK                         _______ _______ _______ _____ _____    ______ ____
ROOT
ATOM      1  N   UNL     1       0.137 -12.662  -1.027  0.00  0.00    -0.354 N 
ATOM      2  N   UNL     1      -1.019 -11.805   0.787  0.00  0.00    -0.372 N 
ATOM      3  N   UNL     1      -1.216 -10.762  -1.248  0.00  0.00    -0.372 N 
ATOM      4  C   UNL     1      -0.692 -11.746  -0.510  0.00  0.00    +0.166 C 
ATOM      5  H   UNL     1       0.524 -13.366  -0.408  0.00  0.00    +0.163 HD
ATOM      6  H   UNL     1      -1.646 -11.130   1.205  0.00  0.00    +0.159 HD
ATOM      7  H   UNL     1      -0.667 -12.536   1.393  0.00  0.00    +0.159 HD
ATOM      8  H   UNL     1      -1.004 -10.659  -2.231  0.00  0.00    +0.159 HD
ATOM      9  H   UNL     1      -1.835 -10.070  -0.845  0.00  0.00    +0.159 HD
ENDROOT
BRANCH   1  10
ATOM     10  C   UNL     1       0.514 -12.720  -2.439  0.00  0.00    +0.151 C 
BRANCH  10  11
ATOM     11  C   UNL     1       1.947 -12.286  -2.583  0.00  0.00    -0.028 A 
ATOM     12  C   UNL     1       2.274 -10.925  -2.662  0.00  0.00    +0.005 A 
ATOM     13  C   UNL     1       2.982 -13.232  -2.634  0.00  0.00    +0.005 A 
ATOM     14  C   UNL     1       3.608 -10.521  -2.766  0.00  0.00    +0.000 A 
ATOM     15  C   UNL     1       4.312 -12.825  -2.739  0.00  0.00    +0.000 A 
ATOM     16  C   UNL     1       4.625 -11.469  -2.802  0.00  0.00    +0.000 A 
ENDBRANCH  10  11
ENDBRANCH   1  10
TORSDOF 2
ENDMDL
