MODEL 1
REMARK VINA RESULT:    -6.024      0.000      0.000
REMARK INTER + INTRA:          -6.845
REMARK INTER:                  -6.728
REMARK INTRA:                  -0.117
REMARK UNBOUND:                -0.117
REMARK  Name = 1550473
REMARK  2 active torsions:
REMARK  status: ('A' for Active; 'I' for Inactive)
REMARK    1  A    between atoms: N_1  and  C_4
REMARK    2  A    between atoms: C_4  and  C_5
REMARK                            x       y       z     vdW  Elec       q    Type
REMARK                         _______ _______ _______ _____ _____    ______ ____
ROOT
ATOM      1  N   UNL     1       3.863  -0.045  -2.971  0.00  0.00    -0.354 N 
ATOM      2  N   UNL     1       3.580  -1.138  -0.949  0.00  0.00    -0.372 N 
ATOM      3  N   UNL     1       1.752  -0.804  -2.295  0.00  0.00    -0.372 N 
ATOM      4  C   UNL     1       3.064  -0.655  -2.086  0.00  0.00    +0.166 C 
ATOM      5  H   UNL     1       4.844   0.063  -2.739  0.00  0.00    +0.163 HD
ATOM      6  H   UNL     1       3.002  -1.606  -0.264  0.00  0.00    +0.159 HD
ATOM      7  H   UNL     1       4.569  -1.070  -0.741  0.00  0.00    +0.159 HD
ATOM      8  H   UNL     1       1.300  -0.456  -3.130  0.00  0.00    +0.159 HD
ATOM      9  H   UNL     1       1.155  -1.259  -1.616  0.00  0.00    +0.159 HD
ENDROOT
BRANCH   1  10
ATOM     10  C   UNL     1       3.411   0.469  -4.263  0.00  0.00    +0.151 C 
BRANCH  10  11
ATOM     11  C   UNL     1       4.611   0.787  -5.112  0.00  0.00    -0.028 A 
ATOM     12  C   UNL     1       4.607   1.903  -5.961  0.00  0.00    +0.005 A 
ATOM     13  C   UNL     1       5.757  -0.022  -5.069  0.00  0.00    +0.005 A 
ATOM     14  C   UNL     1       5.732   2.216  -6.728  0.00  0.00    +0.000 A 
ATOM     15  C   UNL     1       6.878   0.293  -5.837  0.00  0.00    +0.000 A 
ATOM     16  C   UNL     1       6.866   1.413  -6.664  0.00  0.00    +0.000 A 
ENDBRANCH  10  11
ENDBRANCH   1  10
TORSDOF 2
ENDMDL
MODEL 2
REMARK VINA RESULT:    -5.803      2.378      2.893
REMARK INTER + INTRA:          -6.598
REMARK INTER:                  -6.487
REMARK INTRA:                  -0.111
REMARK UNBOUND:                -0.117
REMARK  Name = 1550473
REMARK  2 active torsions:
REMARK  status: ('A' for Active; 'I' for Inactive)
REMARK    1  A    between atoms: N_1  and  C_4
REMARK    2  A    between atoms: C_4  and  C_5
REMARK                            x       y       z     vdW  Elec       q    Type
REMARK                         _______ _______ _______ _____ _____    ______ ____
ROOT
ATOM      1  N   UNL     1       1.466   0.734  -5.104  0.00  0.00    -0.354 N 
ATOM      2  N   UNL     1      -0.176   0.549  -3.482  0.00  0.00    -0.372 N 
ATOM      3  N   UNL     1       0.052  -1.133  -5.026  0.00  0.00    -0.372 N 
ATOM      4  C   UNL     1       0.458   0.049  -4.549  0.00  0.00    +0.166 C 
ATOM      5  H   UNL     1       1.706   1.639  -4.714  0.00  0.00    +0.163 HD
ATOM      6  H   UNL     1      -0.939   0.053  -3.040  0.00  0.00    +0.159 HD
ATOM      7  H   UNL     1       0.095   1.432  -3.066  0.00  0.00    +0.159 HD
ATOM      8  H   UNL     1       0.485  -1.562  -5.832  0.00  0.00    +0.159 HD
ATOM      9  H   UNL     1      -0.717  -1.639  -4.604  0.00  0.00    +0.159 HD
ENDROOT
BRANCH   1  10
ATOM     10  C   UNL     1       2.257   0.253  -6.236  0.00  0.00    +0.151 C 
BRANCH  10  11
ATOM     11  C   UNL     1       3.709   0.554  -5.984  0.00  0.00    -0.028 A 
ATOM     12  C   UNL     1       4.545  -0.409  -5.400  0.00  0.00    +0.005 A 
ATOM     13  C   UNL     1       4.256   1.798  -6.332  0.00  0.00    +0.005 A 
ATOM     14  C   UNL     1       5.900  -0.141  -5.194  0.00  0.00    +0.000 A 
ATOM     15  C   UNL     1       5.609   2.063  -6.124  0.00  0.00    +0.000 A 
ATOM     16  C   UNL     1       6.431   1.092  -5.557  0.00  0.00    +0.000 A 
ENDBRANCH  10  11
ENDBRANCH   1  10
TORSDOF 2
ENDMDL
MODEL 3
REMARK VINA RESULT:    -5.598      4.563      6.124
REMARK INTER + INTRA:          -6.370
REMARK INTER:                  -6.213
REMARK INTRA:                  -0.156
REMARK UNBOUND:                -0.117
REMARK  Name = 1550473
REMARK  2 active torsions:
REMARK  status: ('A' for Active; 'I' for Inactive)
REMARK    1  A    between atoms: N_1  and  C_4
REMARK    2  A    between atoms: C_4  and  C_5
REMARK                            x       y       z     vdW  Elec       q    Type
REMARK                         _______ _______ _______ _____ _____    ______ ____
ROOT
ATOM      1  N   UNL     1      -1.369  -1.970  -0.694  0.00  0.00    -0.354 N 
ATOM      2  N   UNL     1      -2.551  -3.907  -1.161  0.00  0.00    -0.372 N 
ATOM      3  N   UNL     1      -3.649  -1.894  -1.233  0.00  0.00    -0.372 N 
ATOM      4  C   UNL     1      -2.517  -2.576  -1.026  0.00  0.00    +0.166 C 
ATOM      5  H   UNL     1      -0.554  -2.547  -0.522  0.00  0.00    +0.163 HD
ATOM      6  H   UNL     1      -3.401  -4.392  -1.414  0.00  0.00    +0.159 HD
ATOM      7  H   UNL     1      -1.723  -4.476  -1.032  0.00  0.00    +0.159 HD
ATOM      8  H   UNL     1      -3.692  -0.888  -1.142  0.00  0.00    +0.159 HD
ATOM      9  H   UNL     1      -4.513  -2.362  -1.476  0.00  0.00    +0.159 HD
ENDROOT
BRANCH   1  10
ATOM     10  C   UNL     1      -1.214  -0.522  -0.576  0.00  0.00    +0.151 C 
BRANCH  10  11
ATOM     11  C   UNL     1      -0.195  -0.053  -1.578  0.00  0.00    -0.028 A 
ATOM     12  C   UNL     1      -0.493  -0.050  -2.948  0.00  0.00    +0.005 A 
ATOM     13  C   UNL     1       1.069   0.394  -1.163  0.00  0.00    +0.005 A 
ATOM     14  C   UNL     1       0.442   0.413  -3.877  0.00  0.00    +0.000 A 
ATOM     15  C   UNL     1       2.000   0.855  -2.093  0.00  0.00    +0.000 A 
ATOM     16  C   UNL     1       1.685   0.866  -3.450  0.00  0.00    +0.000 A 
ENDBRANCH  10  11
ENDBRANCH   1  10
TORSDOF 2
ENDMDL
MODEL 4
REMARK VINA RESULT:    -5.555      1.709      2.595
REMARK INTER + INTRA:          -6.321
REMARK INTER:                  -6.174
REMARK INTRA:                  -0.147
REMARK UNBOUND:                -0.117
REMARK  Name = 1550473
REMARK  2 active torsions:
REMARK  status: ('A' for Active; 'I' for Inactive)
REMARK    1  A    between atoms: N_1  and  C_4
REMARK    2  A    between atoms: C_4  and  C_5
REMARK                            x       y       z     vdW  Elec       q    Type
REMARK                         _______ _______ _______ _____ _____    ______ ____
ROOT
ATOM      1  N   UNL     1       2.413   0.070  -4.740  0.00  0.00    -0.354 N 
ATOM      2  N   UNL     1       0.647  -1.233  -5.480  0.00  0.00    -0.372 N 
ATOM      3  N   UNL     1       2.381  -2.243  -4.366  0.00  0.00    -0.372 N 
ATOM      4  C   UNL     1       1.827  -1.129  -4.856  0.00  0.00    +0.166 C 
ATOM      5  H   UNL     1       1.956   0.872  -5.159  0.00  0.00    +0.163 HD
ATOM      6  H   UNL     1       0.179  -2.124  -5.580  0.00  0.00    +0.159 HD
ATOM      7  H   UNL     1       0.171  -0.423  -5.858  0.00  0.00    +0.159 HD
ATOM      8  H   UNL     1       3.273  -2.233  -3.890  0.00  0.00    +0.159 HD
ATOM      9  H   UNL     1       1.933  -3.146  -4.467  0.00  0.00    +0.159 HD
ENDROOT
BRANCH   1  10
ATOM     10  C   UNL     1       3.672   0.300  -4.033  0.00  0.00    +0.151 C 
BRANCH  10  11
ATOM     11  C   UNL     1       4.707   0.776  -5.014  0.00  0.00    -0.028 A 
ATOM     12  C   UNL     1       5.973   0.175  -5.060  0.00  0.00    +0.005 A 
ATOM     13  C   UNL     1       4.425   1.824  -5.904  0.00  0.00    +0.005 A 
ATOM     14  C   UNL     1       6.925   0.597  -5.992  0.00  0.00    +0.000 A 
ATOM     15  C   UNL     1       5.379   2.242  -6.832  0.00  0.00    +0.000 A 
ATOM     16  C   UNL     1       6.627   1.627  -6.878  0.00  0.00    +0.000 A 
ENDBRANCH  10  11
ENDBRANCH   1  10
TORSDOF 2
ENDMDL
MODEL 5
REMARK VINA RESULT:    -5.538      3.837      5.047
REMARK INTER + INTRA:          -6.303
REMARK INTER:                  -6.163
REMARK INTRA:                  -0.140
REMARK UNBOUND:                -0.117
REMARK  Name = 1550473
REMARK  2 active torsions:
REMARK  status: ('A' for Active; 'I' for Inactive)
REMARK    1  A    between atoms: N_1  and  C_4
REMARK    2  A    between atoms: C_4  and  C_5
REMARK                            x       y       z     vdW  Elec       q    Type
REMARK                         _______ _______ _______ _____ _____    ______ ____
ROOT
ATOM      1  N   UNL     1       0.557  -0.655   0.327  0.00  0.00    -0.354 N 
ATOM      2  N   UNL     1       1.748  -1.254   2.221  0.00  0.00    -0.372 N 
ATOM      3  N   UNL     1       1.199   0.952   1.907  0.00  0.00    -0.372 N 
ATOM      4  C   UNL     1       1.160  -0.312   1.473  0.00  0.00    +0.166 C 
ATOM      5  H   UNL     1       0.588  -1.626   0.038  0.00  0.00    +0.163 HD
ATOM      6  H   UNL     1       2.208  -1.025   3.092  0.00  0.00    +0.159 HD
ATOM      7  H   UNL     1       1.738  -2.230   1.953  0.00  0.00    +0.159 HD
ATOM      8  H   UNL     1       0.780   1.711   1.386  0.00  0.00    +0.159 HD
ATOM      9  H   UNL     1       1.665   1.202   2.770  0.00  0.00    +0.159 HD
ENDROOT
BRANCH   1  10
ATOM     10  C   UNL     1      -0.158   0.286  -0.534  0.00  0.00    +0.151 C 
BRANCH  10  11
ATOM     11  C   UNL     1       0.559   0.390  -1.851  0.00  0.00    -0.028 A 
ATOM     12  C   UNL     1      -0.117   0.133  -3.053  0.00  0.00    +0.005 A 
ATOM     13  C   UNL     1       1.914   0.751  -1.905  0.00  0.00    +0.005 A 
ATOM     14  C   UNL     1       0.542   0.258  -4.278  0.00  0.00    +0.000 A 
ATOM     15  C   UNL     1       2.568   0.875  -3.131  0.00  0.00    +0.000 A 
ATOM     16  C   UNL     1       1.881   0.631  -4.317  0.00  0.00    +0.000 A 
ENDBRANCH  10  11
ENDBRANCH   1  10
TORSDOF 2
ENDMDL
MODEL 6
REMARK VINA RESULT:    -5.535      1.685      2.146
REMARK INTER + INTRA:          -6.299
REMARK INTER:                  -6.144
REMARK INTRA:                  -0.155
REMARK UNBOUND:                -0.117
REMARK  Name = 1550473
REMARK  2 active torsions:
REMARK  status: ('A' for Active; 'I' for Inactive)
REMARK    1  A    between atoms: N_1  and  C_4
REMARK    2  A    between atoms: C_4  and  C_5
REMARK                            x       y       z     vdW  Elec       q    Type
REMARK                         _______ _______ _______ _____ _____    ______ ____
ROOT
ATOM      1  N   UNL     1       2.386   0.095  -4.717  0.00  0.00    -0.354 N 
ATOM      2  N   UNL     1       0.629  -1.213  -5.471  0.00  0.00    -0.372 N 
ATOM      3  N   UNL     1       2.354  -2.217  -4.339  0.00  0.00    -0.372 N 
ATOM      4  C   UNL     1       1.803  -1.105  -4.837  0.00  0.00    +0.166 C 
ATOM      5  H   UNL     1       1.931   0.895  -5.143  0.00  0.00    +0.163 HD
ATOM      6  H   UNL     1       0.164  -2.105  -5.574  0.00  0.00    +0.159 HD
ATOM      7  H   UNL     1       0.155  -0.405  -5.856  0.00  0.00    +0.159 HD
ATOM      8  H   UNL     1       3.241  -2.204  -3.854  0.00  0.00    +0.159 HD
ATOM      9  H   UNL     1       1.909  -3.121  -4.441  0.00  0.00    +0.159 HD
ENDROOT
BRANCH   1  10
ATOM     10  C   UNL     1       3.637   0.329  -3.998  0.00  0.00    +0.151 C 
BRANCH  10  11
ATOM     11  C   UNL     1       4.708   0.704  -4.985  0.00  0.00    -0.028 A 
ATOM     12  C   UNL     1       4.533   1.798  -5.845  0.00  0.00    +0.005 A 
ATOM     13  C   UNL     1       5.903  -0.028  -5.062  0.00  0.00    +0.005 A 
ATOM     14  C   UNL     1       5.540   2.165  -6.741  0.00  0.00    +0.000 A 
ATOM     15  C   UNL     1       6.905   0.341  -5.958  0.00  0.00    +0.000 A 
ATOM     16  C   UNL     1       6.724   1.439  -6.796  0.00  0.00    +0.000 A 
ENDBRANCH  10  11
ENDBRANCH   1  10
TORSDOF 2
ENDMDL
MODEL 7
REMARK VINA RESULT:    -5.507      1.873      3.093
REMARK INTER + INTRA:          -6.267
REMARK INTER:                  -6.137
REMARK INTRA:                  -0.130
REMARK UNBOUND:                -0.117
REMARK  Name = 1550473
REMARK  2 active torsions:
REMARK  status: ('A' for Active; 'I' for Inactive)
REMARK    1  A    between atoms: N_1  and  C_4
REMARK    2  A    between atoms: C_4  and  C_5
REMARK                            x       y       z     vdW  Elec       q    Type
REMARK                         _______ _______ _______ _____ _____    ______ ____
ROOT
ATOM      1  N   UNL     1       4.983   0.016  -4.340  0.00  0.00    -0.354 N 
ATOM      2  N   UNL     1       3.142  -0.500  -3.034  0.00  0.00    -0.372 N 
ATOM      3  N   UNL     1       3.021   1.292  -4.462  0.00  0.00    -0.372 N 
ATOM      4  C   UNL     1       3.726   0.275  -3.955  0.00  0.00    +0.166 C 
ATOM      5  H   UNL     1       5.474  -0.751  -3.896  0.00  0.00    +0.163 HD
ATOM      6  H   UNL     1       2.193  -0.331  -2.726  0.00  0.00    +0.159 HD
ATOM      7  H   UNL     1       3.619  -1.294  -2.624  0.00  0.00    +0.159 HD
ATOM      8  H   UNL     1       3.407   1.917  -5.157  0.00  0.00    +0.159 HD
ATOM      9  H   UNL     1       2.075   1.484  -4.158  0.00  0.00    +0.159 HD
ENDROOT
BRANCH   1  10
ATOM     10  C   UNL     1       5.692   0.766  -5.375  0.00  0.00    +0.151 C 
BRANCH  10  11
ATOM     11  C   UNL     1       6.684  -0.143  -6.048  0.00  0.00    -0.028 A 
ATOM     12  C   UNL     1       6.860  -1.460  -5.601  0.00  0.00    +0.005 A 
ATOM     13  C   UNL     1       7.447   0.306  -7.137  0.00  0.00    +0.005 A 
ATOM     14  C   UNL     1       7.759  -2.314  -6.244  0.00  0.00    +0.000 A 
ATOM     15  C   UNL     1       8.345  -0.549  -7.776  0.00  0.00    +0.000 A 
ATOM     16  C   UNL     1       8.499  -1.860  -7.331  0.00  0.00    +0.000 A 
ENDBRANCH  10  11
ENDBRANCH   1  10
TORSDOF 2
ENDMDL
MODEL 8
REMARK VINA RESULT:    -5.483      2.140      3.024
REMARK INTER + INTRA:          -6.241
REMARK INTER:                  -6.069
REMARK INTRA:                  -0.172
REMARK UNBOUND:                -0.117
REMARK  Name = 1550473
REMARK  2 active torsions:
REMARK  status: ('A' for Active; 'I' for Inactive)
REMARK    1  A    between atoms: N_1  and  C_4
REMARK    2  A    between atoms: C_4  and  C_5
REMARK                            x       y       z     vdW  Elec       q    Type
REMARK                         _______ _______ _______ _____ _____    ______ ____
ROOT
ATOM      1  N   UNL     1       3.820  -0.079  -2.991  0.00  0.00    -0.354 N 
ATOM      2  N   UNL     1       3.569  -1.173  -0.965  0.00  0.00    -0.372 N 
ATOM      3  N   UNL     1       1.695  -0.454  -2.076  0.00  0.00    -0.372 N 
ATOM      4  C   UNL     1       3.027  -0.561  -2.025  0.00  0.00    +0.166 C 
ATOM      5  H   UNL     1       4.823  -0.165  -2.878  0.00  0.00    +0.163 HD
ATOM      6  H   UNL     1       2.996  -1.549  -0.222  0.00  0.00    +0.159 HD
ATOM      7  H   UNL     1       4.570  -1.298  -0.877  0.00  0.00    +0.159 HD
ATOM      8  H   UNL     1       1.224   0.002  -2.846  0.00  0.00    +0.159 HD
ATOM      9  H   UNL     1       1.105  -0.814  -1.336  0.00  0.00    +0.159 HD
ENDROOT
BRANCH   1  10
ATOM     10  C   UNL     1       3.327   0.556  -4.212  0.00  0.00    +0.151 C 
BRANCH  10  11
ATOM     11  C   UNL     1       3.370  -0.441  -5.337  0.00  0.00    -0.028 A 
ATOM     12  C   UNL     1       4.502  -1.246  -5.532  0.00  0.00    +0.005 A 
ATOM     13  C   UNL     1       2.279  -0.591  -6.207  0.00  0.00    +0.005 A 
ATOM     14  C   UNL     1       4.530  -2.193  -6.558  0.00  0.00    +0.000 A 
ATOM     15  C   UNL     1       2.311  -1.538  -7.230  0.00  0.00    +0.000 A 
ATOM     16  C   UNL     1       3.436  -2.340  -7.404  0.00  0.00    +0.000 A 
ENDBRANCH  10  11
ENDBRANCH   1  10
TORSDOF 2
ENDMDL
MODEL 9
REMARK VINA RESULT:    -5.387      2.583      5.429
REMARK INTER + INTRA:          -6.134
REMARK INTER:                  -5.972
REMARK INTRA:                  -0.162
REMARK UNBOUND:                -0.117
REMARK  Name = 1550473
REMARK  2 active torsions:
REMARK  status: ('A' for Active; 'I' for Inactive)
REMARK    1  A    between atoms: N_1  and  C_4
REMARK    2  A    between atoms: C_4  and  C_5
REMARK                            x       y       z     vdW  Elec       q    Type
REMARK                         _______ _______ _______ _____ _____    ______ ____
ROOT
ATOM      1  N   UNL     1       3.640   0.929  -3.484  0.00  0.00    -0.354 N 
ATOM      2  N   UNL     1       4.889   1.640  -5.301  0.00  0.00    -0.372 N 
ATOM      3  N   UNL     1       5.324  -0.423  -4.395  0.00  0.00    -0.372 N 
ATOM      4  C   UNL     1       4.611   0.708  -4.381  0.00  0.00    +0.166 C 
ATOM      5  H   UNL     1       3.157   1.819  -3.508  0.00  0.00    +0.163 HD
ATOM      6  H   UNL     1       5.613   1.500  -5.993  0.00  0.00    +0.159 HD
ATOM      7  H   UNL     1       4.373   2.510  -5.351  0.00  0.00    +0.159 HD
ATOM      8  H   UNL     1       5.168  -1.163  -3.724  0.00  0.00    +0.159 HD
ATOM      9  H   UNL     1       6.061  -0.577  -5.072  0.00  0.00    +0.159 HD
ENDROOT
BRANCH   1  10
ATOM     10  C   UNL     1       3.223  -0.043  -2.475  0.00  0.00    +0.151 C 
BRANCH  10  11
ATOM     11  C   UNL     1       1.808  -0.466  -2.756  0.00  0.00    -0.028 A 
ATOM     12  C   UNL     1       0.734   0.175  -2.120  0.00  0.00    +0.005 A 
ATOM     13  C   UNL     1       1.533  -1.502  -3.661  0.00  0.00    +0.005 A 
ATOM     14  C   UNL     1      -0.583  -0.197  -2.403  0.00  0.00    +0.000 A 
ATOM     15  C   UNL     1       0.217  -1.871  -3.940  0.00  0.00    +0.000 A 
ATOM     16  C   UNL     1      -0.840  -1.217  -3.313  0.00  0.00    +0.000 A 
ENDBRANCH  10  11
ENDBRANCH   1  10
TORSDOF 2
ENDMDL
