MODEL 1
REMARK VINA RESULT:    -4.754      0.000      0.000
REMARK INTER + INTRA:          -5.439
REMARK INTER:                  -5.310
REMARK INTRA:                  -0.130
REMARK UNBOUND:                -0.130
REMARK  Name = 1550473
REMARK  2 active torsions:
REMARK  status: ('A' for Active; 'I' for Inactive)
REMARK    1  A    between atoms: N_1  and  C_4
REMARK    2  A    between atoms: C_4  and  C_5
REMARK                            x       y       z     vdW  Elec       q    Type
REMARK                         _______ _______ _______ _____ _____    ______ ____
ROOT
ATOM      1  N   UNL     1       2.217  10.018   7.225  0.00  0.00    -0.354 N 
ATOM      2  N   UNL     1       3.424  11.870   6.534  0.00  0.00    -0.372 N 
ATOM      3  N   UNL     1       1.369  12.184   7.506  0.00  0.00    -0.372 N 
ATOM      4  C   UNL     1       2.326  11.346   7.094  0.00  0.00    +0.166 C 
ATOM      5  H   UNL     1       2.964   9.435   6.865  0.00  0.00    +0.163 HD
ATOM      6  H   UNL     1       3.536  12.869   6.424  0.00  0.00    +0.159 HD
ATOM      7  H   UNL     1       4.189  11.287   6.216  0.00  0.00    +0.159 HD
ATOM      8  H   UNL     1       0.514  11.853   7.932  0.00  0.00    +0.159 HD
ATOM      9  H   UNL     1       1.458  13.187   7.395  0.00  0.00    +0.159 HD
ENDROOT
BRANCH   1  10
ATOM     10  C   UNL     1       1.087   9.350   7.870  0.00  0.00    +0.151 C 
BRANCH  10  11
ATOM     11  C   UNL     1       1.566   8.070   8.497  0.00  0.00    -0.028 A 
ATOM     12  C   UNL     1       0.698   7.290   9.275  0.00  0.00    +0.005 A 
ATOM     13  C   UNL     1       2.885   7.628   8.311  0.00  0.00    +0.005 A 
ATOM     14  C   UNL     1       1.133   6.086   9.833  0.00  0.00    +0.000 A 
ATOM     15  C   UNL     1       3.316   6.425   8.870  0.00  0.00    +0.000 A 
ATOM     16  C   UNL     1       2.439   5.653   9.629  0.00  0.00    +0.000 A 
ENDBRANCH  10  11
ENDBRANCH   1  10
TORSDOF 2
ENDMDL
MODEL 2
REMARK VINA RESULT:    -4.532      3.560      5.127
REMARK INTER + INTRA:          -5.192
REMARK INTER:                  -5.146
REMARK INTRA:                  -0.045
REMARK UNBOUND:                -0.130
REMARK  Name = 1550473
REMARK  2 active torsions:
REMARK  status: ('A' for Active; 'I' for Inactive)
REMARK    1  A    between atoms: N_1  and  C_4
REMARK    2  A    between atoms: C_4  and  C_5
REMARK                            x       y       z     vdW  Elec       q    Type
REMARK                         _______ _______ _______ _____ _____    ______ ____
ROOT
ATOM      1  N   UNL     1       3.537   5.657   9.932  0.00  0.00    -0.354 N 
ATOM      2  N   UNL     1       5.406   4.324   9.629  0.00  0.00    -0.372 N 
ATOM      3  N   UNL     1       3.493   3.833   8.461  0.00  0.00    -0.372 N 
ATOM      4  C   UNL     1       4.131   4.612   9.341  0.00  0.00    +0.166 C 
ATOM      5  H   UNL     1       4.066   6.190  10.612  0.00  0.00    +0.163 HD
ATOM      6  H   UNL     1       5.882   3.544   9.196  0.00  0.00    +0.159 HD
ATOM      7  H   UNL     1       5.947   4.886  10.275  0.00  0.00    +0.159 HD
ATOM      8  H   UNL     1       2.527   3.993   8.206  0.00  0.00    +0.159 HD
ATOM      9  H   UNL     1       3.948   3.040   8.027  0.00  0.00    +0.159 HD
ENDROOT
BRANCH   1  10
ATOM     10  C   UNL     1       2.169   6.088   9.648  0.00  0.00    +0.151 C 
BRANCH  10  11
ATOM     11  C   UNL     1       2.211   7.332   8.804  0.00  0.00    -0.028 A 
ATOM     12  C   UNL     1       1.068   8.132   8.658  0.00  0.00    +0.005 A 
ATOM     13  C   UNL     1       3.392   7.720   8.154  0.00  0.00    +0.005 A 
ATOM     14  C   UNL     1       1.115   9.304   7.899  0.00  0.00    +0.000 A 
ATOM     15  C   UNL     1       3.435   8.891   7.397  0.00  0.00    +0.000 A 
ATOM     16  C   UNL     1       2.297   9.683   7.271  0.00  0.00    +0.000 A 
ENDBRANCH  10  11
ENDBRANCH   1  10
TORSDOF 2
ENDMDL
MODEL 3
REMARK VINA RESULT:    -4.472     18.599     19.316
REMARK INTER + INTRA:          -5.125
REMARK INTER:                  -4.982
REMARK INTRA:                  -0.143
REMARK UNBOUND:                -0.130
REMARK  Name = 1550473
REMARK  2 active torsions:
REMARK  status: ('A' for Active; 'I' for Inactive)
REMARK    1  A    between atoms: N_1  and  C_4
REMARK    2  A    between atoms: C_4  and  C_5
REMARK                            x       y       z     vdW  Elec       q    Type
REMARK                         _______ _______ _______ _____ _____    ______ ____
ROOT
ATOM      1  N   UNL     1      -9.781  -1.949  -3.834  0.00  0.00    -0.354 N 
ATOM      2  N   UNL     1      -9.282  -0.333  -5.416  0.00  0.00    -0.372 N 
ATOM      3  N   UNL     1      -8.653  -2.504  -5.812  0.00  0.00    -0.372 N 
ATOM      4  C   UNL     1      -9.241  -1.608  -5.011  0.00  0.00    +0.166 C 
ATOM      5  H   UNL     1     -10.185  -1.218  -3.260  0.00  0.00    +0.163 HD
ATOM      6  H   UNL     1      -8.886  -0.047  -6.301  0.00  0.00    +0.159 HD
ATOM      7  H   UNL     1      -9.727   0.388  -4.862  0.00  0.00    +0.159 HD
ATOM      8  H   UNL     1      -8.584  -3.482  -5.561  0.00  0.00    +0.159 HD
ATOM      9  H   UNL     1      -8.240  -2.235  -6.696  0.00  0.00    +0.159 HD
ENDROOT
BRANCH   1  10
ATOM     10  C   UNL     1      -9.836  -3.319  -3.325  0.00  0.00    +0.151 C 
BRANCH  10  11
ATOM     11  C   UNL     1      -9.240  -3.355  -1.945  0.00  0.00    -0.028 A 
ATOM     12  C   UNL     1      -9.254  -4.539  -1.194  0.00  0.00    +0.005 A 
ATOM     13  C   UNL     1      -8.655  -2.209  -1.385  0.00  0.00    +0.005 A 
ATOM     14  C   UNL     1      -8.673  -4.581   0.075  0.00  0.00    +0.000 A 
ATOM     15  C   UNL     1      -8.077  -2.254  -0.116  0.00  0.00    +0.000 A 
ATOM     16  C   UNL     1      -8.084  -3.441   0.612  0.00  0.00    +0.000 A 
ENDBRANCH  10  11
ENDBRANCH   1  10
TORSDOF 2
ENDMDL
MODEL 4
REMARK VINA RESULT:    -4.460      3.024      3.909
REMARK INTER + INTRA:          -5.111
REMARK INTER:                  -4.976
REMARK INTRA:                  -0.135
REMARK UNBOUND:                -0.130
REMARK  Name = 1550473
REMARK  2 active torsions:
REMARK  status: ('A' for Active; 'I' for Inactive)
REMARK    1  A    between atoms: N_1  and  C_4
REMARK    2  A    between atoms: C_4  and  C_5
REMARK                            x       y       z     vdW  Elec       q    Type
REMARK                         _______ _______ _______ _____ _____    ______ ____
ROOT
ATOM      1  N   UNL     1       5.135   8.089   5.820  0.00  0.00    -0.354 N 
ATOM      2  N   UNL     1       5.812   6.963   3.913  0.00  0.00    -0.372 N 
ATOM      3  N   UNL     1       4.925   9.069   3.701  0.00  0.00    -0.372 N 
ATOM      4  C   UNL     1       5.285   8.050   4.489  0.00  0.00    +0.166 C 
ATOM      5  H   UNL     1       5.399   7.272   6.358  0.00  0.00    +0.163 HD
ATOM      6  H   UNL     1       5.941   6.906   2.911  0.00  0.00    +0.159 HD
ATOM      7  H   UNL     1       6.118   6.166   4.457  0.00  0.00    +0.159 HD
ATOM      8  H   UNL     1       4.516   9.915   4.074  0.00  0.00    +0.159 HD
ATOM      9  H   UNL     1       5.035   9.026   2.696  0.00  0.00    +0.159 HD
ENDROOT
BRANCH   1  10
ATOM     10  C   UNL     1       4.621   9.246   6.551  0.00  0.00    +0.151 C 
BRANCH  10  11
ATOM     11  C   UNL     1       3.415   8.828   7.347  0.00  0.00    -0.028 A 
ATOM     12  C   UNL     1       2.228   9.572   7.283  0.00  0.00    +0.005 A 
ATOM     13  C   UNL     1       3.452   7.686   8.162  0.00  0.00    +0.005 A 
ATOM     14  C   UNL     1       1.098   9.167   7.999  0.00  0.00    +0.000 A 
ATOM     15  C   UNL     1       2.322   7.286   8.876  0.00  0.00    +0.000 A 
ATOM     16  C   UNL     1       1.145   8.026   8.792  0.00  0.00    +0.000 A 
ENDBRANCH  10  11
ENDBRANCH   1  10
TORSDOF 2
ENDMDL
MODEL 5
REMARK VINA RESULT:    -4.453      3.595      4.742
REMARK INTER + INTRA:          -5.104
REMARK INTER:                  -4.971
REMARK INTRA:                  -0.133
REMARK UNBOUND:                -0.130
REMARK  Name = 1550473
REMARK  2 active torsions:
REMARK  status: ('A' for Active; 'I' for Inactive)
REMARK    1  A    between atoms: N_1  and  C_4
REMARK    2  A    between atoms: C_4  and  C_5
REMARK                            x       y       z     vdW  Elec       q    Type
REMARK                         _______ _______ _______ _____ _____    ______ ____
ROOT
ATOM      1  N   UNL     1       5.007   5.439   7.540  0.00  0.00    -0.354 N 
ATOM      2  N   UNL     1       5.698   3.974   5.884  0.00  0.00    -0.372 N 
ATOM      3  N   UNL     1       5.725   6.228   5.453  0.00  0.00    -0.372 N 
ATOM      4  C   UNL     1       5.472   5.225   6.302  0.00  0.00    +0.166 C 
ATOM      5  H   UNL     1       4.807   4.635   8.124  0.00  0.00    +0.163 HD
ATOM      6  H   UNL     1       6.052   3.782   4.957  0.00  0.00    +0.159 HD
ATOM      7  H   UNL     1       5.540   3.175   6.486  0.00  0.00    +0.159 HD
ATOM      8  H   UNL     1       5.570   7.195   5.706  0.00  0.00    +0.159 HD
ATOM      9  H   UNL     1       6.069   6.055   4.517  0.00  0.00    +0.159 HD
ENDROOT
BRANCH   1  10
ATOM     10  C   UNL     1       4.778   6.765   8.111  0.00  0.00    +0.151 C 
BRANCH  10  11
ATOM     11  C   UNL     1       3.353   6.859   8.581  0.00  0.00    -0.028 A 
ATOM     12  C   UNL     1       2.787   5.829   9.346  0.00  0.00    +0.005 A 
ATOM     13  C   UNL     1       2.565   7.978   8.268  0.00  0.00    +0.005 A 
ATOM     14  C   UNL     1       1.472   5.930   9.809  0.00  0.00    +0.000 A 
ATOM     15  C   UNL     1       1.253   8.074   8.731  0.00  0.00    +0.000 A 
ATOM     16  C   UNL     1       0.708   7.051   9.503  0.00  0.00    +0.000 A 
ENDBRANCH  10  11
ENDBRANCH   1  10
TORSDOF 2
ENDMDL
MODEL 6
REMARK VINA RESULT:    -4.377      3.029      4.622
REMARK INTER + INTRA:          -5.018
REMARK INTER:                  -4.885
REMARK INTRA:                  -0.134
REMARK UNBOUND:                -0.130
REMARK  Name = 1550473
REMARK  2 active torsions:
REMARK  status: ('A' for Active; 'I' for Inactive)
REMARK    1  A    between atoms: N_1  and  C_4
REMARK    2  A    between atoms: C_4  and  C_5
REMARK                            x       y       z     vdW  Elec       q    Type
REMARK                         _______ _______ _______ _____ _____    ______ ____
ROOT
ATOM      1  N   UNL     1       1.178   7.988  10.103  0.00  0.00    -0.354 N 
ATOM      2  N   UNL     1       1.146   6.834  12.111  0.00  0.00    -0.372 N 
ATOM      3  N   UNL     1       0.426   5.771  10.209  0.00  0.00    -0.372 N 
ATOM      4  C   UNL     1       0.916   6.870  10.792  0.00  0.00    +0.166 C 
ATOM      5  H   UNL     1       1.520   8.797  10.609  0.00  0.00    +0.163 HD
ATOM      6  H   UNL     1       0.961   6.003  12.657  0.00  0.00    +0.159 HD
ATOM      7  H   UNL     1       1.531   7.629  12.606  0.00  0.00    +0.159 HD
ATOM      8  H   UNL     1       0.225   5.735   9.218  0.00  0.00    +0.159 HD
ATOM      9  H   UNL     1       0.224   4.934  10.740  0.00  0.00    +0.159 HD
ENDROOT
BRANCH   1  10
ATOM     10  C   UNL     1       1.014   8.114   8.656  0.00  0.00    +0.151 C 
BRANCH  10  11
ATOM     11  C   UNL     1       2.360   8.341   8.026  0.00  0.00    -0.028 A 
ATOM     12  C   UNL     1       3.409   7.435   8.243  0.00  0.00    +0.005 A 
ATOM     13  C   UNL     1       2.592   9.456   7.206  0.00  0.00    +0.005 A 
ATOM     14  C   UNL     1       4.652   7.630   7.634  0.00  0.00    +0.000 A 
ATOM     15  C   UNL     1       3.834   9.647   6.601  0.00  0.00    +0.000 A 
ATOM     16  C   UNL     1       4.862   8.732   6.813  0.00  0.00    +0.000 A 
ENDBRANCH  10  11
ENDBRANCH   1  10
TORSDOF 2
ENDMDL
MODEL 7
REMARK VINA RESULT:    -4.080     11.466     12.313
REMARK INTER + INTRA:          -4.687
REMARK INTER:                  -4.544
REMARK INTRA:                  -0.143
REMARK UNBOUND:                -0.130
REMARK  Name = 1550473
REMARK  2 active torsions:
REMARK  status: ('A' for Active; 'I' for Inactive)
REMARK    1  A    between atoms: N_1  and  C_4
REMARK    2  A    between atoms: C_4  and  C_5
REMARK                            x       y       z     vdW  Elec       q    Type
REMARK                         _______ _______ _______ _____ _____    ______ ____
ROOT
ATOM      1  N   UNL     1      -7.494   8.821   1.050  0.00  0.00    -0.354 N 
ATOM      2  N   UNL     1      -7.457  10.616   2.514  0.00  0.00    -0.372 N 
ATOM      3  N   UNL     1      -8.230  10.942   0.378  0.00  0.00    -0.372 N 
ATOM      4  C   UNL     1      -7.728  10.116   1.302  0.00  0.00    +0.166 C 
ATOM      5  H   UNL     1      -7.084   8.254   1.784  0.00  0.00    +0.163 HD
ATOM      6  H   UNL     1      -7.626  11.588   2.734  0.00  0.00    +0.159 HD
ATOM      7  H   UNL     1      -7.090  10.037   3.259  0.00  0.00    +0.159 HD
ATOM      8  H   UNL     1      -8.450  10.628  -0.558  0.00  0.00    +0.159 HD
ATOM      9  H   UNL     1      -8.396  11.921   0.576  0.00  0.00    +0.159 HD
ENDROOT
BRANCH   1  10
ATOM     10  C   UNL     1      -7.804   8.166  -0.219  0.00  0.00    +0.151 C 
BRANCH  10  11
ATOM     11  C   UNL     1      -6.610   7.367  -0.664  0.00  0.00    -0.028 A 
ATOM     12  C   UNL     1      -6.663   6.601  -1.838  0.00  0.00    +0.005 A 
ATOM     13  C   UNL     1      -5.420   7.376   0.080  0.00  0.00    +0.005 A 
ATOM     14  C   UNL     1      -5.544   5.883  -2.268  0.00  0.00    +0.000 A 
ATOM     15  C   UNL     1      -4.306   6.657  -0.352  0.00  0.00    +0.000 A 
ATOM     16  C   UNL     1      -4.368   5.913  -1.527  0.00  0.00    +0.000 A 
ENDBRANCH  10  11
ENDBRANCH   1  10
TORSDOF 2
ENDMDL
MODEL 8
REMARK VINA RESULT:    -3.909     10.964     11.927
REMARK INTER + INTRA:          -4.496
REMARK INTER:                  -4.344
REMARK INTRA:                  -0.152
REMARK UNBOUND:                -0.130
REMARK  Name = 1550473
REMARK  2 active torsions:
REMARK  status: ('A' for Active; 'I' for Inactive)
REMARK    1  A    between atoms: N_1  and  C_4
REMARK    2  A    between atoms: C_4  and  C_5
REMARK                            x       y       z     vdW  Elec       q    Type
REMARK                         _______ _______ _______ _____ _____    ______ ____
ROOT
ATOM      1  N   UNL     1      -3.171   8.668  -0.678  0.00  0.00    -0.354 N 
ATOM      2  N   UNL     1      -1.273   8.828  -1.995  0.00  0.00    -0.372 N 
ATOM      3  N   UNL     1      -2.322  10.755  -1.323  0.00  0.00    -0.372 N 
ATOM      4  C   UNL     1      -2.269   9.419  -1.324  0.00  0.00    +0.166 C 
ATOM      5  H   UNL     1      -3.093   7.660  -0.742  0.00  0.00    +0.163 HD
ATOM      6  H   UNL     1      -0.575   9.369  -2.489  0.00  0.00    +0.159 HD
ATOM      7  H   UNL     1      -1.171   7.821  -2.019  0.00  0.00    +0.159 HD
ATOM      8  H   UNL     1      -3.052  11.262  -0.840  0.00  0.00    +0.159 HD
ATOM      9  H   UNL     1      -1.640  11.313  -1.821  0.00  0.00    +0.159 HD
ENDROOT
BRANCH   1  10
ATOM     10  C   UNL     1      -4.263   9.214   0.127  0.00  0.00    +0.151 C 
BRANCH  10  11
ATOM     11  C   UNL     1      -5.570   8.687  -0.397  0.00  0.00    -0.028 A 
ATOM     12  C   UNL     1      -6.317   7.763   0.349  0.00  0.00    +0.005 A 
ATOM     13  C   UNL     1      -6.072   9.113  -1.637  0.00  0.00    +0.005 A 
ATOM     14  C   UNL     1      -7.546   7.297  -0.123  0.00  0.00    +0.000 A 
ATOM     15  C   UNL     1      -7.299   8.644  -2.106  0.00  0.00    +0.000 A 
ATOM     16  C   UNL     1      -8.037   7.738  -1.348  0.00  0.00    +0.000 A 
ENDBRANCH  10  11
ENDBRANCH   1  10
TORSDOF 2
ENDMDL
MODEL 9
REMARK VINA RESULT:    -3.902     22.377     23.587
REMARK INTER + INTRA:          -4.488
REMARK INTER:                  -4.364
REMARK INTRA:                  -0.124
REMARK UNBOUND:                -0.130
REMARK  Name = 1550473
REMARK  2 active torsions:
REMARK  status: ('A' for Active; 'I' for Inactive)
REMARK    1  A    between atoms: N_1  and  C_4
REMARK    2  A    between atoms: C_4  and  C_5
REMARK                            x       y       z     vdW  Elec       q    Type
REMARK                         _______ _______ _______ _____ _____    ______ ____
ROOT
ATOM      1  N   UNL     1      -6.000 -10.336   0.683  0.00  0.00    -0.354 N 
ATOM      2  N   UNL     1      -7.134  -8.783   1.974  0.00  0.00    -0.372 N 
ATOM      3  N   UNL     1      -8.152  -9.618   0.094  0.00  0.00    -0.372 N 
ATOM      4  C   UNL     1      -7.090  -9.590   0.906  0.00  0.00    +0.166 C 
ATOM      5  H   UNL     1      -5.217 -10.247   1.319  0.00  0.00    +0.163 HD
ATOM      6  H   UNL     1      -7.944  -8.211   2.170  0.00  0.00    +0.159 HD
ATOM      7  H   UNL     1      -6.368  -8.730   2.634  0.00  0.00    +0.159 HD
ATOM      8  H   UNL     1      -8.179 -10.201  -0.732  0.00  0.00    +0.159 HD
ATOM      9  H   UNL     1      -8.967  -9.043   0.267  0.00  0.00    +0.159 HD
ENDROOT
BRANCH   1  10
ATOM     10  C   UNL     1      -5.873 -11.287  -0.421  0.00  0.00    +0.151 C 
BRANCH  10  11
ATOM     11  C   UNL     1      -5.441 -12.619   0.126  0.00  0.00    -0.028 A 
ATOM     12  C   UNL     1      -6.378 -13.643   0.328  0.00  0.00    +0.005 A 
ATOM     13  C   UNL     1      -4.096 -12.867   0.439  0.00  0.00    +0.005 A 
ATOM     14  C   UNL     1      -5.974 -14.891   0.808  0.00  0.00    +0.000 A 
ATOM     15  C   UNL     1      -3.696 -14.114   0.918  0.00  0.00    +0.000 A 
ATOM     16  C   UNL     1      -4.634 -15.127   1.100  0.00  0.00    +0.000 A 
ENDBRANCH  10  11
ENDBRANCH   1  10
TORSDOF 2
ENDMDL
