MODEL 1
REMARK VINA RESULT:    -4.490      0.000      0.000
REMARK INTER + INTRA:          -5.112
REMARK INTER:                  -5.015
REMARK INTRA:                  -0.097
REMARK UNBOUND:                -0.097
REMARK  Name = 1550473
REMARK  2 active torsions:
REMARK  status: ('A' for Active; 'I' for Inactive)
REMARK    1  A    between atoms: N_1  and  C_4
REMARK    2  A    between atoms: C_4  and  C_5
REMARK                            x       y       z     vdW  Elec       q    Type
REMARK                         _______ _______ _______ _____ _____    ______ ____
ROOT
ATOM      1  N   UNL     1       1.693 -13.951   0.099  0.00  0.00    -0.354 N 
ATOM      2  N   UNL     1       3.515 -15.128  -0.714  0.00  0.00    -0.372 N 
ATOM      3  N   UNL     1       3.474 -14.540   1.504  0.00  0.00    -0.372 N 
ATOM      4  C   UNL     1       2.883 -14.532   0.304  0.00  0.00    +0.166 C 
ATOM      5  H   UNL     1       1.313 -13.953  -0.840  0.00  0.00    +0.163 HD
ATOM      6  H   UNL     1       4.413 -15.577  -0.588  0.00  0.00    +0.159 HD
ATOM      7  H   UNL     1       3.111 -15.168  -1.642  0.00  0.00    +0.159 HD
ATOM      8  H   UNL     1       3.052 -14.102   2.312  0.00  0.00    +0.159 HD
ATOM      9  H   UNL     1       4.377 -14.974   1.647  0.00  0.00    +0.159 HD
ENDROOT
BRANCH   1  10
ATOM     10  C   UNL     1       0.897 -13.322   1.152  0.00  0.00    +0.151 C 
BRANCH  10  11
ATOM     11  C   UNL     1       0.863 -11.837   0.920  0.00  0.00    -0.028 A 
ATOM     12  C   UNL     1      -0.330 -11.118   1.087  0.00  0.00    +0.005 A 
ATOM     13  C   UNL     1       2.021 -11.142   0.540  0.00  0.00    +0.005 A 
ATOM     14  C   UNL     1      -0.356  -9.734   0.901  0.00  0.00    +0.000 A 
ATOM     15  C   UNL     1       1.991  -9.760   0.355  0.00  0.00    +0.000 A 
ATOM     16  C   UNL     1       0.803  -9.056   0.538  0.00  0.00    +0.000 A 
ENDBRANCH  10  11
ENDBRANCH   1  10
TORSDOF 2
ENDMDL
MODEL 2
REMARK VINA RESULT:    -4.398      0.507      1.537
REMARK INTER + INTRA:          -5.010
REMARK INTER:                  -4.883
REMARK INTRA:                  -0.126
REMARK UNBOUND:                -0.097
REMARK  Name = 1550473
REMARK  2 active torsions:
REMARK  status: ('A' for Active; 'I' for Inactive)
REMARK    1  A    between atoms: N_1  and  C_4
REMARK    2  A    between atoms: C_4  and  C_5
REMARK                            x       y       z     vdW  Elec       q    Type
REMARK                         _______ _______ _______ _____ _____    ______ ____
ROOT
ATOM      1  N   UNL     1       2.071 -13.634   0.077  0.00  0.00    -0.354 N 
ATOM      2  N   UNL     1       3.711 -15.097  -0.654  0.00  0.00    -0.372 N 
ATOM      3  N   UNL     1       2.541 -15.606   1.253  0.00  0.00    -0.372 N 
ATOM      4  C   UNL     1       2.763 -14.771   0.232  0.00  0.00    +0.166 C 
ATOM      5  H   UNL     1       2.308 -13.029  -0.701  0.00  0.00    +0.163 HD
ATOM      6  H   UNL     1       4.247 -15.950  -0.565  0.00  0.00    +0.159 HD
ATOM      7  H   UNL     1       3.914 -14.513  -1.456  0.00  0.00    +0.159 HD
ATOM      8  H   UNL     1       1.843 -15.415   1.959  0.00  0.00    +0.159 HD
ATOM      9  H   UNL     1       3.075 -16.459   1.366  0.00  0.00    +0.159 HD
ENDROOT
BRANCH   1  10
ATOM     10  C   UNL     1       0.982 -13.214   0.956  0.00  0.00    +0.151 C 
BRANCH  10  11
ATOM     11  C   UNL     1       0.830 -11.720   0.870  0.00  0.00    -0.028 A 
ATOM     12  C   UNL     1       1.926 -10.911   0.538  0.00  0.00    +0.005 A 
ATOM     13  C   UNL     1      -0.410 -11.108   1.112  0.00  0.00    +0.005 A 
ATOM     14  C   UNL     1       1.779  -9.526   0.429  0.00  0.00    +0.000 A 
ATOM     15  C   UNL     1      -0.553  -9.725   1.003  0.00  0.00    +0.000 A 
ATOM     16  C   UNL     1       0.541  -8.935   0.658  0.00  0.00    +0.000 A 
ENDBRANCH  10  11
ENDBRANCH   1  10
TORSDOF 2
ENDMDL
MODEL 3
REMARK VINA RESULT:    -4.327     19.091     19.667
REMARK INTER + INTRA:          -4.930
REMARK INTER:                  -4.797
REMARK INTRA:                  -0.133
REMARK UNBOUND:                -0.097
REMARK  Name = 1550473
REMARK  2 active torsions:
REMARK  status: ('A' for Active; 'I' for Inactive)
REMARK    1  A    between atoms: N_1  and  C_4
REMARK    2  A    between atoms: C_4  and  C_5
REMARK                            x       y       z     vdW  Elec       q    Type
REMARK                         _______ _______ _______ _____ _____    ______ ____
ROOT
ATOM      1  N   UNL     1     -15.539  -6.725  -7.850  0.00  0.00    -0.354 N 
ATOM      2  N   UNL     1     -14.421  -7.884  -9.514  0.00  0.00    -0.372 N 
ATOM      3  N   UNL     1     -15.147  -9.027  -7.662  0.00  0.00    -0.372 N 
ATOM      4  C   UNL     1     -15.043  -7.873  -8.329  0.00  0.00    +0.166 C 
ATOM      5  H   UNL     1     -15.401  -5.878  -8.390  0.00  0.00    +0.163 HD
ATOM      6  H   UNL     1     -14.040  -8.737  -9.903  0.00  0.00    +0.159 HD
ATOM      7  H   UNL     1     -14.325  -7.046 -10.074  0.00  0.00    +0.159 HD
ATOM      8  H   UNL     1     -15.600  -9.085  -6.760  0.00  0.00    +0.159 HD
ATOM      9  H   UNL     1     -14.762  -9.889  -8.029  0.00  0.00    +0.159 HD
ENDROOT
BRANCH   1  10
ATOM     10  C   UNL     1     -16.280  -6.614  -6.595  0.00  0.00    +0.151 C 
BRANCH  10  11
ATOM     11  C   UNL     1     -15.946  -5.302  -5.941  0.00  0.00    -0.028 A 
ATOM     12  C   UNL     1     -16.854  -4.694  -5.061  0.00  0.00    +0.005 A 
ATOM     13  C   UNL     1     -14.721  -4.665  -6.191  0.00  0.00    +0.005 A 
ATOM     14  C   UNL     1     -16.531  -3.490  -4.430  0.00  0.00    +0.000 A 
ATOM     15  C   UNL     1     -14.403  -3.463  -5.559  0.00  0.00    +0.000 A 
ATOM     16  C   UNL     1     -15.308  -2.877  -4.677  0.00  0.00    +0.000 A 
ENDBRANCH  10  11
ENDBRANCH   1  10
TORSDOF 2
ENDMDL
MODEL 4
REMARK VINA RESULT:    -4.314     19.878     21.205
REMARK INTER + INTRA:          -4.915
REMARK INTER:                  -4.764
REMARK INTRA:                  -0.151
REMARK UNBOUND:                -0.097
REMARK  Name = 1550473
REMARK  2 active torsions:
REMARK  status: ('A' for Active; 'I' for Inactive)
REMARK    1  A    between atoms: N_1  and  C_4
REMARK    2  A    between atoms: C_4  and  C_5
REMARK                            x       y       z     vdW  Elec       q    Type
REMARK                         _______ _______ _______ _____ _____    ______ ____
ROOT
ATOM      1  N   UNL     1     -16.416  -1.896  -2.675  0.00  0.00    -0.354 N 
ATOM      2  N   UNL     1     -16.948  -2.163  -0.437  0.00  0.00    -0.372 N 
ATOM      3  N   UNL     1     -18.645  -1.877  -1.954  0.00  0.00    -0.372 N 
ATOM      4  C   UNL     1     -17.336  -1.976  -1.704  0.00  0.00    +0.166 C 
ATOM      5  H   UNL     1     -15.437  -1.948  -2.416  0.00  0.00    +0.163 HD
ATOM      6  H   UNL     1     -17.619  -2.231   0.317  0.00  0.00    +0.159 HD
ATOM      7  H   UNL     1     -15.971  -2.261  -0.187  0.00  0.00    +0.159 HD
ATOM      8  H   UNL     1     -19.003  -1.730  -2.888  0.00  0.00    +0.159 HD
ATOM      9  H   UNL     1     -19.332  -1.931  -1.212  0.00  0.00    +0.159 HD
ENDROOT
BRANCH   1  10
ATOM     10  C   UNL     1     -16.735  -1.748  -4.094  0.00  0.00    +0.151 C 
BRANCH  10  11
ATOM     11  C   UNL     1     -16.249  -2.962  -4.836  0.00  0.00    -0.028 A 
ATOM     12  C   UNL     1     -14.900  -3.079  -5.203  0.00  0.00    +0.005 A 
ATOM     13  C   UNL     1     -17.131  -4.001  -5.170  0.00  0.00    +0.005 A 
ATOM     14  C   UNL     1     -14.442  -4.220  -5.866  0.00  0.00    +0.000 A 
ATOM     15  C   UNL     1     -16.669  -5.138  -5.833  0.00  0.00    +0.000 A 
ATOM     16  C   UNL     1     -15.325  -5.249  -6.179  0.00  0.00    +0.000 A 
ENDBRANCH  10  11
ENDBRANCH   1  10
TORSDOF 2
ENDMDL
MODEL 5
REMARK VINA RESULT:    -4.306     18.897     19.518
REMARK INTER + INTRA:          -4.906
REMARK INTER:                  -4.807
REMARK INTRA:                  -0.100
REMARK UNBOUND:                -0.097
REMARK  Name = 1550473
REMARK  2 active torsions:
REMARK  status: ('A' for Active; 'I' for Inactive)
REMARK    1  A    between atoms: N_1  and  C_4
REMARK    2  A    between atoms: C_4  and  C_5
REMARK                            x       y       z     vdW  Elec       q    Type
REMARK                         _______ _______ _______ _____ _____    ______ ____
ROOT
ATOM      1  N   UNL     1     -16.048  -7.537  -6.025  0.00  0.00    -0.354 N 
ATOM      2  N   UNL     1     -15.910  -9.765  -5.407  0.00  0.00    -0.372 N 
ATOM      3  N   UNL     1     -15.250  -9.156  -7.519  0.00  0.00    -0.372 N 
ATOM      4  C   UNL     1     -15.736  -8.805  -6.324  0.00  0.00    +0.166 C 
ATOM      5  H   UNL     1     -16.440  -7.340  -5.112  0.00  0.00    +0.163 HD
ATOM      6  H   UNL     1     -15.680 -10.730  -5.603  0.00  0.00    +0.159 HD
ATOM      7  H   UNL     1     -16.259  -9.558  -4.480  0.00  0.00    +0.159 HD
ATOM      8  H   UNL     1     -15.102  -8.481  -8.257  0.00  0.00    +0.159 HD
ATOM      9  H   UNL     1     -15.026 -10.119  -7.738  0.00  0.00    +0.159 HD
ENDROOT
BRANCH   1  10
ATOM     10  C   UNL     1     -15.846  -6.409  -6.934  0.00  0.00    +0.151 C 
BRANCH  10  11
ATOM     11  C   UNL     1     -15.709  -5.147  -6.127  0.00  0.00    -0.028 A 
ATOM     12  C   UNL     1     -16.770  -4.692  -5.331  0.00  0.00    +0.005 A 
ATOM     13  C   UNL     1     -14.518  -4.406  -6.150  0.00  0.00    +0.005 A 
ATOM     14  C   UNL     1     -16.632  -3.536  -4.559  0.00  0.00    +0.000 A 
ATOM     15  C   UNL     1     -14.384  -3.252  -5.378  0.00  0.00    +0.000 A 
ATOM     16  C   UNL     1     -15.441  -2.819  -4.581  0.00  0.00    +0.000 A 
ENDBRANCH  10  11
ENDBRANCH   1  10
TORSDOF 2
ENDMDL
MODEL 6
REMARK VINA RESULT:    -4.259      2.263      3.284
REMARK INTER + INTRA:          -4.854
REMARK INTER:                  -4.731
REMARK INTRA:                  -0.123
REMARK UNBOUND:                -0.097
REMARK  Name = 1550473
REMARK  2 active torsions:
REMARK  status: ('A' for Active; 'I' for Inactive)
REMARK    1  A    between atoms: N_1  and  C_4
REMARK    2  A    between atoms: C_4  and  C_5
REMARK                            x       y       z     vdW  Elec       q    Type
REMARK                         _______ _______ _______ _____ _____    ______ ____
ROOT
ATOM      1  N   UNL     1       2.085 -10.807   0.048  0.00  0.00    -0.354 N 
ATOM      2  N   UNL     1       3.625 -12.526  -0.142  0.00  0.00    -0.372 N 
ATOM      3  N   UNL     1       4.297 -10.531   0.772  0.00  0.00    -0.372 N 
ATOM      4  C   UNL     1       3.327 -11.275   0.228  0.00  0.00    +0.166 C 
ATOM      5  H   UNL     1       1.403 -11.410  -0.397  0.00  0.00    +0.163 HD
ATOM      6  H   UNL     1       4.553 -12.908  -0.016  0.00  0.00    +0.159 HD
ATOM      7  H   UNL     1       2.929 -13.142  -0.545  0.00  0.00    +0.159 HD
ATOM      8  H   UNL     1       4.138  -9.577   1.067  0.00  0.00    +0.159 HD
ATOM      9  H   UNL     1       5.235 -10.892   0.895  0.00  0.00    +0.159 HD
ENDROOT
BRANCH   1  10
ATOM     10  C   UNL     1       1.643  -9.477   0.466  0.00  0.00    +0.151 C 
BRANCH  10  11
ATOM     11  C   UNL     1       0.402  -9.613   1.304  0.00  0.00    -0.028 A 
ATOM     12  C   UNL     1       0.351  -9.068   2.595  0.00  0.00    +0.005 A 
ATOM     13  C   UNL     1      -0.730 -10.280   0.810  0.00  0.00    +0.005 A 
ATOM     14  C   UNL     1      -0.812  -9.168   3.363  0.00  0.00    +0.000 A 
ATOM     15  C   UNL     1      -1.889 -10.378   1.579  0.00  0.00    +0.000 A 
ATOM     16  C   UNL     1      -1.931  -9.820   2.854  0.00  0.00    +0.000 A 
ENDBRANCH  10  11
ENDBRANCH   1  10
TORSDOF 2
ENDMDL
MODEL 7
REMARK VINA RESULT:    -4.232     20.414     21.773
REMARK INTER + INTRA:          -4.824
REMARK INTER:                  -4.680
REMARK INTRA:                  -0.143
REMARK UNBOUND:                -0.097
REMARK  Name = 1550473
REMARK  2 active torsions:
REMARK  status: ('A' for Active; 'I' for Inactive)
REMARK    1  A    between atoms: N_1  and  C_4
REMARK    2  A    between atoms: C_4  and  C_5
REMARK                            x       y       z     vdW  Elec       q    Type
REMARK                         _______ _______ _______ _____ _____    ______ ____
ROOT
ATOM      1  N   UNL     1     -17.488  -1.018  -5.062  0.00  0.00    -0.354 N 
ATOM      2  N   UNL     1     -17.146   1.262  -4.838  0.00  0.00    -0.372 N 
ATOM      3  N   UNL     1     -17.435  -0.006  -2.948  0.00  0.00    -0.372 N 
ATOM      4  C   UNL     1     -17.359   0.064  -4.281  0.00  0.00    +0.166 C 
ATOM      5  H   UNL     1     -17.450  -0.893  -6.067  0.00  0.00    +0.163 HD
ATOM      6  H   UNL     1     -17.042   2.095  -4.275  0.00  0.00    +0.159 HD
ATOM      7  H   UNL     1     -17.063   1.377  -5.841  0.00  0.00    +0.159 HD
ATOM      8  H   UNL     1     -17.600  -0.880  -2.467  0.00  0.00    +0.159 HD
ATOM      9  H   UNL     1     -17.345   0.818  -2.368  0.00  0.00    +0.159 HD
ENDROOT
BRANCH   1  10
ATOM     10  C   UNL     1     -17.668  -2.376  -4.553  0.00  0.00    +0.151 C 
BRANCH  10  11
ATOM     11  C   UNL     1     -16.598  -3.262  -5.128  0.00  0.00    -0.028 A 
ATOM     12  C   UNL     1     -16.936  -4.465  -5.765  0.00  0.00    +0.005 A 
ATOM     13  C   UNL     1     -15.244  -2.902  -5.044  0.00  0.00    +0.005 A 
ATOM     14  C   UNL     1     -15.944  -5.274  -6.326  0.00  0.00    +0.000 A 
ATOM     15  C   UNL     1     -14.257  -3.712  -5.605  0.00  0.00    +0.000 A 
ATOM     16  C   UNL     1     -14.608  -4.897  -6.247  0.00  0.00    +0.000 A 
ENDBRANCH  10  11
ENDBRANCH   1  10
TORSDOF 2
ENDMDL
MODEL 8
REMARK VINA RESULT:    -4.209     21.340     22.531
REMARK INTER + INTRA:          -4.799
REMARK INTER:                  -4.632
REMARK INTRA:                  -0.167
REMARK UNBOUND:                -0.097
REMARK  Name = 1550473
REMARK  2 active torsions:
REMARK  status: ('A' for Active; 'I' for Inactive)
REMARK    1  A    between atoms: N_1  and  C_4
REMARK    2  A    between atoms: C_4  and  C_5
REMARK                            x       y       z     vdW  Elec       q    Type
REMARK                         _______ _______ _______ _____ _____    ______ ____
ROOT
ATOM      1  N   UNL     1       1.897   1.837 -18.735  0.00  0.00    -0.354 N 
ATOM      2  N   UNL     1       0.494   3.667 -18.515  0.00  0.00    -0.372 N 
ATOM      3  N   UNL     1       2.163   3.357 -16.971  0.00  0.00    -0.372 N 
ATOM      4  C   UNL     1       1.529   2.942 -18.073  0.00  0.00    +0.166 C 
ATOM      5  H   UNL     1       1.357   1.559 -19.546  0.00  0.00    +0.163 HD
ATOM      6  H   UNL     1       0.195   4.507 -18.038  0.00  0.00    +0.159 HD
ATOM      7  H   UNL     1      -0.015   3.412 -19.352  0.00  0.00    +0.159 HD
ATOM      8  H   UNL     1       2.948   2.851 -16.582  0.00  0.00    +0.159 HD
ATOM      9  H   UNL     1       1.871   4.189 -16.473  0.00  0.00    +0.159 HD
ENDROOT
BRANCH   1  10
ATOM     10  C   UNL     1       3.043   1.007 -18.367  0.00  0.00    +0.151 C 
BRANCH  10  11
ATOM     11  C   UNL     1       2.556  -0.190 -17.599  0.00  0.00    -0.028 A 
ATOM     12  C   UNL     1       2.502  -0.163 -16.198  0.00  0.00    +0.005 A 
ATOM     13  C   UNL     1       2.143  -1.353 -18.266  0.00  0.00    +0.005 A 
ATOM     14  C   UNL     1       2.021  -1.264 -15.484  0.00  0.00    +0.000 A 
ATOM     15  C   UNL     1       1.664  -2.450 -17.551  0.00  0.00    +0.000 A 
ATOM     16  C   UNL     1       1.601  -2.404 -16.160  0.00  0.00    +0.000 A 
ENDBRANCH  10  11
ENDBRANCH   1  10
TORSDOF 2
ENDMDL
MODEL 9
REMARK VINA RESULT:    -4.173     24.246     25.367
REMARK INTER + INTRA:          -4.759
REMARK INTER:                  -4.610
REMARK INTRA:                  -0.149
REMARK UNBOUND:                -0.097
REMARK  Name = 1550473
REMARK  2 active torsions:
REMARK  status: ('A' for Active; 'I' for Inactive)
REMARK    1  A    between atoms: N_1  and  C_4
REMARK    2  A    between atoms: C_4  and  C_5
REMARK                            x       y       z     vdW  Elec       q    Type
REMARK                         _______ _______ _______ _____ _____    ______ ____
ROOT
ATOM      1  N   UNL     1     -10.059   5.792  15.110  0.00  0.00    -0.354 N 
ATOM      2  N   UNL     1      -8.065   6.814  14.523  0.00  0.00    -0.372 N 
ATOM      3  N   UNL     1      -8.395   6.202  16.710  0.00  0.00    -0.372 N 
ATOM      4  C   UNL     1      -8.852   6.263  15.454  0.00  0.00    +0.166 C 
ATOM      5  H   UNL     1     -10.359   5.896  14.148  0.00  0.00    +0.163 HD
ATOM      6  H   UNL     1      -7.148   7.175  14.752  0.00  0.00    +0.159 HD
ATOM      7  H   UNL     1      -8.349   6.875  13.553  0.00  0.00    +0.159 HD
ATOM      8  H   UNL     1      -8.943   5.803  17.460  0.00  0.00    +0.159 HD
ATOM      9  H   UNL     1      -7.486   6.568  16.961  0.00  0.00    +0.159 HD
ENDROOT
BRANCH   1  10
ATOM     10  C   UNL     1     -10.971   5.125  16.037  0.00  0.00    +0.151 C 
BRANCH  10  11
ATOM     11  C   UNL     1     -11.175   3.704  15.588  0.00  0.00    -0.028 A 
ATOM     12  C   UNL     1     -10.533   2.649  16.253  0.00  0.00    +0.005 A 
ATOM     13  C   UNL     1     -12.013   3.406  14.503  0.00  0.00    +0.005 A 
ATOM     14  C   UNL     1     -10.745   1.327  15.855  0.00  0.00    +0.000 A 
ATOM     15  C   UNL     1     -12.222   2.085  14.109  0.00  0.00    +0.000 A 
ATOM     16  C   UNL     1     -11.590   1.045  14.787  0.00  0.00    +0.000 A 
ENDBRANCH  10  11
ENDBRANCH   1  10
TORSDOF 2
ENDMDL
