MODEL 1
REMARK VINA RESULT:    -4.759      0.000      0.000
REMARK INTER + INTRA:          -5.408
REMARK INTER:                  -5.315
REMARK INTRA:                  -0.093
REMARK UNBOUND:                -0.093
REMARK  Name = 1550473
REMARK  2 active torsions:
REMARK  status: ('A' for Active; 'I' for Inactive)
REMARK    1  A    between atoms: N_1  and  C_4
REMARK    2  A    between atoms: C_4  and  C_5
REMARK                            x       y       z     vdW  Elec       q    Type
REMARK                         _______ _______ _______ _____ _____    ______ ____
ROOT
ATOM      1  N   UNL     1      15.186  10.699  20.462  0.00  0.00    -0.354 N 
ATOM      2  N   UNL     1      14.921   8.804  21.766  0.00  0.00    -0.372 N 
ATOM      3  N   UNL     1      15.059  10.850  22.797  0.00  0.00    -0.372 N 
ATOM      4  C   UNL     1      15.057  10.132  21.669  0.00  0.00    +0.166 C 
ATOM      5  H   UNL     1      15.208  10.097  19.647  0.00  0.00    +0.163 HD
ATOM      6  H   UNL     1      14.818   8.348  22.663  0.00  0.00    +0.159 HD
ATOM      7  H   UNL     1      14.896   8.209  20.947  0.00  0.00    +0.159 HD
ATOM      8  H   UNL     1      15.165  11.855  22.792  0.00  0.00    +0.159 HD
ATOM      9  H   UNL     1      14.969  10.410  23.705  0.00  0.00    +0.159 HD
ENDROOT
BRANCH   1  10
ATOM     10  C   UNL     1      15.288  12.141  20.243  0.00  0.00    +0.151 C 
BRANCH  10  11
ATOM     11  C   UNL     1      15.718  12.393  18.824  0.00  0.00    -0.028 A 
ATOM     12  C   UNL     1      14.814  12.222  17.765  0.00  0.00    +0.005 A 
ATOM     13  C   UNL     1      17.026  12.809  18.532  0.00  0.00    +0.005 A 
ATOM     14  C   UNL     1      15.204  12.485  16.449  0.00  0.00    +0.000 A 
ATOM     15  C   UNL     1      17.412  13.070  17.218  0.00  0.00    +0.000 A 
ATOM     16  C   UNL     1      16.500  12.910  16.177  0.00  0.00    +0.000 A 
ENDBRANCH  10  11
ENDBRANCH   1  10
TORSDOF 2
ENDMDL
MODEL 2
REMARK VINA RESULT:    -4.478     16.057     17.497
REMARK INTER + INTRA:          -5.094
REMARK INTER:                  -4.955
REMARK INTRA:                  -0.139
REMARK UNBOUND:                -0.093
REMARK  Name = 1550473
REMARK  2 active torsions:
REMARK  status: ('A' for Active; 'I' for Inactive)
REMARK    1  A    between atoms: N_1  and  C_4
REMARK    2  A    between atoms: C_4  and  C_5
REMARK                            x       y       z     vdW  Elec       q    Type
REMARK                         _______ _______ _______ _____ _____    ______ ____
ROOT
ATOM      1  N   UNL     1       7.836  16.540   5.368  0.00  0.00    -0.354 N 
ATOM      2  N   UNL     1       8.534  17.524   7.345  0.00  0.00    -0.372 N 
ATOM      3  N   UNL     1       8.972  18.590   5.361  0.00  0.00    -0.372 N 
ATOM      4  C   UNL     1       8.444  17.547   6.010  0.00  0.00    +0.166 C 
ATOM      5  H   UNL     1       7.483  15.764   5.916  0.00  0.00    +0.163 HD
ATOM      6  H   UNL     1       8.984  18.271   7.857  0.00  0.00    +0.159 HD
ATOM      7  H   UNL     1       8.139  16.769   7.893  0.00  0.00    +0.159 HD
ATOM      8  H   UNL     1       8.943  18.664   4.353  0.00  0.00    +0.159 HD
ATOM      9  H   UNL     1       9.437  19.341   5.855  0.00  0.00    +0.159 HD
ENDROOT
BRANCH   1  10
ATOM     10  C   UNL     1       7.638  16.494   3.921  0.00  0.00    +0.151 C 
BRANCH  10  11
ATOM     11  C   UNL     1       8.126  15.171   3.399  0.00  0.00    -0.028 A 
ATOM     12  C   UNL     1       7.550  14.600   2.255  0.00  0.00    +0.005 A 
ATOM     13  C   UNL     1       9.168  14.485   4.042  0.00  0.00    +0.005 A 
ATOM     14  C   UNL     1       8.023  13.385   1.753  0.00  0.00    +0.000 A 
ATOM     15  C   UNL     1       9.637  13.272   3.539  0.00  0.00    +0.000 A 
ATOM     16  C   UNL     1       9.066  12.724   2.393  0.00  0.00    +0.000 A 
ENDBRANCH  10  11
ENDBRANCH   1  10
TORSDOF 2
ENDMDL
MODEL 3
REMARK VINA RESULT:    -4.417     20.074     21.011
REMARK INTER + INTRA:          -5.026
REMARK INTER:                  -4.928
REMARK INTRA:                  -0.098
REMARK UNBOUND:                -0.093
REMARK  Name = 1550473
REMARK  2 active torsions:
REMARK  status: ('A' for Active; 'I' for Inactive)
REMARK    1  A    between atoms: N_1  and  C_4
REMARK    2  A    between atoms: C_4  and  C_5
REMARK                            x       y       z     vdW  Elec       q    Type
REMARK                         _______ _______ _______ _____ _____    ______ ____
ROOT
ATOM      1  N   UNL     1      -3.252   9.974  16.181  0.00  0.00    -0.354 N 
ATOM      2  N   UNL     1      -0.996   9.954  16.705  0.00  0.00    -0.372 N 
ATOM      3  N   UNL     1      -2.523  10.280  18.387  0.00  0.00    -0.372 N 
ATOM      4  C   UNL     1      -2.273  10.070  17.090  0.00  0.00    +0.166 C 
ATOM      5  H   UNL     1      -2.996   9.845  15.209  0.00  0.00    +0.163 HD
ATOM      6  H   UNL     1      -0.236  10.019  17.369  0.00  0.00    +0.159 HD
ATOM      7  H   UNL     1      -0.745   9.780  15.739  0.00  0.00    +0.159 HD
ATOM      8  H   UNL     1      -3.465  10.382  18.741  0.00  0.00    +0.159 HD
ATOM      9  H   UNL     1      -1.775  10.359  19.065  0.00  0.00    +0.159 HD
ENDROOT
BRANCH   1  10
ATOM     10  C   UNL     1      -4.677  10.032  16.504  0.00  0.00    +0.151 C 
BRANCH  10  11
ATOM     11  C   UNL     1      -5.466   9.482  15.348  0.00  0.00    -0.028 A 
ATOM     12  C   UNL     1      -5.416  10.104  14.092  0.00  0.00    +0.005 A 
ATOM     13  C   UNL     1      -6.260   8.335  15.501  0.00  0.00    +0.005 A 
ATOM     14  C   UNL     1      -6.125   9.575  13.010  0.00  0.00    +0.000 A 
ATOM     15  C   UNL     1      -6.967   7.811  14.419  0.00  0.00    +0.000 A 
ATOM     16  C   UNL     1      -6.897   8.430  13.173  0.00  0.00    +0.000 A 
ENDBRANCH  10  11
ENDBRANCH   1  10
TORSDOF 2
ENDMDL
MODEL 4
REMARK VINA RESULT:    -4.051     52.230     53.696
REMARK INTER + INTRA:          -4.617
REMARK INTER:                  -4.521
REMARK INTRA:                  -0.096
REMARK UNBOUND:                -0.093
REMARK  Name = 1550473
REMARK  2 active torsions:
REMARK  status: ('A' for Active; 'I' for Inactive)
REMARK    1  A    between atoms: N_1  and  C_4
REMARK    2  A    between atoms: C_4  and  C_5
REMARK                            x       y       z     vdW  Elec       q    Type
REMARK                         _______ _______ _______ _____ _____    ______ ____
ROOT
ATOM      1  N   UNL     1      -9.950  -9.289 -24.667  0.00  0.00    -0.354 N 
ATOM      2  N   UNL     1     -10.821 -10.542 -26.410  0.00  0.00    -0.372 N 
ATOM      3  N   UNL     1     -11.848 -10.629 -24.361  0.00  0.00    -0.372 N 
ATOM      4  C   UNL     1     -10.869 -10.146 -25.133  0.00  0.00    +0.166 C 
ATOM      5  H   UNL     1      -9.216  -8.984 -25.295  0.00  0.00    +0.163 HD
ATOM      6  H   UNL     1     -11.502 -11.185 -26.790  0.00  0.00    +0.159 HD
ATOM      7  H   UNL     1     -10.113 -10.199 -27.048  0.00  0.00    +0.159 HD
ATOM      8  H   UNL     1     -11.937 -10.374 -23.386  0.00  0.00    +0.159 HD
ATOM      9  H   UNL     1     -12.533 -11.282 -24.720  0.00  0.00    +0.159 HD
ENDROOT
BRANCH   1  10
ATOM     10  C   UNL     1      -9.945  -8.755 -23.307  0.00  0.00    +0.151 C 
BRANCH  10  11
ATOM     11  C   UNL     1      -8.973  -7.610 -23.232  0.00  0.00    -0.028 A 
ATOM     12  C   UNL     1      -9.419  -6.315 -22.931  0.00  0.00    +0.005 A 
ATOM     13  C   UNL     1      -7.603  -7.815 -23.456  0.00  0.00    +0.005 A 
ATOM     14  C   UNL     1      -8.512  -5.257 -22.832  0.00  0.00    +0.000 A 
ATOM     15  C   UNL     1      -6.700  -6.756 -23.358  0.00  0.00    +0.000 A 
ATOM     16  C   UNL     1      -7.155  -5.478 -23.043  0.00  0.00    +0.000 A 
ENDBRANCH  10  11
ENDBRANCH   1  10
TORSDOF 2
ENDMDL
MODEL 5
REMARK VINA RESULT:    -4.046     23.188     24.220
REMARK INTER + INTRA:          -4.611
REMARK INTER:                  -4.477
REMARK INTRA:                  -0.135
REMARK UNBOUND:                -0.093
REMARK  Name = 1550473
REMARK  2 active torsions:
REMARK  status: ('A' for Active; 'I' for Inactive)
REMARK    1  A    between atoms: N_1  and  C_4
REMARK    2  A    between atoms: C_4  and  C_5
REMARK                            x       y       z     vdW  Elec       q    Type
REMARK                         _______ _______ _______ _____ _____    ______ ____
ROOT
ATOM      1  N   UNL     1      -2.796  -0.921  15.428  0.00  0.00    -0.354 N 
ATOM      2  N   UNL     1      -2.220  -0.367  17.602  0.00  0.00    -0.372 N 
ATOM      3  N   UNL     1      -4.435  -0.355  17.004  0.00  0.00    -0.372 N 
ATOM      4  C   UNL     1      -3.157  -0.551  16.664  0.00  0.00    +0.166 C 
ATOM      5  H   UNL     1      -1.808  -1.023  15.225  0.00  0.00    +0.163 HD
ATOM      6  H   UNL     1      -2.463  -0.092  18.544  0.00  0.00    +0.159 HD
ATOM      7  H   UNL     1      -1.237  -0.515  17.409  0.00  0.00    +0.159 HD
ATOM      8  H   UNL     1      -5.190  -0.472  16.341  0.00  0.00    +0.159 HD
ATOM      9  H   UNL     1      -4.697  -0.068  17.939  0.00  0.00    +0.159 HD
ENDROOT
BRANCH   1  10
ATOM     10  C   UNL     1      -3.742  -1.199  14.348  0.00  0.00    +0.151 C 
BRANCH  10  11
ATOM     11  C   UNL     1      -3.427  -2.544  13.754  0.00  0.00    -0.028 A 
ATOM     12  C   UNL     1      -2.865  -3.557  14.543  0.00  0.00    +0.005 A 
ATOM     13  C   UNL     1      -3.694  -2.812  12.402  0.00  0.00    +0.005 A 
ATOM     14  C   UNL     1      -2.600  -4.816  13.999  0.00  0.00    +0.000 A 
ATOM     15  C   UNL     1      -3.427  -4.070  11.862  0.00  0.00    +0.000 A 
ATOM     16  C   UNL     1      -2.883  -5.073  12.661  0.00  0.00    +0.000 A 
ENDBRANCH  10  11
ENDBRANCH   1  10
TORSDOF 2
ENDMDL
MODEL 6
REMARK VINA RESULT:    -4.006     35.838     37.045
REMARK INTER + INTRA:          -4.568
REMARK INTER:                  -4.425
REMARK INTRA:                  -0.143
REMARK UNBOUND:                -0.093
REMARK  Name = 1550473
REMARK  2 active torsions:
REMARK  status: ('A' for Active; 'I' for Inactive)
REMARK    1  A    between atoms: N_1  and  C_4
REMARK    2  A    between atoms: C_4  and  C_5
REMARK                            x       y       z     vdW  Elec       q    Type
REMARK                         _______ _______ _______ _____ _____    ______ ____
ROOT
ATOM      1  N   UNL     1      -0.025 -12.049  -6.310  0.00  0.00    -0.354 N 
ATOM      2  N   UNL     1      -1.666 -12.644  -7.831  0.00  0.00    -0.372 N 
ATOM      3  N   UNL     1      -2.200 -11.194  -6.135  0.00  0.00    -0.372 N 
ATOM      4  C   UNL     1      -1.288 -11.957  -6.747  0.00  0.00    +0.166 C 
ATOM      5  H   UNL     1       0.611 -12.667  -6.800  0.00  0.00    +0.163 HD
ATOM      6  H   UNL     1      -2.612 -12.592  -8.187  0.00  0.00    +0.159 HD
ATOM      7  H   UNL     1      -1.017 -13.226  -8.347  0.00  0.00    +0.159 HD
ATOM      8  H   UNL     1      -1.980 -10.655  -5.308  0.00  0.00    +0.159 HD
ATOM      9  H   UNL     1      -3.154 -11.138  -6.468  0.00  0.00    +0.159 HD
ENDROOT
BRANCH   1  10
ATOM     10  C   UNL     1       0.503 -11.300  -5.170  0.00  0.00    +0.151 C 
BRANCH  10  11
ATOM     11  C   UNL     1       1.751 -10.576  -5.594  0.00  0.00    -0.028 A 
ATOM     12  C   UNL     1       2.289  -9.557  -4.794  0.00  0.00    +0.005 A 
ATOM     13  C   UNL     1       2.403 -10.908  -6.791  0.00  0.00    +0.005 A 
ATOM     14  C   UNL     1       3.465  -8.905  -5.172  0.00  0.00    +0.000 A 
ATOM     15  C   UNL     1       3.577 -10.253  -7.165  0.00  0.00    +0.000 A 
ATOM     16  C   UNL     1       4.109  -9.254  -6.354  0.00  0.00    +0.000 A 
ENDBRANCH  10  11
ENDBRANCH   1  10
TORSDOF 2
ENDMDL
MODEL 7
REMARK VINA RESULT:    -3.979     26.707     27.697
REMARK INTER + INTRA:          -4.537
REMARK INTER:                  -4.427
REMARK INTRA:                  -0.110
REMARK UNBOUND:                -0.093
REMARK  Name = 1550473
REMARK  2 active torsions:
REMARK  status: ('A' for Active; 'I' for Inactive)
REMARK    1  A    between atoms: N_1  and  C_4
REMARK    2  A    between atoms: C_4  and  C_5
REMARK                            x       y       z     vdW  Elec       q    Type
REMARK                         _______ _______ _______ _____ _____    ______ ____
ROOT
ATOM      1  N   UNL     1      -5.777  -1.754  12.414  0.00  0.00    -0.354 N 
ATOM      2  N   UNL     1      -3.636  -1.368  13.209  0.00  0.00    -0.372 N 
ATOM      3  N   UNL     1      -4.737  -3.271  13.866  0.00  0.00    -0.372 N 
ATOM      4  C   UNL     1      -4.731  -2.136  13.160  0.00  0.00    +0.166 C 
ATOM      5  H   UNL     1      -5.722  -0.868  11.926  0.00  0.00    +0.163 HD
ATOM      6  H   UNL     1      -2.830  -1.632  13.760  0.00  0.00    +0.159 HD
ATOM      7  H   UNL     1      -3.566  -0.505  12.683  0.00  0.00    +0.159 HD
ATOM      8  H   UNL     1      -5.535  -3.892  13.876  0.00  0.00    +0.159 HD
ATOM      9  H   UNL     1      -3.944  -3.547  14.433  0.00  0.00    +0.159 HD
ENDROOT
BRANCH   1  10
ATOM     10  C   UNL     1      -6.996  -2.544  12.250  0.00  0.00    +0.151 C 
BRANCH  10  11
ATOM     11  C   UNL     1      -7.709  -2.094  11.005  0.00  0.00    -0.028 A 
ATOM     12  C   UNL     1      -7.814  -0.729  10.699  0.00  0.00    +0.005 A 
ATOM     13  C   UNL     1      -8.276  -3.028  10.124  0.00  0.00    +0.005 A 
ATOM     14  C   UNL     1      -8.450  -0.312   9.527  0.00  0.00    +0.000 A 
ATOM     15  C   UNL     1      -8.911  -2.607   8.955  0.00  0.00    +0.000 A 
ATOM     16  C   UNL     1      -8.995  -1.250   8.656  0.00  0.00    +0.000 A 
ENDBRANCH  10  11
ENDBRANCH   1  10
TORSDOF 2
ENDMDL
MODEL 8
REMARK VINA RESULT:    -3.960     34.974     36.044
REMARK INTER + INTRA:          -4.515
REMARK INTER:                  -4.394
REMARK INTRA:                  -0.121
REMARK UNBOUND:                -0.093
REMARK  Name = 1550473
REMARK  2 active torsions:
REMARK  status: ('A' for Active; 'I' for Inactive)
REMARK    1  A    between atoms: N_1  and  C_4
REMARK    2  A    between atoms: C_4  and  C_5
REMARK                            x       y       z     vdW  Elec       q    Type
REMARK                         _______ _______ _______ _____ _____    ______ ____
ROOT
ATOM      1  N   UNL     1     -13.206  -0.490   4.277  0.00  0.00    -0.354 N 
ATOM      2  N   UNL     1     -11.811   0.549   5.806  0.00  0.00    -0.372 N 
ATOM      3  N   UNL     1     -11.852   1.315   3.644  0.00  0.00    -0.372 N 
ATOM      4  C   UNL     1     -12.298   0.453   4.563  0.00  0.00    +0.166 C 
ATOM      5  H   UNL     1     -13.481  -1.132   5.012  0.00  0.00    +0.163 HD
ATOM      6  H   UNL     1     -11.128   1.253   6.053  0.00  0.00    +0.159 HD
ATOM      7  H   UNL     1     -12.122  -0.064   6.550  0.00  0.00    +0.159 HD
ATOM      8  H   UNL     1     -12.175   1.291   2.686  0.00  0.00    +0.159 HD
ATOM      9  H   UNL     1     -11.159   2.018   3.868  0.00  0.00    +0.159 HD
ENDROOT
BRANCH   1  10
ATOM     10  C   UNL     1     -13.839  -0.645   2.968  0.00  0.00    +0.151 C 
BRANCH  10  11
ATOM     11  C   UNL     1     -13.983  -2.111   2.664  0.00  0.00    -0.028 A 
ATOM     12  C   UNL     1     -15.252  -2.704   2.606  0.00  0.00    +0.005 A 
ATOM     13  C   UNL     1     -12.854  -2.910   2.426  0.00  0.00    +0.005 A 
ATOM     14  C   UNL     1     -15.389  -4.059   2.293  0.00  0.00    +0.000 A 
ATOM     15  C   UNL     1     -12.995  -4.262   2.115  0.00  0.00    +0.000 A 
ATOM     16  C   UNL     1     -14.262  -4.836   2.046  0.00  0.00    +0.000 A 
ENDBRANCH  10  11
ENDBRANCH   1  10
TORSDOF 2
ENDMDL
MODEL 9
REMARK VINA RESULT:    -3.957     51.153     52.325
REMARK INTER + INTRA:          -4.513
REMARK INTER:                  -4.354
REMARK INTRA:                  -0.159
REMARK UNBOUND:                -0.093
REMARK  Name = 1550473
REMARK  2 active torsions:
REMARK  status: ('A' for Active; 'I' for Inactive)
REMARK    1  A    between atoms: N_1  and  C_4
REMARK    2  A    between atoms: C_4  and  C_5
REMARK                            x       y       z     vdW  Elec       q    Type
REMARK                         _______ _______ _______ _____ _____    ______ ____
ROOT
ATOM      1  N   UNL     1      -6.266  -8.751 -24.261  0.00  0.00    -0.354 N 
ATOM      2  N   UNL     1      -4.924  -8.964 -26.137  0.00  0.00    -0.372 N 
ATOM      3  N   UNL     1      -4.123  -7.805 -24.326  0.00  0.00    -0.372 N 
ATOM      4  C   UNL     1      -5.112  -8.504 -24.894  0.00  0.00    +0.166 C 
ATOM      5  H   UNL     1      -6.988  -9.261 -24.758  0.00  0.00    +0.163 HD
ATOM      6  H   UNL     1      -4.062  -8.797 -26.638  0.00  0.00    +0.159 HD
ATOM      7  H   UNL     1      -5.629  -9.513 -26.614  0.00  0.00    +0.159 HD
ATOM      8  H   UNL     1      -4.204  -7.425 -23.392  0.00  0.00    +0.159 HD
ATOM      9  H   UNL     1      -3.258  -7.617 -24.816  0.00  0.00    +0.159 HD
ENDROOT
BRANCH   1  10
ATOM     10  C   UNL     1      -6.550  -8.340 -22.887  0.00  0.00    +0.151 C 
BRANCH  10  11
ATOM     11  C   UNL     1      -7.619  -7.283 -22.901  0.00  0.00    -0.028 A 
ATOM     12  C   UNL     1      -7.328  -5.971 -22.498  0.00  0.00    +0.005 A 
ATOM     13  C   UNL     1      -8.923  -7.584 -23.323  0.00  0.00    +0.005 A 
ATOM     14  C   UNL     1      -8.313  -4.981 -22.539  0.00  0.00    +0.000 A 
ATOM     15  C   UNL     1      -9.904  -6.593 -23.362  0.00  0.00    +0.000 A 
ATOM     16  C   UNL     1      -9.598  -5.291 -22.973  0.00  0.00    +0.000 A 
ENDBRANCH  10  11
ENDBRANCH   1  10
TORSDOF 2
ENDMDL
