MODEL 1
REMARK VINA RESULT:    -5.780      0.000      0.000
REMARK INTER + INTRA:          -6.619
REMARK INTER:                  -6.455
REMARK INTRA:                  -0.163
REMARK UNBOUND:                -0.163
REMARK  Name = 1550473
REMARK  2 active torsions:
REMARK  status: ('A' for Active; 'I' for Inactive)
REMARK    1  A    between atoms: N_1  and  C_4
REMARK    2  A    between atoms: C_4  and  C_5
REMARK                            x       y       z     vdW  Elec       q    Type
REMARK                         _______ _______ _______ _____ _____    ______ ____
ROOT
ATOM      1  N   UNL     1       6.341  -7.752 -10.595  0.00  0.00    -0.354 N 
ATOM      2  N   UNL     1       5.450  -6.024  -9.337  0.00  0.00    -0.372 N 
ATOM      3  N   UNL     1       5.940  -8.012  -8.301  0.00  0.00    -0.372 N 
ATOM      4  C   UNL     1       5.916  -7.276  -9.417  0.00  0.00    +0.166 C 
ATOM      5  H   UNL     1       6.269  -7.154 -11.410  0.00  0.00    +0.163 HD
ATOM      6  H   UNL     1       5.126  -5.636  -8.461  0.00  0.00    +0.159 HD
ATOM      7  H   UNL     1       5.422  -5.413 -10.144  0.00  0.00    +0.159 HD
ATOM      8  H   UNL     1       6.274  -8.966  -8.296  0.00  0.00    +0.159 HD
ATOM      9  H   UNL     1       5.609  -7.645  -7.417  0.00  0.00    +0.159 HD
ENDROOT
BRANCH   1  10
ATOM     10  C   UNL     1       6.916  -9.083 -10.780  0.00  0.00    +0.151 C 
BRANCH  10  11
ATOM     11  C   UNL     1       8.404  -8.955 -10.957  0.00  0.00    -0.028 A 
ATOM     12  C   UNL     1       9.278  -9.825 -10.289  0.00  0.00    +0.005 A 
ATOM     13  C   UNL     1       8.946  -7.969 -11.796  0.00  0.00    +0.005 A 
ATOM     14  C   UNL     1      10.659  -9.726 -10.476  0.00  0.00    +0.000 A 
ATOM     15  C   UNL     1      10.325  -7.873 -11.980  0.00  0.00    +0.000 A 
ATOM     16  C   UNL     1      11.181  -8.753 -11.322  0.00  0.00    +0.000 A 
ENDBRANCH  10  11
ENDBRANCH   1  10
TORSDOF 2
ENDMDL
MODEL 2
REMARK VINA RESULT:    -4.941      8.832      9.808
REMARK INTER + INTRA:          -5.682
REMARK INTER:                  -5.583
REMARK INTRA:                  -0.099
REMARK UNBOUND:                -0.163
REMARK  Name = 1550473
REMARK  2 active torsions:
REMARK  status: ('A' for Active; 'I' for Inactive)
REMARK    1  A    between atoms: N_1  and  C_4
REMARK    2  A    between atoms: C_4  and  C_5
REMARK                            x       y       z     vdW  Elec       q    Type
REMARK                         _______ _______ _______ _____ _____    ______ ____
ROOT
ATOM      1  N   UNL     1       7.303  -0.439 -17.855  0.00  0.00    -0.354 N 
ATOM      2  N   UNL     1       8.021   1.762 -17.942  0.00  0.00    -0.372 N 
ATOM      3  N   UNL     1       6.315   1.207 -16.511  0.00  0.00    -0.372 N 
ATOM      4  C   UNL     1       7.206   0.829 -17.434  0.00  0.00    +0.166 C 
ATOM      5  H   UNL     1       7.980  -0.655 -18.578  0.00  0.00    +0.163 HD
ATOM      6  H   UNL     1       7.973   2.726 -17.641  0.00  0.00    +0.159 HD
ATOM      7  H   UNL     1       8.727   1.534 -18.631  0.00  0.00    +0.159 HD
ATOM      8  H   UNL     1       5.667   0.553 -16.093  0.00  0.00    +0.159 HD
ATOM      9  H   UNL     1       6.244   2.170 -16.206  0.00  0.00    +0.159 HD
ENDROOT
BRANCH   1  10
ATOM     10  C   UNL     1       6.500  -1.540 -17.327  0.00  0.00    +0.151 C 
BRANCH  10  11
ATOM     11  C   UNL     1       7.259  -2.827 -17.496  0.00  0.00    -0.028 A 
ATOM     12  C   UNL     1       8.175  -3.247 -16.521  0.00  0.00    +0.005 A 
ATOM     13  C   UNL     1       7.062  -3.634 -18.627  0.00  0.00    +0.005 A 
ATOM     14  C   UNL     1       8.858  -4.457 -16.663  0.00  0.00    +0.000 A 
ATOM     15  C   UNL     1       7.747  -4.841 -18.766  0.00  0.00    +0.000 A 
ATOM     16  C   UNL     1       8.642  -5.254 -17.783  0.00  0.00    +0.000 A 
ENDBRANCH  10  11
ENDBRANCH   1  10
TORSDOF 2
ENDMDL
MODEL 3
REMARK VINA RESULT:    -4.717      2.091      3.086
REMARK INTER + INTRA:          -5.432
REMARK INTER:                  -5.320
REMARK INTRA:                  -0.112
REMARK UNBOUND:                -0.163
REMARK  Name = 1550473
REMARK  2 active torsions:
REMARK  status: ('A' for Active; 'I' for Inactive)
REMARK    1  A    between atoms: N_1  and  C_4
REMARK    2  A    between atoms: C_4  and  C_5
REMARK                            x       y       z     vdW  Elec       q    Type
REMARK                         _______ _______ _______ _____ _____    ______ ____
ROOT
ATOM      1  N   UNL     1       8.268  -8.202 -11.144  0.00  0.00    -0.354 N 
ATOM      2  N   UNL     1       6.674  -8.314  -9.467  0.00  0.00    -0.372 N 
ATOM      3  N   UNL     1       8.114 -10.078  -9.747  0.00  0.00    -0.372 N 
ATOM      4  C   UNL     1       7.697  -8.866 -10.130  0.00  0.00    +0.166 C 
ATOM      5  H   UNL     1       7.885  -7.300 -11.405  0.00  0.00    +0.163 HD
ATOM      6  H   UNL     1       6.226  -8.789  -8.695  0.00  0.00    +0.159 HD
ATOM      7  H   UNL     1       6.323  -7.392  -9.700  0.00  0.00    +0.159 HD
ATOM      8  H   UNL     1       8.878 -10.552 -10.210  0.00  0.00    +0.159 HD
ATOM      9  H   UNL     1       7.671 -10.575  -8.985  0.00  0.00    +0.159 HD
ENDROOT
BRANCH   1  10
ATOM     10  C   UNL     1       9.421  -8.692 -11.896  0.00  0.00    +0.151 C 
BRANCH  10  11
ATOM     11  C   UNL     1      10.248  -7.519 -12.347  0.00  0.00    -0.028 A 
ATOM     12  C   UNL     1      11.646  -7.553 -12.247  0.00  0.00    +0.005 A 
ATOM     13  C   UNL     1       9.638  -6.374 -12.881  0.00  0.00    +0.005 A 
ATOM     14  C   UNL     1      12.416  -6.476 -12.694  0.00  0.00    +0.000 A 
ATOM     15  C   UNL     1      10.410  -5.300 -13.325  0.00  0.00    +0.000 A 
ATOM     16  C   UNL     1      11.799  -5.353 -13.233  0.00  0.00    +0.000 A 
ENDBRANCH  10  11
ENDBRANCH   1  10
TORSDOF 2
ENDMDL
MODEL 4
REMARK VINA RESULT:    -4.605     10.116     11.249
REMARK INTER + INTRA:          -5.307
REMARK INTER:                  -5.190
REMARK INTRA:                  -0.117
REMARK UNBOUND:                -0.163
REMARK  Name = 1550473
REMARK  2 active torsions:
REMARK  status: ('A' for Active; 'I' for Inactive)
REMARK    1  A    between atoms: N_1  and  C_4
REMARK    2  A    between atoms: C_4  and  C_5
REMARK                            x       y       z     vdW  Elec       q    Type
REMARK                         _______ _______ _______ _____ _____    ______ ____
ROOT
ATOM      1  N   UNL     1       7.131   1.620 -16.595  0.00  0.00    -0.354 N 
ATOM      2  N   UNL     1       6.316   3.271 -15.190  0.00  0.00    -0.372 N 
ATOM      3  N   UNL     1       6.620   3.756 -17.412  0.00  0.00    -0.372 N 
ATOM      4  C   UNL     1       6.695   2.873 -16.410  0.00  0.00    +0.166 C 
ATOM      5  H   UNL     1       7.192   1.008 -15.789  0.00  0.00    +0.163 HD
ATOM      6  H   UNL     1       5.980   4.210 -15.021  0.00  0.00    +0.159 HD
ATOM      7  H   UNL     1       6.335   2.644 -14.395  0.00  0.00    +0.159 HD
ATOM      8  H   UNL     1       6.897   3.520 -18.356  0.00  0.00    +0.159 HD
ATOM      9  H   UNL     1       6.297   4.703 -17.261  0.00  0.00    +0.159 HD
ENDROOT
BRANCH   1  10
ATOM     10  C   UNL     1       7.516   1.071 -17.893  0.00  0.00    +0.151 C 
BRANCH  10  11
ATOM     11  C   UNL     1       7.461  -0.431 -17.828  0.00  0.00    -0.028 A 
ATOM     12  C   UNL     1       8.504  -1.205 -18.357  0.00  0.00    +0.005 A 
ATOM     13  C   UNL     1       6.371  -1.085 -17.233  0.00  0.00    +0.005 A 
ATOM     14  C   UNL     1       8.468  -2.599 -18.269  0.00  0.00    +0.000 A 
ATOM     15  C   UNL     1       6.338  -2.477 -17.148  0.00  0.00    +0.000 A 
ATOM     16  C   UNL     1       7.388  -3.233 -17.664  0.00  0.00    +0.000 A 
ENDBRANCH  10  11
ENDBRANCH   1  10
TORSDOF 2
ENDMDL
MODEL 5
REMARK VINA RESULT:    -4.508     25.098     26.624
REMARK INTER + INTRA:          -5.198
REMARK INTER:                  -5.075
REMARK INTRA:                  -0.123
REMARK UNBOUND:                -0.163
REMARK  Name = 1550473
REMARK  2 active torsions:
REMARK  status: ('A' for Active; 'I' for Inactive)
REMARK    1  A    between atoms: N_1  and  C_4
REMARK    2  A    between atoms: C_4  and  C_5
REMARK                            x       y       z     vdW  Elec       q    Type
REMARK                         _______ _______ _______ _____ _____    ______ ____
ROOT
ATOM      1  N   UNL     1      -5.573  -3.115  10.393  0.00  0.00    -0.354 N 
ATOM      2  N   UNL     1      -4.710  -5.228  10.787  0.00  0.00    -0.372 N 
ATOM      3  N   UNL     1      -3.300  -3.419  10.877  0.00  0.00    -0.372 N 
ATOM      4  C   UNL     1      -4.531  -3.905  10.683  0.00  0.00    +0.166 C 
ATOM      5  H   UNL     1      -6.474  -3.548  10.228  0.00  0.00    +0.163 HD
ATOM      6  H   UNL     1      -3.943  -5.849  11.009  0.00  0.00    +0.159 HD
ATOM      7  H   UNL     1      -5.621  -5.653  10.667  0.00  0.00    +0.159 HD
ATOM      8  H   UNL     1      -3.098  -2.431  10.807  0.00  0.00    +0.159 HD
ATOM      9  H   UNL     1      -2.518  -4.026  11.088  0.00  0.00    +0.159 HD
ENDROOT
BRANCH   1  10
ATOM     10  C   UNL     1      -5.496  -1.658  10.310  0.00  0.00    +0.151 C 
BRANCH  10  11
ATOM     11  C   UNL     1      -6.876  -1.105  10.084  0.00  0.00    -0.028 A 
ATOM     12  C   UNL     1      -7.064   0.264   9.844  0.00  0.00    +0.005 A 
ATOM     13  C   UNL     1      -7.999  -1.945  10.104  0.00  0.00    +0.005 A 
ATOM     14  C   UNL     1      -8.343   0.774   9.605  0.00  0.00    +0.000 A 
ATOM     15  C   UNL     1      -9.274  -1.433   9.866  0.00  0.00    +0.000 A 
ATOM     16  C   UNL     1      -9.445  -0.074   9.614  0.00  0.00    +0.000 A 
ENDBRANCH  10  11
ENDBRANCH   1  10
TORSDOF 2
ENDMDL
MODEL 6
REMARK VINA RESULT:    -4.453     30.155     30.898
REMARK INTER + INTRA:          -5.137
REMARK INTER:                  -5.045
REMARK INTRA:                  -0.091
REMARK UNBOUND:                -0.163
REMARK  Name = 1550473
REMARK  2 active torsions:
REMARK  status: ('A' for Active; 'I' for Inactive)
REMARK    1  A    between atoms: N_1  and  C_4
REMARK    2  A    between atoms: C_4  and  C_5
REMARK                            x       y       z     vdW  Elec       q    Type
REMARK                         _______ _______ _______ _____ _____    ______ ____
ROOT
ATOM      1  N   UNL     1      17.357  -2.109  19.661  0.00  0.00    -0.354 N 
ATOM      2  N   UNL     1      17.496  -0.353  21.164  0.00  0.00    -0.372 N 
ATOM      3  N   UNL     1      16.803  -2.406  21.919  0.00  0.00    -0.372 N 
ATOM      4  C   UNL     1      17.217  -1.636  20.907  0.00  0.00    +0.166 C 
ATOM      5  H   UNL     1      17.646  -1.467  18.932  0.00  0.00    +0.163 HD
ATOM      6  H   UNL     1      17.402   0.031  22.095  0.00  0.00    +0.159 HD
ATOM      7  H   UNL     1      17.828   0.275  20.443  0.00  0.00    +0.159 HD
ATOM      8  H   UNL     1      16.570  -3.382  21.789  0.00  0.00    +0.159 HD
ATOM      9  H   UNL     1      16.692  -2.037  22.855  0.00  0.00    +0.159 HD
ENDROOT
BRANCH   1  10
ATOM     10  C   UNL     1      17.131  -3.504  19.286  0.00  0.00    +0.151 C 
BRANCH  10  11
ATOM     11  C   UNL     1      17.507  -3.691  17.842  0.00  0.00    -0.028 A 
ATOM     12  C   UNL     1      16.601  -3.366  16.822  0.00  0.00    +0.005 A 
ATOM     13  C   UNL     1      18.771  -4.189  17.487  0.00  0.00    +0.005 A 
ATOM     14  C   UNL     1      16.961  -3.511  15.480  0.00  0.00    +0.000 A 
ATOM     15  C   UNL     1      19.126  -4.333  16.146  0.00  0.00    +0.000 A 
ATOM     16  C   UNL     1      18.222  -3.992  15.143  0.00  0.00    +0.000 A 
ENDBRANCH  10  11
ENDBRANCH   1  10
TORSDOF 2
ENDMDL
MODEL 7
REMARK VINA RESULT:    -4.419     16.993     18.482
REMARK INTER + INTRA:          -5.099
REMARK INTER:                  -4.940
REMARK INTRA:                  -0.159
REMARK UNBOUND:                -0.163
REMARK  Name = 1550473
REMARK  2 active torsions:
REMARK  status: ('A' for Active; 'I' for Inactive)
REMARK    1  A    between atoms: N_1  and  C_4
REMARK    2  A    between atoms: C_4  and  C_5
REMARK                            x       y       z     vdW  Elec       q    Type
REMARK                         _______ _______ _______ _____ _____    ______ ____
ROOT
ATOM      1  N   UNL     1       3.955 -10.314   9.228  0.00  0.00    -0.354 N 
ATOM      2  N   UNL     1       1.818  -9.585   9.744  0.00  0.00    -0.372 N 
ATOM      3  N   UNL     1       3.450  -8.028   9.321  0.00  0.00    -0.372 N 
ATOM      4  C   UNL     1       3.090  -9.311   9.428  0.00  0.00    +0.166 C 
ATOM      5  H   UNL     1       3.627 -11.265   9.354  0.00  0.00    +0.163 HD
ATOM      6  H   UNL     1       1.142  -8.849   9.898  0.00  0.00    +0.159 HD
ATOM      7  H   UNL     1       1.482 -10.537   9.824  0.00  0.00    +0.159 HD
ATOM      8  H   UNL     1       4.395  -7.754   9.091  0.00  0.00    +0.159 HD
ATOM      9  H   UNL     1       2.790  -7.277   9.483  0.00  0.00    +0.159 HD
ENDROOT
BRANCH   1  10
ATOM     10  C   UNL     1       5.348 -10.125   8.827  0.00  0.00    +0.151 C 
BRANCH  10  11
ATOM     11  C   UNL     1       5.461 -10.314   7.339  0.00  0.00    -0.028 A 
ATOM     12  C   UNL     1       4.646 -11.243   6.676  0.00  0.00    +0.005 A 
ATOM     13  C   UNL     1       6.376  -9.563   6.587  0.00  0.00    +0.005 A 
ATOM     14  C   UNL     1       4.730 -11.398   5.290  0.00  0.00    +0.000 A 
ATOM     15  C   UNL     1       6.457  -9.721   5.203  0.00  0.00    +0.000 A 
ATOM     16  C   UNL     1       5.632 -10.637   4.555  0.00  0.00    +0.000 A 
ENDBRANCH  10  11
ENDBRANCH   1  10
TORSDOF 2
ENDMDL
MODEL 8
REMARK VINA RESULT:    -4.289      3.885      5.137
REMARK INTER + INTRA:          -4.954
REMARK INTER:                  -4.787
REMARK INTRA:                  -0.166
REMARK UNBOUND:                -0.163
REMARK  Name = 1550473
REMARK  2 active torsions:
REMARK  status: ('A' for Active; 'I' for Inactive)
REMARK    1  A    between atoms: N_1  and  C_4
REMARK    2  A    between atoms: C_4  and  C_5
REMARK                            x       y       z     vdW  Elec       q    Type
REMARK                         _______ _______ _______ _____ _____    ______ ____
ROOT
ATOM      1  N   UNL     1      12.751  -8.679  -9.815  0.00  0.00    -0.354 N 
ATOM      2  N   UNL     1      13.802  -6.761  -9.053  0.00  0.00    -0.372 N 
ATOM      3  N   UNL     1      13.498  -7.037 -11.310  0.00  0.00    -0.372 N 
ATOM      4  C   UNL     1      13.344  -7.505 -10.067  0.00  0.00    +0.166 C 
ATOM      5  H   UNL     1      12.692  -8.992  -8.852  0.00  0.00    +0.163 HD
ATOM      6  H   UNL     1      14.250  -5.869  -9.212  0.00  0.00    +0.159 HD
ATOM      7  H   UNL     1      13.700  -7.055  -8.089  0.00  0.00    +0.159 HD
ATOM      8  H   UNL     1      13.179  -7.552 -12.120  0.00  0.00    +0.159 HD
ATOM      9  H   UNL     1      13.955  -6.152 -11.491  0.00  0.00    +0.159 HD
ENDROOT
BRANCH   1  10
ATOM     10  C   UNL     1      12.170  -9.540 -10.844  0.00  0.00    +0.151 C 
BRANCH  10  11
ATOM     11  C   UNL     1      10.675  -9.379 -10.831  0.00  0.00    -0.028 A 
ATOM     12  C   UNL     1       9.869 -10.271 -10.109  0.00  0.00    +0.005 A 
ATOM     13  C   UNL     1      10.058  -8.334 -11.536  0.00  0.00    +0.005 A 
ATOM     14  C   UNL     1       8.482 -10.105 -10.072  0.00  0.00    +0.000 A 
ATOM     15  C   UNL     1       8.673  -8.172 -11.498  0.00  0.00    +0.000 A 
ATOM     16  C   UNL     1       7.886  -9.056 -10.764  0.00  0.00    +0.000 A 
ENDBRANCH  10  11
ENDBRANCH   1  10
TORSDOF 2
ENDMDL
MODEL 9
REMARK VINA RESULT:    -4.272      3.935      5.113
REMARK INTER + INTRA:          -4.935
REMARK INTER:                  -4.841
REMARK INTRA:                  -0.094
REMARK UNBOUND:                -0.163
REMARK  Name = 1550473
REMARK  2 active torsions:
REMARK  status: ('A' for Active; 'I' for Inactive)
REMARK    1  A    between atoms: N_1  and  C_4
REMARK    2  A    between atoms: C_4  and  C_5
REMARK                            x       y       z     vdW  Elec       q    Type
REMARK                         _______ _______ _______ _____ _____    ______ ____
ROOT
ATOM      1  N   UNL     1      11.033 -10.918  -8.336  0.00  0.00    -0.354 N 
ATOM      2  N   UNL     1      12.469 -11.236  -6.547  0.00  0.00    -0.372 N 
ATOM      3  N   UNL     1      11.817 -13.056  -7.782  0.00  0.00    -0.372 N 
ATOM      4  C   UNL     1      11.763 -11.737  -7.568  0.00  0.00    +0.166 C 
ATOM      5  H   UNL     1      11.010  -9.932  -8.103  0.00  0.00    +0.163 HD
ATOM      6  H   UNL     1      13.031 -11.829  -5.952  0.00  0.00    +0.159 HD
ATOM      7  H   UNL     1      12.481 -10.244  -6.344  0.00  0.00    +0.159 HD
ATOM      8  H   UNL     1      11.302 -13.498  -8.533  0.00  0.00    +0.159 HD
ATOM      9  H   UNL     1      12.365 -13.668  -7.191  0.00  0.00    +0.159 HD
ENDROOT
BRANCH   1  10
ATOM     10  C   UNL     1      10.271 -11.356  -9.505  0.00  0.00    +0.151 C 
BRANCH  10  11
ATOM     11  C   UNL     1       9.765 -10.147 -10.242  0.00  0.00    -0.028 A 
ATOM     12  C   UNL     1      10.633  -9.380 -11.034  0.00  0.00    +0.005 A 
ATOM     13  C   UNL     1       8.417  -9.766 -10.158  0.00  0.00    +0.005 A 
ATOM     14  C   UNL     1      10.156  -8.275 -11.742  0.00  0.00    +0.000 A 
ATOM     15  C   UNL     1       7.945  -8.661 -10.866  0.00  0.00    +0.000 A 
ATOM     16  C   UNL     1       8.815  -7.917 -11.660  0.00  0.00    +0.000 A 
ENDBRANCH  10  11
ENDBRANCH   1  10
TORSDOF 2
ENDMDL
