MODEL 1
REMARK VINA RESULT:    -4.566      0.000      0.000
REMARK INTER + INTRA:          -5.252
REMARK INTER:                  -5.100
REMARK INTRA:                  -0.152
REMARK UNBOUND:                -0.152
REMARK  Name = 1550473
REMARK  2 active torsions:
REMARK  status: ('A' for Active; 'I' for Inactive)
REMARK    1  A    between atoms: N_1  and  C_4
REMARK    2  A    between atoms: C_4  and  C_5
REMARK                            x       y       z     vdW  Elec       q    Type
REMARK                         _______ _______ _______ _____ _____    ______ ____
ROOT
ATOM      1  N   UNL     1      -1.297   8.764   0.699  0.00  0.00    -0.354 N 
ATOM      2  N   UNL     1       1.001   8.852   0.975  0.00  0.00    -0.372 N 
ATOM      3  N   UNL     1       0.150   8.005  -0.980  0.00  0.00    -0.372 N 
ATOM      4  C   UNL     1      -0.064   8.538   0.227  0.00  0.00    +0.166 C 
ATOM      5  H   UNL     1      -1.392   9.143   1.634  0.00  0.00    +0.163 HD
ATOM      6  H   UNL     1       1.943   8.696   0.644  0.00  0.00    +0.159 HD
ATOM      7  H   UNL     1       0.903   9.273   1.891  0.00  0.00    +0.159 HD
ATOM      8  H   UNL     1      -0.611   7.740  -1.592  0.00  0.00    +0.159 HD
ATOM      9  H   UNL     1       1.086   7.830  -1.325  0.00  0.00    +0.159 HD
ENDROOT
BRANCH   1  10
ATOM     10  C   UNL     1      -2.522   8.509  -0.057  0.00  0.00    +0.151 C 
BRANCH  10  11
ATOM     11  C   UNL     1      -3.204   7.293   0.509  0.00  0.00    -0.028 A 
ATOM     12  C   UNL     1      -2.694   6.011   0.259  0.00  0.00    +0.005 A 
ATOM     13  C   UNL     1      -4.356   7.418   1.300  0.00  0.00    +0.005 A 
ATOM     14  C   UNL     1      -3.310   4.883   0.809  0.00  0.00    +0.000 A 
ATOM     15  C   UNL     1      -4.968   6.290   1.846  0.00  0.00    +0.000 A 
ATOM     16  C   UNL     1      -4.443   5.023   1.603  0.00  0.00    +0.000 A 
ENDBRANCH  10  11
ENDBRANCH   1  10
TORSDOF 2
ENDMDL
MODEL 2
REMARK VINA RESULT:    -4.544     18.575     19.611
REMARK INTER + INTRA:          -5.227
REMARK INTER:                  -5.063
REMARK INTRA:                  -0.164
REMARK UNBOUND:                -0.152
REMARK  Name = 1550473
REMARK  2 active torsions:
REMARK  status: ('A' for Active; 'I' for Inactive)
REMARK    1  A    between atoms: N_1  and  C_4
REMARK    2  A    between atoms: C_4  and  C_5
REMARK                            x       y       z     vdW  Elec       q    Type
REMARK                         _______ _______ _______ _____ _____    ______ ____
ROOT
ATOM      1  N   UNL     1      -5.306 -10.331  -5.838  0.00  0.00    -0.354 N 
ATOM      2  N   UNL     1      -4.700  -8.458  -7.058  0.00  0.00    -0.372 N 
ATOM      3  N   UNL     1      -3.836 -10.498  -7.656  0.00  0.00    -0.372 N 
ATOM      4  C   UNL     1      -4.616  -9.777  -6.844  0.00  0.00    +0.166 C 
ATOM      5  H   UNL     1      -5.855  -9.726  -5.240  0.00  0.00    +0.163 HD
ATOM      6  H   UNL     1      -4.193  -8.012  -7.811  0.00  0.00    +0.159 HD
ATOM      7  H   UNL     1      -5.286  -7.862  -6.487  0.00  0.00    +0.159 HD
ATOM      8  H   UNL     1      -3.726 -11.497  -7.544  0.00  0.00    +0.159 HD
ATOM      9  H   UNL     1      -3.313 -10.068  -8.408  0.00  0.00    +0.159 HD
ENDROOT
BRANCH   1  10
ATOM     10  C   UNL     1      -5.326 -11.765  -5.554  0.00  0.00    +0.151 C 
BRANCH  10  11
ATOM     11  C   UNL     1      -4.521 -12.031  -4.312  0.00  0.00    -0.028 A 
ATOM     12  C   UNL     1      -3.528 -13.021  -4.306  0.00  0.00    +0.005 A 
ATOM     13  C   UNL     1      -4.742 -11.292  -3.140  0.00  0.00    +0.005 A 
ATOM     14  C   UNL     1      -2.759 -13.248  -3.162  0.00  0.00    +0.000 A 
ATOM     15  C   UNL     1      -3.973 -11.522  -1.999  0.00  0.00    +0.000 A 
ATOM     16  C   UNL     1      -2.980 -12.498  -2.011  0.00  0.00    +0.000 A 
ENDBRANCH  10  11
ENDBRANCH   1  10
TORSDOF 2
ENDMDL
MODEL 3
REMARK VINA RESULT:    -4.503     10.701     12.490
REMARK INTER + INTRA:          -5.182
REMARK INTER:                  -5.049
REMARK INTRA:                  -0.133
REMARK UNBOUND:                -0.152
REMARK  Name = 1550473
REMARK  2 active torsions:
REMARK  status: ('A' for Active; 'I' for Inactive)
REMARK    1  A    between atoms: N_1  and  C_4
REMARK    2  A    between atoms: C_4  and  C_5
REMARK                            x       y       z     vdW  Elec       q    Type
REMARK                         _______ _______ _______ _____ _____    ______ ____
ROOT
ATOM      1  N   UNL     1      -9.213   0.255   5.159  0.00  0.00    -0.354 N 
ATOM      2  N   UNL     1     -10.055   0.957   3.119  0.00  0.00    -0.372 N 
ATOM      3  N   UNL     1      -8.637  -0.846   3.172  0.00  0.00    -0.372 N 
ATOM      4  C   UNL     1      -9.294   0.116   3.829  0.00  0.00    +0.166 C 
ATOM      5  H   UNL     1      -9.711   1.023   5.594  0.00  0.00    +0.163 HD
ATOM      6  H   UNL     1     -10.139   0.874   2.115  0.00  0.00    +0.159 HD
ATOM      7  H   UNL     1     -10.589   1.695   3.561  0.00  0.00    +0.159 HD
ATOM      8  H   UNL     1      -8.041  -1.509   3.648  0.00  0.00    +0.159 HD
ATOM      9  H   UNL     1      -8.699  -0.938   2.165  0.00  0.00    +0.159 HD
ENDROOT
BRANCH   1  10
ATOM     10  C   UNL     1      -8.455  -0.641   6.030  0.00  0.00    +0.151 C 
BRANCH  10  11
ATOM     11  C   UNL     1      -9.149  -0.737   7.360  0.00  0.00    -0.028 A 
ATOM     12  C   UNL     1     -10.388  -0.110   7.563  0.00  0.00    +0.005 A 
ATOM     13  C   UNL     1      -8.577  -1.457   8.420  0.00  0.00    +0.005 A 
ATOM     14  C   UNL     1     -11.047  -0.223   8.790  0.00  0.00    +0.000 A 
ATOM     15  C   UNL     1      -9.238  -1.567   9.643  0.00  0.00    +0.000 A 
ATOM     16  C   UNL     1     -10.475  -0.952   9.827  0.00  0.00    +0.000 A 
ENDBRANCH  10  11
ENDBRANCH   1  10
TORSDOF 2
ENDMDL
MODEL 4
REMARK VINA RESULT:    -4.165     10.938     12.718
REMARK INTER + INTRA:          -4.804
REMARK INTER:                  -4.663
REMARK INTRA:                  -0.141
REMARK UNBOUND:                -0.152
REMARK  Name = 1550473
REMARK  2 active torsions:
REMARK  status: ('A' for Active; 'I' for Inactive)
REMARK    1  A    between atoms: N_1  and  C_4
REMARK    2  A    between atoms: C_4  and  C_5
REMARK                            x       y       z     vdW  Elec       q    Type
REMARK                         _______ _______ _______ _____ _____    ______ ____
ROOT
ATOM      1  N   UNL     1      -9.407  -0.717   4.563  0.00  0.00    -0.354 N 
ATOM      2  N   UNL     1      -9.657   1.586   4.559  0.00  0.00    -0.372 N 
ATOM      3  N   UNL     1      -7.551   0.698   4.353  0.00  0.00    -0.372 N 
ATOM      4  C   UNL     1      -8.867   0.507   4.492  0.00  0.00    +0.166 C 
ATOM      5  H   UNL     1     -10.409  -0.794   4.698  0.00  0.00    +0.163 HD
ATOM      6  H   UNL     1      -9.278   2.522   4.505  0.00  0.00    +0.159 HD
ATOM      7  H   UNL     1     -10.662   1.505   4.648  0.00  0.00    +0.159 HD
ATOM      8  H   UNL     1      -6.900  -0.075   4.303  0.00  0.00    +0.159 HD
ATOM      9  H   UNL     1      -7.152   1.627   4.309  0.00  0.00    +0.159 HD
ENDROOT
BRANCH   1  10
ATOM     10  C   UNL     1      -8.642  -1.957   4.446  0.00  0.00    +0.151 C 
BRANCH  10  11
ATOM     11  C   UNL     1      -9.016  -2.874   5.577  0.00  0.00    -0.028 A 
ATOM     12  C   UNL     1      -9.096  -4.259   5.375  0.00  0.00    +0.005 A 
ATOM     13  C   UNL     1      -9.287  -2.364   6.857  0.00  0.00    +0.005 A 
ATOM     14  C   UNL     1      -9.414  -5.114   6.433  0.00  0.00    +0.000 A 
ATOM     15  C   UNL     1      -9.605  -3.221   7.910  0.00  0.00    +0.000 A 
ATOM     16  C   UNL     1      -9.666  -4.596   7.698  0.00  0.00    +0.000 A 
ENDBRANCH  10  11
ENDBRANCH   1  10
TORSDOF 2
ENDMDL
MODEL 5
REMARK VINA RESULT:    -4.073     11.856     13.461
REMARK INTER + INTRA:          -4.702
REMARK INTER:                  -4.542
REMARK INTRA:                  -0.160
REMARK UNBOUND:                -0.152
REMARK  Name = 1550473
REMARK  2 active torsions:
REMARK  status: ('A' for Active; 'I' for Inactive)
REMARK    1  A    between atoms: N_1  and  C_4
REMARK    2  A    between atoms: C_4  and  C_5
REMARK                            x       y       z     vdW  Elec       q    Type
REMARK                         _______ _______ _______ _____ _____    ______ ____
ROOT
ATOM      1  N   UNL     1      -9.326  -4.116   5.382  0.00  0.00    -0.354 N 
ATOM      2  N   UNL     1     -11.009  -5.492   6.181  0.00  0.00    -0.372 N 
ATOM      3  N   UNL     1     -10.715  -5.302   3.913  0.00  0.00    -0.372 N 
ATOM      4  C   UNL     1     -10.340  -4.961   5.151  0.00  0.00    +0.166 C 
ATOM      5  H   UNL     1      -9.111  -3.875   6.343  0.00  0.00    +0.163 HD
ATOM      6  H   UNL     1     -11.776  -6.135   6.038  0.00  0.00    +0.159 HD
ATOM      7  H   UNL     1     -10.762  -5.285   7.141  0.00  0.00    +0.159 HD
ATOM      8  H   UNL     1     -10.254  -4.932   3.093  0.00  0.00    +0.159 HD
ATOM      9  H   UNL     1     -11.488  -5.935   3.749  0.00  0.00    +0.159 HD
ENDROOT
BRANCH   1  10
ATOM     10  C   UNL     1      -8.499  -3.525   4.332  0.00  0.00    +0.151 C 
BRANCH  10  11
ATOM     11  C   UNL     1      -8.799  -2.055   4.239  0.00  0.00    -0.028 A 
ATOM     12  C   UNL     1      -9.251  -1.495   3.035  0.00  0.00    +0.005 A 
ATOM     13  C   UNL     1      -8.639  -1.216   5.353  0.00  0.00    +0.005 A 
ATOM     14  C   UNL     1      -9.559  -0.135   2.957  0.00  0.00    +0.000 A 
ATOM     15  C   UNL     1      -8.947   0.142   5.270  0.00  0.00    +0.000 A 
ATOM     16  C   UNL     1      -9.409   0.682   4.073  0.00  0.00    +0.000 A 
ENDBRANCH  10  11
ENDBRANCH   1  10
TORSDOF 2
ENDMDL
MODEL 6
REMARK VINA RESULT:    -4.064     12.245     13.617
REMARK INTER + INTRA:          -4.691
REMARK INTER:                  -4.561
REMARK INTRA:                  -0.130
REMARK UNBOUND:                -0.152
REMARK  Name = 1550473
REMARK  2 active torsions:
REMARK  status: ('A' for Active; 'I' for Inactive)
REMARK    1  A    between atoms: N_1  and  C_4
REMARK    2  A    between atoms: C_4  and  C_5
REMARK                            x       y       z     vdW  Elec       q    Type
REMARK                         _______ _______ _______ _____ _____    ______ ____
ROOT
ATOM      1  N   UNL     1      -8.882  -2.323   6.512  0.00  0.00    -0.354 N 
ATOM      2  N   UNL     1      -9.042  -3.504   4.525  0.00  0.00    -0.372 N 
ATOM      3  N   UNL     1      -8.383  -1.307   4.460  0.00  0.00    -0.372 N 
ATOM      4  C   UNL     1      -8.768  -2.368   5.178  0.00  0.00    +0.166 C 
ATOM      5  H   UNL     1      -9.207  -3.153   6.995  0.00  0.00    +0.163 HD
ATOM      6  H   UNL     1      -8.961  -3.568   3.519  0.00  0.00    +0.159 HD
ATOM      7  H   UNL     1      -9.322  -4.345   5.015  0.00  0.00    +0.159 HD
ATOM      8  H   UNL     1      -8.167  -0.418   4.892  0.00  0.00    +0.159 HD
ATOM      9  H   UNL     1      -8.308  -1.348   3.451  0.00  0.00    +0.159 HD
ENDROOT
BRANCH   1  10
ATOM     10  C   UNL     1      -8.556  -1.151   7.322  0.00  0.00    +0.151 C 
BRANCH  10  11
ATOM     11  C   UNL     1      -9.702  -0.862   8.252  0.00  0.00    -0.028 A 
ATOM     12  C   UNL     1      -9.698  -1.361   9.563  0.00  0.00    +0.005 A 
ATOM     13  C   UNL     1     -10.792  -0.086   7.830  0.00  0.00    +0.005 A 
ATOM     14  C   UNL     1     -10.748  -1.067  10.437  0.00  0.00    +0.000 A 
ATOM     15  C   UNL     1     -11.839   0.204   8.705  0.00  0.00    +0.000 A 
ATOM     16  C   UNL     1     -11.815  -0.285  10.009  0.00  0.00    +0.000 A 
ENDBRANCH  10  11
ENDBRANCH   1  10
TORSDOF 2
ENDMDL
MODEL 7
REMARK VINA RESULT:    -4.043     10.627     12.039
REMARK INTER + INTRA:          -4.668
REMARK INTER:                  -4.522
REMARK INTRA:                  -0.146
REMARK UNBOUND:                -0.152
REMARK  Name = 1550473
REMARK  2 active torsions:
REMARK  status: ('A' for Active; 'I' for Inactive)
REMARK    1  A    between atoms: N_1  and  C_4
REMARK    2  A    between atoms: C_4  and  C_5
REMARK                            x       y       z     vdW  Elec       q    Type
REMARK                         _______ _______ _______ _____ _____    ______ ____
ROOT
ATOM      1  N   UNL     1      -9.009  -0.371   3.465  0.00  0.00    -0.354 N 
ATOM      2  N   UNL     1     -10.343  -0.054   1.599  0.00  0.00    -0.372 N 
ATOM      3  N   UNL     1     -10.405   1.503   3.283  0.00  0.00    -0.372 N 
ATOM      4  C   UNL     1      -9.911   0.360   2.796  0.00  0.00    +0.166 C 
ATOM      5  H   UNL     1      -8.697  -1.243   3.055  0.00  0.00    +0.163 HD
ATOM      6  H   UNL     1     -11.020   0.478   1.069  0.00  0.00    +0.159 HD
ATOM      7  H   UNL     1      -9.994  -0.903   1.171  0.00  0.00    +0.159 HD
ATOM      8  H   UNL     1     -10.124   1.867   4.184  0.00  0.00    +0.159 HD
ATOM      9  H   UNL     1     -11.092   2.043   2.773  0.00  0.00    +0.159 HD
ENDROOT
BRANCH   1  10
ATOM     10  C   UNL     1      -8.434   0.018   4.752  0.00  0.00    +0.151 C 
BRANCH  10  11
ATOM     11  C   UNL     1      -8.767  -1.031   5.776  0.00  0.00    -0.028 A 
ATOM     12  C   UNL     1      -8.918  -2.373   5.397  0.00  0.00    +0.005 A 
ATOM     13  C   UNL     1      -8.926  -0.692   7.128  0.00  0.00    +0.005 A 
ATOM     14  C   UNL     1      -9.198  -3.353   6.352  0.00  0.00    +0.000 A 
ATOM     15  C   UNL     1      -9.206  -1.673   8.079  0.00  0.00    +0.000 A 
ATOM     16  C   UNL     1      -9.339  -3.004   7.691  0.00  0.00    +0.000 A 
ENDBRANCH  10  11
ENDBRANCH   1  10
TORSDOF 2
ENDMDL
MODEL 8
REMARK VINA RESULT:    -4.011     19.867     21.288
REMARK INTER + INTRA:          -4.632
REMARK INTER:                  -4.516
REMARK INTRA:                  -0.116
REMARK UNBOUND:                -0.152
REMARK  Name = 1550473
REMARK  2 active torsions:
REMARK  status: ('A' for Active; 'I' for Inactive)
REMARK    1  A    between atoms: N_1  and  C_4
REMARK    2  A    between atoms: C_4  and  C_5
REMARK                            x       y       z     vdW  Elec       q    Type
REMARK                         _______ _______ _______ _____ _____    ______ ____
ROOT
ATOM      1  N   UNL     1       7.486 -11.665  -5.115  0.00  0.00    -0.354 N 
ATOM      2  N   UNL     1       6.241 -13.066  -6.476  0.00  0.00    -0.372 N 
ATOM      3  N   UNL     1       5.357 -12.397  -4.467  0.00  0.00    -0.372 N 
ATOM      4  C   UNL     1       6.368 -12.367  -5.341  0.00  0.00    +0.166 C 
ATOM      5  H   UNL     1       8.229 -11.707  -5.804  0.00  0.00    +0.163 HD
ATOM      6  H   UNL     1       5.408 -13.602  -6.675  0.00  0.00    +0.159 HD
ATOM      7  H   UNL     1       6.966 -13.069  -7.183  0.00  0.00    +0.159 HD
ATOM      8  H   UNL     1       5.392 -11.896  -3.589  0.00  0.00    +0.159 HD
ATOM      9  H   UNL     1       4.519 -12.937  -4.644  0.00  0.00    +0.159 HD
ENDROOT
BRANCH   1  10
ATOM     10  C   UNL     1       7.702 -10.827  -3.937  0.00  0.00    +0.151 C 
BRANCH  10  11
ATOM     11  C   UNL     1       8.222  -9.486  -4.376  0.00  0.00    -0.028 A 
ATOM     12  C   UNL     1       7.505  -8.315  -4.089  0.00  0.00    +0.005 A 
ATOM     13  C   UNL     1       9.434  -9.379  -5.074  0.00  0.00    +0.005 A 
ATOM     14  C   UNL     1       8.002  -7.067  -4.470  0.00  0.00    +0.000 A 
ATOM     15  C   UNL     1       9.927  -8.131  -5.454  0.00  0.00    +0.000 A 
ATOM     16  C   UNL     1       9.212  -6.975  -5.149  0.00  0.00    +0.000 A 
ENDBRANCH  10  11
ENDBRANCH   1  10
TORSDOF 2
ENDMDL
MODEL 9
REMARK VINA RESULT:    -4.007      2.651      5.034
REMARK INTER + INTRA:          -4.627
REMARK INTER:                  -4.493
REMARK INTRA:                  -0.134
REMARK UNBOUND:                -0.152
REMARK  Name = 1550473
REMARK  2 active torsions:
REMARK  status: ('A' for Active; 'I' for Inactive)
REMARK    1  A    between atoms: N_1  and  C_4
REMARK    2  A    between atoms: C_4  and  C_5
REMARK                            x       y       z     vdW  Elec       q    Type
REMARK                         _______ _______ _______ _____ _____    ______ ____
ROOT
ATOM      1  N   UNL     1      -3.990   7.197   0.419  0.00  0.00    -0.354 N 
ATOM      2  N   UNL     1      -5.608   5.550   0.238  0.00  0.00    -0.372 N 
ATOM      3  N   UNL     1      -4.432   5.738   2.199  0.00  0.00    -0.372 N 
ATOM      4  C   UNL     1      -4.665   6.172   0.956  0.00  0.00    +0.166 C 
ATOM      5  H   UNL     1      -4.193   7.458  -0.539  0.00  0.00    +0.163 HD
ATOM      6  H   UNL     1      -6.136   4.776   0.617  0.00  0.00    +0.159 HD
ATOM      7  H   UNL     1      -5.841   5.843  -0.703  0.00  0.00    +0.159 HD
ATOM      8  H   UNL     1      -3.729   6.161   2.790  0.00  0.00    +0.159 HD
ATOM      9  H   UNL     1      -4.942   4.957   2.592  0.00  0.00    +0.159 HD
ENDROOT
BRANCH   1  10
ATOM     10  C   UNL     1      -2.981   7.976   1.135  0.00  0.00    +0.151 C 
BRANCH  10  11
ATOM     11  C   UNL     1      -1.846   8.288   0.199  0.00  0.00    -0.028 A 
ATOM     12  C   UNL     1      -1.135   9.491   0.319  0.00  0.00    +0.005 A 
ATOM     13  C   UNL     1      -1.473   7.382  -0.806  0.00  0.00    +0.005 A 
ATOM     14  C   UNL     1      -0.061   9.768  -0.531  0.00  0.00    +0.000 A 
ATOM     15  C   UNL     1      -0.401   7.663  -1.653  0.00  0.00    +0.000 A 
ATOM     16  C   UNL     1       0.306   8.855  -1.514  0.00  0.00    +0.000 A 
ENDBRANCH  10  11
ENDBRANCH   1  10
TORSDOF 2
ENDMDL
