MODEL 1
REMARK VINA RESULT:    -4.918      0.000      0.000
REMARK INTER + INTRA:          -5.599
REMARK INTER:                  -5.493
REMARK INTRA:                  -0.107
REMARK UNBOUND:                -0.107
REMARK  Name = 1550473
REMARK  2 active torsions:
REMARK  status: ('A' for Active; 'I' for Inactive)
REMARK    1  A    between atoms: N_1  and  C_4
REMARK    2  A    between atoms: C_4  and  C_5
REMARK                            x       y       z     vdW  Elec       q    Type
REMARK                         _______ _______ _______ _____ _____    ______ ____
ROOT
ATOM      1  N   UNL     1      -8.543   6.411  -7.717  0.00  0.00    -0.354 N 
ATOM      2  N   UNL     1     -10.177   5.569  -6.308  0.00  0.00    -0.372 N 
ATOM      3  N   UNL     1     -10.809   6.884  -8.079  0.00  0.00    -0.372 N 
ATOM      4  C   UNL     1      -9.834   6.295  -7.379  0.00  0.00    +0.166 C 
ATOM      5  H   UNL     1      -7.849   5.965  -7.127  0.00  0.00    +0.163 HD
ATOM      6  H   UNL     1     -11.144   5.461  -6.031  0.00  0.00    +0.159 HD
ATOM      7  H   UNL     1      -9.486   5.087  -5.748  0.00  0.00    +0.159 HD
ATOM      8  H   UNL     1     -10.616   7.451  -8.895  0.00  0.00    +0.159 HD
ATOM      9  H   UNL     1     -11.781   6.798  -7.811  0.00  0.00    +0.159 HD
ENDROOT
BRANCH   1  10
ATOM     10  C   UNL     1      -8.067   7.134  -8.895  0.00  0.00    +0.151 C 
BRANCH  10  11
ATOM     11  C   UNL     1      -6.587   6.913  -9.042  0.00  0.00    -0.028 A 
ATOM     12  C   UNL     1      -5.733   7.050  -7.938  0.00  0.00    +0.005 A 
ATOM     13  C   UNL     1      -6.032   6.562 -10.283  0.00  0.00    +0.005 A 
ATOM     14  C   UNL     1      -4.362   6.816  -8.067  0.00  0.00    +0.000 A 
ATOM     15  C   UNL     1      -4.662   6.330 -10.408  0.00  0.00    +0.000 A 
ATOM     16  C   UNL     1      -3.828   6.455  -9.300  0.00  0.00    +0.000 A 
ENDBRANCH  10  11
ENDBRANCH   1  10
TORSDOF 2
ENDMDL
MODEL 2
REMARK VINA RESULT:    -4.902      0.065      1.456
REMARK INTER + INTRA:          -5.582
REMARK INTER:                  -5.476
REMARK INTRA:                  -0.106
REMARK UNBOUND:                -0.107
REMARK  Name = 1550473
REMARK  2 active torsions:
REMARK  status: ('A' for Active; 'I' for Inactive)
REMARK    1  A    between atoms: N_1  and  C_4
REMARK    2  A    between atoms: C_4  and  C_5
REMARK                            x       y       z     vdW  Elec       q    Type
REMARK                         _______ _______ _______ _____ _____    ______ ____
ROOT
ATOM      1  N   UNL     1      -8.551   6.348  -7.752  0.00  0.00    -0.354 N 
ATOM      2  N   UNL     1     -10.182   5.553  -6.312  0.00  0.00    -0.372 N 
ATOM      3  N   UNL     1     -10.793   6.986  -7.997  0.00  0.00    -0.372 N 
ATOM      4  C   UNL     1      -9.833   6.303  -7.365  0.00  0.00    +0.166 C 
ATOM      5  H   UNL     1      -7.867   5.831  -7.212  0.00  0.00    +0.163 HD
ATOM      6  H   UNL     1     -11.142   5.497  -5.999  0.00  0.00    +0.159 HD
ATOM      7  H   UNL     1      -9.503   5.001  -5.803  0.00  0.00    +0.159 HD
ATOM      8  H   UNL     1     -10.594   7.575  -8.795  0.00  0.00    +0.159 HD
ATOM      9  H   UNL     1     -11.757   6.952  -7.692  0.00  0.00    +0.159 HD
ENDROOT
BRANCH   1  10
ATOM     10  C   UNL     1      -8.074   7.091  -8.917  0.00  0.00    +0.151 C 
BRANCH  10  11
ATOM     11  C   UNL     1      -6.594   6.874  -9.066  0.00  0.00    -0.028 A 
ATOM     12  C   UNL     1      -6.045   6.541 -10.313  0.00  0.00    +0.005 A 
ATOM     13  C   UNL     1      -5.734   7.004  -7.965  0.00  0.00    +0.005 A 
ATOM     14  C   UNL     1      -4.667   6.369 -10.459  0.00  0.00    +0.000 A 
ATOM     15  C   UNL     1      -4.358   6.830  -8.114  0.00  0.00    +0.000 A 
ATOM     16  C   UNL     1      -3.824   6.515  -9.362  0.00  0.00    +0.000 A 
ENDBRANCH  10  11
ENDBRANCH   1  10
TORSDOF 2
ENDMDL
MODEL 3
REMARK VINA RESULT:    -4.887      4.598      5.611
REMARK INTER + INTRA:          -5.565
REMARK INTER:                  -5.480
REMARK INTRA:                  -0.086
REMARK UNBOUND:                -0.107
REMARK  Name = 1550473
REMARK  2 active torsions:
REMARK  status: ('A' for Active; 'I' for Inactive)
REMARK    1  A    between atoms: N_1  and  C_4
REMARK    2  A    between atoms: C_4  and  C_5
REMARK                            x       y       z     vdW  Elec       q    Type
REMARK                         _______ _______ _______ _____ _____    ______ ____
ROOT
ATOM      1  N   UNL     1      -3.284   6.366 -12.372  0.00  0.00    -0.354 N 
ATOM      2  N   UNL     1      -4.117   5.283 -14.242  0.00  0.00    -0.372 N 
ATOM      3  N   UNL     1      -4.790   7.434 -13.815  0.00  0.00    -0.372 N 
ATOM      4  C   UNL     1      -4.060   6.370 -13.464  0.00  0.00    +0.166 C 
ATOM      5  H   UNL     1      -2.779   5.518 -12.144  0.00  0.00    +0.163 HD
ATOM      6  H   UNL     1      -4.691   5.258 -15.074  0.00  0.00    +0.159 HD
ATOM      7  H   UNL     1      -3.575   4.452 -14.037  0.00  0.00    +0.159 HD
ATOM      8  H   UNL     1      -4.796   8.284 -13.267  0.00  0.00    +0.159 HD
ATOM      9  H   UNL     1      -5.380   7.424 -14.638  0.00  0.00    +0.159 HD
ENDROOT
BRANCH   1  10
ATOM     10  C   UNL     1      -3.110   7.517 -11.488  0.00  0.00    +0.151 C 
BRANCH  10  11
ATOM     11  C   UNL     1      -3.818   7.250 -10.188  0.00  0.00    -0.028 A 
ATOM     12  C   UNL     1      -3.175   7.489  -8.965  0.00  0.00    +0.005 A 
ATOM     13  C   UNL     1      -5.134   6.763 -10.173  0.00  0.00    +0.005 A 
ATOM     14  C   UNL     1      -3.842   7.270  -7.757  0.00  0.00    +0.000 A 
ATOM     15  C   UNL     1      -5.796   6.544  -8.965  0.00  0.00    +0.000 A 
ATOM     16  C   UNL     1      -5.151   6.800  -7.758  0.00  0.00    +0.000 A 
ENDBRANCH  10  11
ENDBRANCH   1  10
TORSDOF 2
ENDMDL
MODEL 4
REMARK VINA RESULT:    -4.871     14.224     15.386
REMARK INTER + INTRA:          -5.548
REMARK INTER:                  -5.427
REMARK INTRA:                  -0.121
REMARK UNBOUND:                -0.107
REMARK  Name = 1550473
REMARK  2 active torsions:
REMARK  status: ('A' for Active; 'I' for Inactive)
REMARK    1  A    between atoms: N_1  and  C_4
REMARK    2  A    between atoms: C_4  and  C_5
REMARK                            x       y       z     vdW  Elec       q    Type
REMARK                         _______ _______ _______ _____ _____    ______ ____
ROOT
ATOM      1  N   UNL     1     -12.566  -7.223  -8.105  0.00  0.00    -0.354 N 
ATOM      2  N   UNL     1     -11.448  -7.040  -6.084  0.00  0.00    -0.372 N 
ATOM      3  N   UNL     1     -12.522  -9.005  -6.584  0.00  0.00    -0.372 N 
ATOM      4  C   UNL     1     -12.187  -7.760  -6.937  0.00  0.00    +0.166 C 
ATOM      5  H   UNL     1     -12.305  -6.263  -8.300  0.00  0.00    +0.163 HD
ATOM      6  H   UNL     1     -11.145  -7.420  -5.198  0.00  0.00    +0.159 HD
ATOM      7  H   UNL     1     -11.150  -6.097  -6.302  0.00  0.00    +0.159 HD
ATOM      8  H   UNL     1     -13.084  -9.598  -7.181  0.00  0.00    +0.159 HD
ATOM      9  H   UNL     1     -12.238  -9.399  -5.696  0.00  0.00    +0.159 HD
ENDROOT
BRANCH   1  10
ATOM     10  C   UNL     1     -13.326  -7.940  -9.127  0.00  0.00    +0.151 C 
BRANCH  10  11
ATOM     11  C   UNL     1     -12.818  -7.543 -10.486  0.00  0.00    -0.028 A 
ATOM     12  C   UNL     1     -12.785  -8.475 -11.533  0.00  0.00    +0.005 A 
ATOM     13  C   UNL     1     -12.375  -6.235 -10.733  0.00  0.00    +0.005 A 
ATOM     14  C   UNL     1     -12.341  -8.099 -12.803  0.00  0.00    +0.000 A 
ATOM     15  C   UNL     1     -11.932  -5.864 -12.003  0.00  0.00    +0.000 A 
ATOM     16  C   UNL     1     -11.918  -6.795 -13.038  0.00  0.00    +0.000 A 
ENDBRANCH  10  11
ENDBRANCH   1  10
TORSDOF 2
ENDMDL
MODEL 5
REMARK VINA RESULT:    -4.637      4.887      5.871
REMARK INTER + INTRA:          -5.286
REMARK INTER:                  -5.122
REMARK INTRA:                  -0.163
REMARK UNBOUND:                -0.107
REMARK  Name = 1550473
REMARK  2 active torsions:
REMARK  status: ('A' for Active; 'I' for Inactive)
REMARK    1  A    between atoms: N_1  and  C_4
REMARK    2  A    between atoms: C_4  and  C_5
REMARK                            x       y       z     vdW  Elec       q    Type
REMARK                         _______ _______ _______ _____ _____    ______ ____
ROOT
ATOM      1  N   UNL     1      -2.616   7.657 -11.725  0.00  0.00    -0.354 N 
ATOM      2  N   UNL     1      -3.123   6.033 -13.296  0.00  0.00    -0.372 N 
ATOM      3  N   UNL     1      -4.523   7.837 -13.076  0.00  0.00    -0.372 N 
ATOM      4  C   UNL     1      -3.420   7.188 -12.689  0.00  0.00    +0.166 C 
ATOM      5  H   UNL     1      -1.812   7.103 -11.457  0.00  0.00    +0.163 HD
ATOM      6  H   UNL     1      -3.708   5.656 -14.029  0.00  0.00    +0.159 HD
ATOM      7  H   UNL     1      -2.293   5.504 -13.058  0.00  0.00    +0.159 HD
ATOM      8  H   UNL     1      -4.806   8.711 -12.653  0.00  0.00    +0.159 HD
ATOM      9  H   UNL     1      -5.128   7.470 -13.800  0.00  0.00    +0.159 HD
ENDROOT
BRANCH   1  10
ATOM     10  C   UNL     1      -2.821   8.932 -11.038  0.00  0.00    +0.151 C 
BRANCH  10  11
ATOM     11  C   UNL     1      -3.571   8.686  -9.759  0.00  0.00    -0.028 A 
ATOM     12  C   UNL     1      -4.626   9.529  -9.378  0.00  0.00    +0.005 A 
ATOM     13  C   UNL     1      -3.236   7.608  -8.925  0.00  0.00    +0.005 A 
ATOM     14  C   UNL     1      -5.342   9.283  -8.204  0.00  0.00    +0.000 A 
ATOM     15  C   UNL     1      -3.954   7.366  -7.754  0.00  0.00    +0.000 A 
ATOM     16  C   UNL     1      -5.008   8.202  -7.395  0.00  0.00    +0.000 A 
ENDBRANCH  10  11
ENDBRANCH   1  10
TORSDOF 2
ENDMDL
MODEL 6
REMARK VINA RESULT:    -4.626     25.916     27.535
REMARK INTER + INTRA:          -5.273
REMARK INTER:                  -5.165
REMARK INTRA:                  -0.109
REMARK UNBOUND:                -0.107
REMARK  Name = 1550473
REMARK  2 active torsions:
REMARK  status: ('A' for Active; 'I' for Inactive)
REMARK    1  A    between atoms: N_1  and  C_4
REMARK    2  A    between atoms: C_4  and  C_5
REMARK                            x       y       z     vdW  Elec       q    Type
REMARK                         _______ _______ _______ _____ _____    ______ ____
ROOT
ATOM      1  N   UNL     1      11.188   9.118  10.352  0.00  0.00    -0.354 N 
ATOM      2  N   UNL     1      11.008   9.985   8.213  0.00  0.00    -0.372 N 
ATOM      3  N   UNL     1      12.029  11.243   9.837  0.00  0.00    -0.372 N 
ATOM      4  C   UNL     1      11.411  10.112   9.483  0.00  0.00    +0.166 C 
ATOM      5  H   UNL     1      10.687   8.298  10.028  0.00  0.00    +0.163 HD
ATOM      6  H   UNL     1      11.165  10.718   7.533  0.00  0.00    +0.159 HD
ATOM      7  H   UNL     1      10.549   9.146   7.880  0.00  0.00    +0.159 HD
ATOM      8  H   UNL     1      12.352  11.404  10.782  0.00  0.00    +0.159 HD
ATOM      9  H   UNL     1      12.185  11.992   9.174  0.00  0.00    +0.159 HD
ENDROOT
BRANCH   1  10
ATOM     10  C   UNL     1      11.634   9.133  11.744  0.00  0.00    +0.151 C 
BRANCH  10  11
ATOM     11  C   UNL     1      11.058   7.942  12.458  0.00  0.00    -0.028 A 
ATOM     12  C   UNL     1      11.040   6.682  11.841  0.00  0.00    +0.005 A 
ATOM     13  C   UNL     1      10.533   8.064  13.754  0.00  0.00    +0.005 A 
ATOM     14  C   UNL     1      10.532   5.569  12.516  0.00  0.00    +0.000 A 
ATOM     15  C   UNL     1      10.027   6.951  14.424  0.00  0.00    +0.000 A 
ATOM     16  C   UNL     1      10.028   5.703  13.805  0.00  0.00    +0.000 A 
ENDBRANCH  10  11
ENDBRANCH   1  10
TORSDOF 2
ENDMDL
MODEL 7
REMARK VINA RESULT:    -4.620     23.929     24.424
REMARK INTER + INTRA:          -5.266
REMARK INTER:                  -5.132
REMARK INTRA:                  -0.134
REMARK UNBOUND:                -0.107
REMARK  Name = 1550473
REMARK  2 active torsions:
REMARK  status: ('A' for Active; 'I' for Inactive)
REMARK    1  A    between atoms: N_1  and  C_4
REMARK    2  A    between atoms: C_4  and  C_5
REMARK                            x       y       z     vdW  Elec       q    Type
REMARK                         _______ _______ _______ _____ _____    ______ ____
ROOT
ATOM      1  N   UNL     1      -8.310 -17.473 -12.040  0.00  0.00    -0.354 N 
ATOM      2  N   UNL     1     -10.223 -18.250 -10.991  0.00  0.00    -0.372 N 
ATOM      3  N   UNL     1      -9.392 -16.194 -10.400  0.00  0.00    -0.372 N 
ATOM      4  C   UNL     1      -9.295 -17.298 -11.149  0.00  0.00    +0.166 C 
ATOM      5  H   UNL     1      -8.275 -18.345 -12.555  0.00  0.00    +0.163 HD
ATOM      6  H   UNL     1     -10.980 -18.145 -10.329  0.00  0.00    +0.159 HD
ATOM      7  H   UNL     1     -10.212 -19.101 -11.540  0.00  0.00    +0.159 HD
ATOM      8  H   UNL     1      -8.720 -15.441 -10.468  0.00  0.00    +0.159 HD
ATOM      9  H   UNL     1     -10.135 -16.076  -9.724  0.00  0.00    +0.159 HD
ENDROOT
BRANCH   1  10
ATOM     10  C   UNL     1      -7.281 -16.475 -12.327  0.00  0.00    +0.151 C 
BRANCH  10  11
ATOM     11  C   UNL     1      -5.971 -17.174 -12.566  0.00  0.00    -0.028 A 
ATOM     12  C   UNL     1      -5.921 -18.571 -12.683  0.00  0.00    +0.005 A 
ATOM     13  C   UNL     1      -4.778 -16.445 -12.683  0.00  0.00    +0.005 A 
ATOM     14  C   UNL     1      -4.709 -19.218 -12.936  0.00  0.00    +0.000 A 
ATOM     15  C   UNL     1      -3.570 -17.096 -12.934  0.00  0.00    +0.000 A 
ATOM     16  C   UNL     1      -3.536 -18.482 -13.063  0.00  0.00    +0.000 A 
ENDBRANCH  10  11
ENDBRANCH   1  10
TORSDOF 2
ENDMDL
MODEL 8
REMARK VINA RESULT:    -4.408      8.298      9.514
REMARK INTER + INTRA:          -5.030
REMARK INTER:                  -4.931
REMARK INTRA:                  -0.098
REMARK UNBOUND:                -0.107
REMARK  Name = 1550473
REMARK  2 active torsions:
REMARK  status: ('A' for Active; 'I' for Inactive)
REMARK    1  A    between atoms: N_1  and  C_4
REMARK    2  A    between atoms: C_4  and  C_5
REMARK                            x       y       z     vdW  Elec       q    Type
REMARK                         _______ _______ _______ _____ _____    ______ ____
ROOT
ATOM      1  N   UNL     1      -4.302  11.278  -0.172  0.00  0.00    -0.354 N 
ATOM      2  N   UNL     1      -3.640  12.996   1.233  0.00  0.00    -0.372 N 
ATOM      3  N   UNL     1      -2.034  11.784   0.130  0.00  0.00    -0.372 N 
ATOM      4  C   UNL     1      -3.327  12.007   0.387  0.00  0.00    +0.166 C 
ATOM      5  H   UNL     1      -5.261  11.477   0.087  0.00  0.00    +0.163 HD
ATOM      6  H   UNL     1      -2.926  13.565   1.667  0.00  0.00    +0.159 HD
ATOM      7  H   UNL     1      -4.602  13.223   1.454  0.00  0.00    +0.159 HD
ATOM      8  H   UNL     1      -1.731  11.049  -0.495  0.00  0.00    +0.159 HD
ATOM      9  H   UNL     1      -1.304  12.335   0.564  0.00  0.00    +0.159 HD
ENDROOT
BRANCH   1  10
ATOM     10  C   UNL     1      -4.071  10.214  -1.147  0.00  0.00    +0.151 C 
BRANCH  10  11
ATOM     11  C   UNL     1      -5.298  10.054  -2.001  0.00  0.00    -0.028 A 
ATOM     12  C   UNL     1      -5.249  10.324  -3.377  0.00  0.00    +0.005 A 
ATOM     13  C   UNL     1      -6.513   9.628  -1.442  0.00  0.00    +0.005 A 
ATOM     14  C   UNL     1      -6.381  10.147  -4.175  0.00  0.00    +0.000 A 
ATOM     15  C   UNL     1      -7.641   9.453  -2.242  0.00  0.00    +0.000 A 
ATOM     16  C   UNL     1      -7.574   9.711  -3.610  0.00  0.00    +0.000 A 
ENDBRANCH  10  11
ENDBRANCH   1  10
TORSDOF 2
ENDMDL
MODEL 9
REMARK VINA RESULT:    -4.396     14.978     16.048
REMARK INTER + INTRA:          -5.016
REMARK INTER:                  -4.885
REMARK INTRA:                  -0.131
REMARK UNBOUND:                -0.107
REMARK  Name = 1550473
REMARK  2 active torsions:
REMARK  status: ('A' for Active; 'I' for Inactive)
REMARK    1  A    between atoms: N_1  and  C_4
REMARK    2  A    between atoms: C_4  and  C_5
REMARK                            x       y       z     vdW  Elec       q    Type
REMARK                         _______ _______ _______ _____ _____    ______ ____
ROOT
ATOM      1  N   UNL     1     -14.012  -8.640  -9.243  0.00  0.00    -0.354 N 
ATOM      2  N   UNL     1     -15.056 -10.452  -8.248  0.00  0.00    -0.372 N 
ATOM      3  N   UNL     1     -13.338  -9.415  -7.136  0.00  0.00    -0.372 N 
ATOM      4  C   UNL     1     -14.127  -9.490  -8.214  0.00  0.00    +0.166 C 
ATOM      5  H   UNL     1     -14.620  -8.769 -10.044  0.00  0.00    +0.163 HD
ATOM      6  H   UNL     1     -15.169 -11.106  -7.485  0.00  0.00    +0.159 HD
ATOM      7  H   UNL     1     -15.693 -10.550  -9.030  0.00  0.00    +0.159 HD
ATOM      8  H   UNL     1     -12.613  -8.715  -7.051  0.00  0.00    +0.159 HD
ATOM      9  H   UNL     1     -13.428 -10.067  -6.367  0.00  0.00    +0.159 HD
ENDROOT
BRANCH   1  10
ATOM     10  C   UNL     1     -13.068  -7.524  -9.280  0.00  0.00    +0.151 C 
BRANCH  10  11
ATOM     11  C   UNL     1     -12.638  -7.293 -10.702  0.00  0.00    -0.028 A 
ATOM     12  C   UNL     1     -12.633  -8.349 -11.626  0.00  0.00    +0.005 A 
ATOM     13  C   UNL     1     -12.239  -6.018 -11.135  0.00  0.00    +0.005 A 
ATOM     14  C   UNL     1     -12.261  -8.128 -12.954  0.00  0.00    +0.000 A 
ATOM     15  C   UNL     1     -11.868  -5.802 -12.462  0.00  0.00    +0.000 A 
ATOM     16  C   UNL     1     -11.882  -6.856 -13.372  0.00  0.00    +0.000 A 
ENDBRANCH  10  11
ENDBRANCH   1  10
TORSDOF 2
ENDMDL
