MODEL 1
REMARK VINA RESULT:    -4.165      0.000      0.000
REMARK INTER + INTRA:          -4.798
REMARK INTER:                  -4.652
REMARK INTRA:                  -0.146
REMARK UNBOUND:                -0.146
REMARK  Name = 1550473
REMARK  2 active torsions:
REMARK  status: ('A' for Active; 'I' for Inactive)
REMARK    1  A    between atoms: N_1  and  C_4
REMARK    2  A    between atoms: C_4  and  C_5
REMARK                            x       y       z     vdW  Elec       q    Type
REMARK                         _______ _______ _______ _____ _____    ______ ____
ROOT
ATOM      1  N   UNL     1      25.516  19.989  19.874  0.00  0.00    -0.354 N 
ATOM      2  N   UNL     1      23.633  20.306  18.563  0.00  0.00    -0.372 N 
ATOM      3  N   UNL     1      25.631  21.194  17.867  0.00  0.00    -0.372 N 
ATOM      4  C   UNL     1      24.940  20.496  18.775  0.00  0.00    +0.166 C 
ATOM      5  H   UNL     1      24.931  19.495  20.538  0.00  0.00    +0.163 HD
ATOM      6  H   UNL     1      23.172  20.673  17.741  0.00  0.00    +0.159 HD
ATOM      7  H   UNL     1      23.060  19.772  19.206  0.00  0.00    +0.159 HD
ATOM      8  H   UNL     1      26.619  21.378  17.971  0.00  0.00    +0.159 HD
ATOM      9  H   UNL     1      25.185  21.580  17.044  0.00  0.00    +0.159 HD
ENDROOT
BRANCH   1  10
ATOM     10  C   UNL     1      26.943  20.093  20.171  0.00  0.00    +0.151 C 
BRANCH  10  11
ATOM     11  C   UNL     1      27.533  18.712  20.239  0.00  0.00    -0.028 A 
ATOM     12  C   UNL     1      26.780  17.640  20.741  0.00  0.00    +0.005 A 
ATOM     13  C   UNL     1      28.842  18.467  19.798  0.00  0.00    +0.005 A 
ATOM     14  C   UNL     1      27.317  16.351  20.777  0.00  0.00    +0.000 A 
ATOM     15  C   UNL     1      29.375  17.178  19.836  0.00  0.00    +0.000 A 
ATOM     16  C   UNL     1      28.611  16.120  20.323  0.00  0.00    +0.000 A 
ENDBRANCH  10  11
ENDBRANCH   1  10
TORSDOF 2
ENDMDL
MODEL 2
REMARK VINA RESULT:    -3.961      3.727      5.139
REMARK INTER + INTRA:          -4.570
REMARK INTER:                  -4.416
REMARK INTRA:                  -0.154
REMARK UNBOUND:                -0.146
REMARK  Name = 1550473
REMARK  2 active torsions:
REMARK  status: ('A' for Active; 'I' for Inactive)
REMARK    1  A    between atoms: N_1  and  C_4
REMARK    2  A    between atoms: C_4  and  C_5
REMARK                            x       y       z     vdW  Elec       q    Type
REMARK                         _______ _______ _______ _____ _____    ______ ____
ROOT
ATOM      1  N   UNL     1      27.135  14.784  20.567  0.00  0.00    -0.354 N 
ATOM      2  N   UNL     1      27.486  12.792  19.439  0.00  0.00    -0.372 N 
ATOM      3  N   UNL     1      29.057  13.500  20.954  0.00  0.00    -0.372 N 
ATOM      4  C   UNL     1      27.893  13.705  20.329  0.00  0.00    +0.166 C 
ATOM      5  H   UNL     1      26.278  14.897  20.038  0.00  0.00    +0.163 HD
ATOM      6  H   UNL     1      28.035  11.966  19.241  0.00  0.00    +0.159 HD
ATOM      7  H   UNL     1      26.606  12.884  18.945  0.00  0.00    +0.159 HD
ATOM      8  H   UNL     1      29.423  14.154  21.633  0.00  0.00    +0.159 HD
ATOM      9  H   UNL     1      29.626  12.685  20.761  0.00  0.00    +0.159 HD
ENDROOT
BRANCH   1  10
ATOM     10  C   UNL     1      27.461  15.810  21.556  0.00  0.00    +0.151 C 
BRANCH  10  11
ATOM     11  C   UNL     1      27.579  17.140  20.863  0.00  0.00    -0.028 A 
ATOM     12  C   UNL     1      26.534  18.072  20.930  0.00  0.00    +0.005 A 
ATOM     13  C   UNL     1      28.737  17.475  20.144  0.00  0.00    +0.005 A 
ATOM     14  C   UNL     1      26.655  19.319  20.312  0.00  0.00    +0.000 A 
ATOM     15  C   UNL     1      28.853  18.721  19.528  0.00  0.00    +0.000 A 
ATOM     16  C   UNL     1      27.814  19.644  19.614  0.00  0.00    +0.000 A 
ENDBRANCH  10  11
ENDBRANCH   1  10
TORSDOF 2
ENDMDL
MODEL 3
REMARK VINA RESULT:    -3.956     46.829     47.971
REMARK INTER + INTRA:          -4.565
REMARK INTER:                  -4.448
REMARK INTRA:                  -0.116
REMARK UNBOUND:                -0.146
REMARK  Name = 1550473
REMARK  2 active torsions:
REMARK  status: ('A' for Active; 'I' for Inactive)
REMARK    1  A    between atoms: N_1  and  C_4
REMARK    2  A    between atoms: C_4  and  C_5
REMARK                            x       y       z     vdW  Elec       q    Type
REMARK                         _______ _______ _______ _____ _____    ______ ____
ROOT
ATOM      1  N   UNL     1      -3.180  -7.234  -5.997  0.00  0.00    -0.354 N 
ATOM      2  N   UNL     1      -2.815  -9.033  -4.585  0.00  0.00    -0.372 N 
ATOM      3  N   UNL     1      -1.372  -7.250  -4.506  0.00  0.00    -0.372 N 
ATOM      4  C   UNL     1      -2.456  -7.825  -5.038  0.00  0.00    +0.166 C 
ATOM      5  H   UNL     1      -3.973  -7.736  -6.380  0.00  0.00    +0.163 HD
ATOM      6  H   UNL     1      -2.290  -9.502  -3.859  0.00  0.00    +0.159 HD
ATOM      7  H   UNL     1      -3.635  -9.512  -4.937  0.00  0.00    +0.159 HD
ATOM      8  H   UNL     1      -1.045  -6.342  -4.808  0.00  0.00    +0.159 HD
ATOM      9  H   UNL     1      -0.827  -7.709  -3.787  0.00  0.00    +0.159 HD
ENDROOT
BRANCH   1  10
ATOM     10  C   UNL     1      -2.906  -5.897  -6.522  0.00  0.00    +0.151 C 
BRANCH  10  11
ATOM     11  C   UNL     1      -3.276  -5.856  -7.979  0.00  0.00    -0.028 A 
ATOM     12  C   UNL     1      -4.306  -5.016  -8.428  0.00  0.00    +0.005 A 
ATOM     13  C   UNL     1      -2.598  -6.650  -8.916  0.00  0.00    +0.005 A 
ATOM     14  C   UNL     1      -4.630  -4.955  -9.785  0.00  0.00    +0.000 A 
ATOM     15  C   UNL     1      -2.926  -6.587 -10.270  0.00  0.00    +0.000 A 
ATOM     16  C   UNL     1      -3.940  -5.738 -10.705  0.00  0.00    +0.000 A 
ENDBRANCH  10  11
ENDBRANCH   1  10
TORSDOF 2
ENDMDL
MODEL 4
REMARK VINA RESULT:    -3.860     21.895     23.170
REMARK INTER + INTRA:          -4.457
REMARK INTER:                  -4.296
REMARK INTRA:                  -0.162
REMARK UNBOUND:                -0.146
REMARK  Name = 1550473
REMARK  2 active torsions:
REMARK  status: ('A' for Active; 'I' for Inactive)
REMARK    1  A    between atoms: N_1  and  C_4
REMARK    2  A    between atoms: C_4  and  C_5
REMARK                            x       y       z     vdW  Elec       q    Type
REMARK                         _______ _______ _______ _____ _____    ______ ____
ROOT
ATOM      1  N   UNL     1      19.383   9.317  40.923  0.00  0.00    -0.354 N 
ATOM      2  N   UNL     1      19.722   7.372  42.133  0.00  0.00    -0.372 N 
ATOM      3  N   UNL     1      20.427   9.368  43.020  0.00  0.00    -0.372 N 
ATOM      4  C   UNL     1      19.843   8.700  42.019  0.00  0.00    +0.166 C 
ATOM      5  H   UNL     1      18.979   8.751  40.186  0.00  0.00    +0.163 HD
ATOM      6  H   UNL     1      20.057   6.880  42.951  0.00  0.00    +0.159 HD
ATOM      7  H   UNL     1      19.276   6.814  41.416  0.00  0.00    +0.159 HD
ATOM      8  H   UNL     1      20.553  10.371  42.993  0.00  0.00    +0.159 HD
ATOM      9  H   UNL     1      20.778   8.891  43.841  0.00  0.00    +0.159 HD
ENDROOT
BRANCH   1  10
ATOM     10  C   UNL     1      19.417  10.765  40.724  0.00  0.00    +0.151 C 
BRANCH  10  11
ATOM     11  C   UNL     1      20.275  11.077  39.529  0.00  0.00    -0.028 A 
ATOM     12  C   UNL     1      19.690  11.440  38.307  0.00  0.00    +0.005 A 
ATOM     13  C   UNL     1      21.675  11.016  39.613  0.00  0.00    +0.005 A 
ATOM     14  C   UNL     1      20.487  11.759  37.205  0.00  0.00    +0.000 A 
ATOM     15  C   UNL     1      22.467  11.334  38.510  0.00  0.00    +0.000 A 
ATOM     16  C   UNL     1      21.873  11.708  37.307  0.00  0.00    +0.000 A 
ENDBRANCH  10  11
ENDBRANCH   1  10
TORSDOF 2
ENDMDL
MODEL 5
REMARK VINA RESULT:    -3.713     16.210     17.625
REMARK INTER + INTRA:          -4.293
REMARK INTER:                  -4.115
REMARK INTRA:                  -0.177
REMARK UNBOUND:                -0.146
REMARK  Name = 1550473
REMARK  2 active torsions:
REMARK  status: ('A' for Active; 'I' for Inactive)
REMARK    1  A    between atoms: N_1  and  C_4
REMARK    2  A    between atoms: C_4  and  C_5
REMARK                            x       y       z     vdW  Elec       q    Type
REMARK                         _______ _______ _______ _____ _____    ______ ____
ROOT
ATOM      1  N   UNL     1      20.312  10.387  31.735  0.00  0.00    -0.354 N 
ATOM      2  N   UNL     1      22.398  10.883  30.860  0.00  0.00    -0.372 N 
ATOM      3  N   UNL     1      22.260  10.050  32.993  0.00  0.00    -0.372 N 
ATOM      4  C   UNL     1      21.643  10.436  31.871  0.00  0.00    +0.166 C 
ATOM      5  H   UNL     1      19.904  10.723  30.870  0.00  0.00    +0.163 HD
ATOM      6  H   UNL     1      23.405  10.928  30.932  0.00  0.00    +0.159 HD
ATOM      7  H   UNL     1      21.991  11.175  29.980  0.00  0.00    +0.159 HD
ATOM      8  H   UNL     1      21.747   9.709  33.795  0.00  0.00    +0.159 HD
ATOM      9  H   UNL     1      23.266  10.099  33.089  0.00  0.00    +0.159 HD
ENDROOT
BRANCH   1  10
ATOM     10  C   UNL     1      19.404   9.867  32.756  0.00  0.00    +0.151 C 
BRANCH  10  11
ATOM     11  C   UNL     1      18.729  11.020  33.447  0.00  0.00    -0.028 A 
ATOM     12  C   UNL     1      17.849  11.855  32.743  0.00  0.00    +0.005 A 
ATOM     13  C   UNL     1      18.961  11.279  34.806  0.00  0.00    +0.005 A 
ATOM     14  C   UNL     1      17.199  12.908  33.391  0.00  0.00    +0.000 A 
ATOM     15  C   UNL     1      18.310  12.331  35.450  0.00  0.00    +0.000 A 
ATOM     16  C   UNL     1      17.428  13.144  34.743  0.00  0.00    +0.000 A 
ENDBRANCH  10  11
ENDBRANCH   1  10
TORSDOF 2
ENDMDL
MODEL 6
REMARK VINA RESULT:    -3.621     29.514     30.591
REMARK INTER + INTRA:          -4.190
REMARK INTER:                  -4.056
REMARK INTRA:                  -0.134
REMARK UNBOUND:                -0.146
REMARK  Name = 1550473
REMARK  2 active torsions:
REMARK  status: ('A' for Active; 'I' for Inactive)
REMARK    1  A    between atoms: N_1  and  C_4
REMARK    2  A    between atoms: C_4  and  C_5
REMARK                            x       y       z     vdW  Elec       q    Type
REMARK                         _______ _______ _______ _____ _____    ______ ____
ROOT
ATOM      1  N   UNL     1       4.549   3.619   9.310  0.00  0.00    -0.354 N 
ATOM      2  N   UNL     1       3.823   5.674  10.095  0.00  0.00    -0.372 N 
ATOM      3  N   UNL     1       3.981   3.918  11.564  0.00  0.00    -0.372 N 
ATOM      4  C   UNL     1       4.122   4.389  10.320  0.00  0.00    +0.166 C 
ATOM      5  H   UNL     1       4.606   4.028   8.385  0.00  0.00    +0.163 HD
ATOM      6  H   UNL     1       3.502   6.280  10.838  0.00  0.00    +0.159 HD
ATOM      7  H   UNL     1       3.925   6.092   9.178  0.00  0.00    +0.159 HD
ATOM      8  H   UNL     1       4.184   2.956  11.799  0.00  0.00    +0.159 HD
ATOM      9  H   UNL     1       3.649   4.506  12.319  0.00  0.00    +0.159 HD
ENDROOT
BRANCH   1  10
ATOM     10  C   UNL     1       4.952   2.222   9.461  0.00  0.00    +0.151 C 
BRANCH  10  11
ATOM     11  C   UNL     1       4.235   1.391   8.433  0.00  0.00    -0.028 A 
ATOM     12  C   UNL     1       3.936   1.922   7.170  0.00  0.00    +0.005 A 
ATOM     13  C   UNL     1       3.857   0.069   8.715  0.00  0.00    +0.005 A 
ATOM     14  C   UNL     1       3.296   1.140   6.205  0.00  0.00    +0.000 A 
ATOM     15  C   UNL     1       3.217  -0.708   7.749  0.00  0.00    +0.000 A 
ATOM     16  C   UNL     1       2.940  -0.173   6.493  0.00  0.00    +0.000 A 
ENDBRANCH  10  11
ENDBRANCH   1  10
TORSDOF 2
ENDMDL
MODEL 7
REMARK VINA RESULT:    -3.519     56.698     57.845
REMARK INTER + INTRA:          -4.077
REMARK INTER:                  -3.944
REMARK INTRA:                  -0.133
REMARK UNBOUND:                -0.146
REMARK  Name = 1550473
REMARK  2 active torsions:
REMARK  status: ('A' for Active; 'I' for Inactive)
REMARK    1  A    between atoms: N_1  and  C_4
REMARK    2  A    between atoms: C_4  and  C_5
REMARK                            x       y       z     vdW  Elec       q    Type
REMARK                         _______ _______ _______ _____ _____    ______ ____
ROOT
ATOM      1  N   UNL     1     -13.167 -13.111  -8.961  0.00  0.00    -0.354 N 
ATOM      2  N   UNL     1     -11.881 -14.555 -10.235  0.00  0.00    -0.372 N 
ATOM      3  N   UNL     1     -13.827 -15.333  -9.300  0.00  0.00    -0.372 N 
ATOM      4  C   UNL     1     -12.969 -14.325  -9.490  0.00  0.00    +0.166 C 
ATOM      5  H   UNL     1     -12.463 -12.397  -9.116  0.00  0.00    +0.163 HD
ATOM      6  H   UNL     1     -11.707 -15.461 -10.650  0.00  0.00    +0.159 HD
ATOM      7  H   UNL     1     -11.203 -13.828 -10.427  0.00  0.00    +0.159 HD
ATOM      8  H   UNL     1     -14.663 -15.227  -8.743  0.00  0.00    +0.159 HD
ATOM      9  H   UNL     1     -13.663 -16.250  -9.698  0.00  0.00    +0.159 HD
ENDROOT
BRANCH   1  10
ATOM     10  C   UNL     1     -14.345 -12.742  -8.178  0.00  0.00    +0.151 C 
BRANCH  10  11
ATOM     11  C   UNL     1     -13.905 -11.997  -6.948  0.00  0.00    -0.028 A 
ATOM     12  C   UNL     1     -13.196 -12.656  -5.933  0.00  0.00    +0.005 A 
ATOM     13  C   UNL     1     -14.188 -10.632  -6.794  0.00  0.00    +0.005 A 
ATOM     14  C   UNL     1     -12.760 -11.958  -4.804  0.00  0.00    +0.000 A 
ATOM     15  C   UNL     1     -13.752  -9.939  -5.665  0.00  0.00    +0.000 A 
ATOM     16  C   UNL     1     -13.036 -10.602  -4.671  0.00  0.00    +0.000 A 
ENDBRANCH  10  11
ENDBRANCH   1  10
TORSDOF 2
ENDMDL
MODEL 8
REMARK VINA RESULT:    -3.426     36.606     37.448
REMARK INTER + INTRA:          -3.973
REMARK INTER:                  -3.852
REMARK INTRA:                  -0.121
REMARK UNBOUND:                -0.146
REMARK  Name = 1550473
REMARK  2 active torsions:
REMARK  status: ('A' for Active; 'I' for Inactive)
REMARK    1  A    between atoms: N_1  and  C_4
REMARK    2  A    between atoms: C_4  and  C_5
REMARK                            x       y       z     vdW  Elec       q    Type
REMARK                         _______ _______ _______ _____ _____    ______ ____
ROOT
ATOM      1  N   UNL     1      -0.748  -6.233  17.758  0.00  0.00    -0.354 N 
ATOM      2  N   UNL     1       0.409  -7.022  19.603  0.00  0.00    -0.372 N 
ATOM      3  N   UNL     1      -1.840  -6.611  19.796  0.00  0.00    -0.372 N 
ATOM      4  C   UNL     1      -0.737  -6.617  19.041  0.00  0.00    +0.166 C 
ATOM      5  H   UNL     1       0.128  -6.231  17.248  0.00  0.00    +0.163 HD
ATOM      6  H   UNL     1       0.448  -7.321  20.568  0.00  0.00    +0.159 HD
ATOM      7  H   UNL     1       1.274  -7.063  19.078  0.00  0.00    +0.159 HD
ATOM      8  H   UNL     1      -2.735  -6.311  19.434  0.00  0.00    +0.159 HD
ATOM      9  H   UNL     1      -1.819  -6.895  20.768  0.00  0.00    +0.159 HD
ENDROOT
BRANCH   1  10
ATOM     10  C   UNL     1      -1.953  -5.825  17.037  0.00  0.00    +0.151 C 
BRANCH  10  11
ATOM     11  C   UNL     1      -1.560  -5.288  15.688  0.00  0.00    -0.028 A 
ATOM     12  C   UNL     1      -2.461  -4.518  14.939  0.00  0.00    +0.005 A 
ATOM     13  C   UNL     1      -0.286  -5.541  15.157  0.00  0.00    +0.005 A 
ATOM     14  C   UNL     1      -2.086  -3.993  13.699  0.00  0.00    +0.000 A 
ATOM     15  C   UNL     1       0.084  -5.016  13.919  0.00  0.00    +0.000 A 
ATOM     16  C   UNL     1      -0.815  -4.240  13.192  0.00  0.00    +0.000 A 
ENDBRANCH  10  11
ENDBRANCH   1  10
TORSDOF 2
ENDMDL
MODEL 9
REMARK VINA RESULT:    -3.364     16.595     17.959
REMARK INTER + INTRA:          -3.903
REMARK INTER:                  -3.824
REMARK INTRA:                  -0.080
REMARK UNBOUND:                -0.146
REMARK  Name = 1550473
REMARK  2 active torsions:
REMARK  status: ('A' for Active; 'I' for Inactive)
REMARK    1  A    between atoms: N_1  and  C_4
REMARK    2  A    between atoms: C_4  and  C_5
REMARK                            x       y       z     vdW  Elec       q    Type
REMARK                         _______ _______ _______ _____ _____    ______ ____
ROOT
ATOM      1  N   UNL     1      19.241   8.915  32.092  0.00  0.00    -0.354 N 
ATOM      2  N   UNL     1      19.558   8.713  29.807  0.00  0.00    -0.372 N 
ATOM      3  N   UNL     1      21.248   9.590  31.087  0.00  0.00    -0.372 N 
ATOM      4  C   UNL     1      20.016   9.075  31.011  0.00  0.00    +0.166 C 
ATOM      5  H   UNL     1      18.306   8.548  31.964  0.00  0.00    +0.163 HD
ATOM      6  H   UNL     1      20.121   8.819  28.974  0.00  0.00    +0.159 HD
ATOM      7  H   UNL     1      18.639   8.304  29.688  0.00  0.00    +0.159 HD
ATOM      8  H   UNL     1      21.650   9.888  31.966  0.00  0.00    +0.159 HD
ATOM      9  H   UNL     1      21.822   9.714  30.263  0.00  0.00    +0.159 HD
ENDROOT
BRANCH   1  10
ATOM     10  C   UNL     1      19.666   9.228  33.456  0.00  0.00    +0.151 C 
BRANCH  10  11
ATOM     11  C   UNL     1      18.986  10.492  33.905  0.00  0.00    -0.028 A 
ATOM     12  C   UNL     1      19.150  10.962  35.216  0.00  0.00    +0.005 A 
ATOM     13  C   UNL     1      18.181  11.227  33.021  0.00  0.00    +0.005 A 
ATOM     14  C   UNL     1      18.543  12.152  35.624  0.00  0.00    +0.000 A 
ATOM     15  C   UNL     1      17.576  12.415  33.433  0.00  0.00    +0.000 A 
ATOM     16  C   UNL     1      17.759  12.878  34.734  0.00  0.00    +0.000 A 
ENDBRANCH  10  11
ENDBRANCH   1  10
TORSDOF 2
ENDMDL
