MODEL 1
REMARK VINA RESULT:    -5.570      0.000      0.000
REMARK INTER + INTRA:          -6.386
REMARK INTER:                  -6.221
REMARK INTRA:                  -0.165
REMARK UNBOUND:                -0.165
REMARK  Name = 1550473
REMARK  2 active torsions:
REMARK  status: ('A' for Active; 'I' for Inactive)
REMARK    1  A    between atoms: N_1  and  C_4
REMARK    2  A    between atoms: C_4  and  C_5
REMARK                            x       y       z     vdW  Elec       q    Type
REMARK                         _______ _______ _______ _____ _____    ______ ____
ROOT
ATOM      1  N   UNL     1     -20.748  -6.405 -20.936  0.00  0.00    -0.354 N 
ATOM      2  N   UNL     1     -22.605  -6.290 -22.315  0.00  0.00    -0.372 N 
ATOM      3  N   UNL     1     -22.888  -6.901 -20.122  0.00  0.00    -0.372 N 
ATOM      4  C   UNL     1     -22.069  -6.534 -21.113  0.00  0.00    +0.166 C 
ATOM      5  H   UNL     1     -20.177  -6.153 -21.735  0.00  0.00    +0.163 HD
ATOM      6  H   UNL     1     -23.599  -6.375 -22.478  0.00  0.00    +0.159 HD
ATOM      7  H   UNL     1     -22.038  -5.994 -23.100  0.00  0.00    +0.159 HD
ATOM      8  H   UNL     1     -22.546  -7.105 -19.192  0.00  0.00    +0.159 HD
ATOM      9  H   UNL     1     -23.885  -7.003 -20.268  0.00  0.00    +0.159 HD
ENDROOT
BRANCH   1  10
ATOM     10  C   UNL     1     -20.072  -6.595 -19.653  0.00  0.00    +0.151 C 
BRANCH  10  11
ATOM     11  C   UNL     1     -19.670  -5.253 -19.106  0.00  0.00    -0.028 A 
ATOM     12  C   UNL     1     -18.353  -4.793 -19.245  0.00  0.00    +0.005 A 
ATOM     13  C   UNL     1     -20.604  -4.435 -18.453  0.00  0.00    +0.005 A 
ATOM     14  C   UNL     1     -17.987  -3.534 -18.764  0.00  0.00    +0.000 A 
ATOM     15  C   UNL     1     -20.235  -3.178 -17.973  0.00  0.00    +0.000 A 
ATOM     16  C   UNL     1     -18.926  -2.727 -18.131  0.00  0.00    +0.000 A 
ENDBRANCH  10  11
ENDBRANCH   1  10
TORSDOF 2
ENDMDL
MODEL 2
REMARK VINA RESULT:    -5.342     20.350     21.786
REMARK INTER + INTRA:          -6.132
REMARK INTER:                  -6.010
REMARK INTRA:                  -0.122
REMARK UNBOUND:                -0.165
REMARK  Name = 1550473
REMARK  2 active torsions:
REMARK  status: ('A' for Active; 'I' for Inactive)
REMARK    1  A    between atoms: N_1  and  C_4
REMARK    2  A    between atoms: C_4  and  C_5
REMARK                            x       y       z     vdW  Elec       q    Type
REMARK                         _______ _______ _______ _____ _____    ______ ____
ROOT
ATOM      1  N   UNL     1      -3.523  -5.663  -4.751  0.00  0.00    -0.354 N 
ATOM      2  N   UNL     1      -2.084  -7.344  -4.068  0.00  0.00    -0.372 N 
ATOM      3  N   UNL     1      -3.248  -6.167  -2.479  0.00  0.00    -0.372 N 
ATOM      4  C   UNL     1      -2.962  -6.380  -3.768  0.00  0.00    +0.166 C 
ATOM      5  H   UNL     1      -3.242  -5.853  -5.706  0.00  0.00    +0.163 HD
ATOM      6  H   UNL     1      -1.647  -7.904  -3.348  0.00  0.00    +0.159 HD
ATOM      7  H   UNL     1      -1.839  -7.563  -5.026  0.00  0.00    +0.159 HD
ATOM      8  H   UNL     1      -3.898  -5.450  -2.186  0.00  0.00    +0.159 HD
ATOM      9  H   UNL     1      -2.812  -6.708  -1.743  0.00  0.00    +0.159 HD
ENDROOT
BRANCH   1  10
ATOM     10  C   UNL     1      -4.531  -4.627  -4.535  0.00  0.00    +0.151 C 
BRANCH  10  11
ATOM     11  C   UNL     1      -4.711  -3.844  -5.806  0.00  0.00    -0.028 A 
ATOM     12  C   UNL     1      -3.673  -3.763  -6.745  0.00  0.00    +0.005 A 
ATOM     13  C   UNL     1      -5.919  -3.184  -6.079  0.00  0.00    +0.005 A 
ATOM     14  C   UNL     1      -3.850  -3.061  -7.940  0.00  0.00    +0.000 A 
ATOM     15  C   UNL     1      -6.092  -2.484  -7.273  0.00  0.00    +0.000 A 
ATOM     16  C   UNL     1      -5.058  -2.424  -8.204  0.00  0.00    +0.000 A 
ENDBRANCH  10  11
ENDBRANCH   1  10
TORSDOF 2
ENDMDL
MODEL 3
REMARK VINA RESULT:    -5.210     18.598     19.353
REMARK INTER + INTRA:          -5.984
REMARK INTER:                  -5.828
REMARK INTRA:                  -0.156
REMARK UNBOUND:                -0.165
REMARK  Name = 1550473
REMARK  2 active torsions:
REMARK  status: ('A' for Active; 'I' for Inactive)
REMARK    1  A    between atoms: N_1  and  C_4
REMARK    2  A    between atoms: C_4  and  C_5
REMARK                            x       y       z     vdW  Elec       q    Type
REMARK                         _______ _______ _______ _____ _____    ______ ____
ROOT
ATOM      1  N   UNL     1      -3.939  -4.974 -10.507  0.00  0.00    -0.354 N 
ATOM      2  N   UNL     1      -4.486  -6.709 -11.940  0.00  0.00    -0.372 N 
ATOM      3  N   UNL     1      -2.910  -7.070 -10.311  0.00  0.00    -0.372 N 
ATOM      4  C   UNL     1      -3.773  -6.241 -10.908  0.00  0.00    +0.166 C 
ATOM      5  H   UNL     1      -4.587  -4.387 -11.020  0.00  0.00    +0.163 HD
ATOM      6  H   UNL     1      -4.385  -7.662 -12.263  0.00  0.00    +0.159 HD
ATOM      7  H   UNL     1      -5.166  -6.135 -12.422  0.00  0.00    +0.159 HD
ATOM      8  H   UNL     1      -2.338  -6.776  -9.531  0.00  0.00    +0.159 HD
ATOM      9  H   UNL     1      -2.786  -8.024 -10.628  0.00  0.00    +0.159 HD
ENDROOT
BRANCH   1  10
ATOM     10  C   UNL     1      -3.251  -4.382  -9.361  0.00  0.00    +0.151 C 
BRANCH  10  11
ATOM     11  C   UNL     1      -4.271  -3.971  -8.334  0.00  0.00    -0.028 A 
ATOM     12  C   UNL     1      -4.727  -2.646  -8.275  0.00  0.00    +0.005 A 
ATOM     13  C   UNL     1      -4.788  -4.903  -7.422  0.00  0.00    +0.005 A 
ATOM     14  C   UNL     1      -5.696  -2.271  -7.341  0.00  0.00    +0.000 A 
ATOM     15  C   UNL     1      -5.755  -4.524  -6.491  0.00  0.00    +0.000 A 
ATOM     16  C   UNL     1      -6.211  -3.209  -6.452  0.00  0.00    +0.000 A 
ENDBRANCH  10  11
ENDBRANCH   1  10
TORSDOF 2
ENDMDL
MODEL 4
REMARK VINA RESULT:    -5.141      1.041      2.043
REMARK INTER + INTRA:          -5.907
REMARK INTER:                  -5.774
REMARK INTRA:                  -0.133
REMARK UNBOUND:                -0.165
REMARK  Name = 1550473
REMARK  2 active torsions:
REMARK  status: ('A' for Active; 'I' for Inactive)
REMARK    1  A    between atoms: N_1  and  C_4
REMARK    2  A    between atoms: C_4  and  C_5
REMARK                            x       y       z     vdW  Elec       q    Type
REMARK                         _______ _______ _______ _____ _____    ______ ____
ROOT
ATOM      1  N   UNL     1     -21.243  -5.851 -19.290  0.00  0.00    -0.354 N 
ATOM      2  N   UNL     1     -23.248  -6.747 -20.024  0.00  0.00    -0.372 N 
ATOM      3  N   UNL     1     -21.442  -6.763 -21.440  0.00  0.00    -0.372 N 
ATOM      4  C   UNL     1     -21.963  -6.448 -20.249  0.00  0.00    +0.166 C 
ATOM      5  H   UNL     1     -21.704  -5.612 -18.420  0.00  0.00    +0.163 HD
ATOM      6  H   UNL     1     -23.816  -7.201 -20.727  0.00  0.00    +0.159 HD
ATOM      7  H   UNL     1     -23.694  -6.548 -19.137  0.00  0.00    +0.159 HD
ATOM      8  H   UNL     1     -20.480  -6.559 -21.674  0.00  0.00    +0.159 HD
ATOM      9  H   UNL     1     -21.998  -7.207 -22.161  0.00  0.00    +0.159 HD
ENDROOT
BRANCH   1  10
ATOM     10  C   UNL     1     -19.821  -5.532 -19.414  0.00  0.00    +0.151 C 
BRANCH  10  11
ATOM     11  C   UNL     1     -19.594  -4.118 -18.954  0.00  0.00    -0.028 A 
ATOM     12  C   UNL     1     -20.418  -3.547 -17.974  0.00  0.00    +0.005 A 
ATOM     13  C   UNL     1     -18.552  -3.347 -19.491  0.00  0.00    +0.005 A 
ATOM     14  C   UNL     1     -20.189  -2.245 -17.524  0.00  0.00    +0.000 A 
ATOM     15  C   UNL     1     -18.326  -2.046 -19.040  0.00  0.00    +0.000 A 
ATOM     16  C   UNL     1     -19.143  -1.496 -18.055  0.00  0.00    +0.000 A 
ENDBRANCH  10  11
ENDBRANCH   1  10
TORSDOF 2
ENDMDL
MODEL 5
REMARK VINA RESULT:    -5.058     29.343     30.880
REMARK INTER + INTRA:          -5.814
REMARK INTER:                  -5.700
REMARK INTRA:                  -0.114
REMARK UNBOUND:                -0.165
REMARK  Name = 1550473
REMARK  2 active torsions:
REMARK  status: ('A' for Active; 'I' for Inactive)
REMARK    1  A    between atoms: N_1  and  C_4
REMARK    2  A    between atoms: C_4  and  C_5
REMARK                            x       y       z     vdW  Elec       q    Type
REMARK                         _______ _______ _______ _____ _____    ______ ____
ROOT
ATOM      1  N   UNL     1      -0.359   5.923   0.030  0.00  0.00    -0.354 N 
ATOM      2  N   UNL     1      -0.930   3.934  -1.010  0.00  0.00    -0.372 N 
ATOM      3  N   UNL     1      -0.537   3.930   1.251  0.00  0.00    -0.372 N 
ATOM      4  C   UNL     1      -0.604   4.608   0.100  0.00  0.00    +0.166 C 
ATOM      5  H   UNL     1      -0.396   6.372  -0.877  0.00  0.00    +0.163 HD
ATOM      6  H   UNL     1      -1.124   2.942  -0.988  0.00  0.00    +0.159 HD
ATOM      7  H   UNL     1      -1.012   4.395  -1.908  0.00  0.00    +0.159 HD
ATOM      8  H   UNL     1      -0.291   4.379   2.123  0.00  0.00    +0.159 HD
ATOM      9  H   UNL     1      -0.717   2.935   1.291  0.00  0.00    +0.159 HD
ENDROOT
BRANCH   1  10
ATOM     10  C   UNL     1      -0.048   6.759   1.188  0.00  0.00    +0.151 C 
BRANCH  10  11
ATOM     11  C   UNL     1      -0.633   8.128   0.977  0.00  0.00    -0.028 A 
ATOM     12  C   UNL     1      -2.022   8.320   1.000  0.00  0.00    +0.005 A 
ATOM     13  C   UNL     1       0.197   9.238   0.758  0.00  0.00    +0.005 A 
ATOM     14  C   UNL     1      -2.565   9.597   0.833  0.00  0.00    +0.000 A 
ATOM     15  C   UNL     1      -0.349  10.511   0.591  0.00  0.00    +0.000 A 
ATOM     16  C   UNL     1      -1.729  10.690   0.631  0.00  0.00    +0.000 A 
ENDBRANCH  10  11
ENDBRANCH   1  10
TORSDOF 2
ENDMDL
MODEL 6
REMARK VINA RESULT:    -5.037     31.162     32.800
REMARK INTER + INTRA:          -5.791
REMARK INTER:                  -5.666
REMARK INTRA:                  -0.125
REMARK UNBOUND:                -0.165
REMARK  Name = 1550473
REMARK  2 active torsions:
REMARK  status: ('A' for Active; 'I' for Inactive)
REMARK    1  A    between atoms: N_1  and  C_4
REMARK    2  A    between atoms: C_4  and  C_5
REMARK                            x       y       z     vdW  Elec       q    Type
REMARK                         _______ _______ _______ _____ _____    ______ ____
ROOT
ATOM      1  N   UNL     1       0.572   6.803   4.459  0.00  0.00    -0.354 N 
ATOM      2  N   UNL     1       1.719   6.331   6.415  0.00  0.00    -0.372 N 
ATOM      3  N   UNL     1      -0.404   7.192   6.554  0.00  0.00    -0.372 N 
ATOM      4  C   UNL     1       0.619   6.780   5.798  0.00  0.00    +0.166 C 
ATOM      5  H   UNL     1       1.392   6.505   3.943  0.00  0.00    +0.163 HD
ATOM      6  H   UNL     1       1.782   6.299   7.424  0.00  0.00    +0.159 HD
ATOM      7  H   UNL     1       2.520   5.991   5.897  0.00  0.00    +0.159 HD
ATOM      8  H   UNL     1      -1.260   7.547   6.150  0.00  0.00    +0.159 HD
ATOM      9  H   UNL     1      -0.355   7.178   7.565  0.00  0.00    +0.159 HD
ENDROOT
BRANCH   1  10
ATOM     10  C   UNL     1      -0.598   7.222   3.689  0.00  0.00    +0.151 C 
BRANCH  10  11
ATOM     11  C   UNL     1      -0.639   6.451   2.399  0.00  0.00    -0.028 A 
ATOM     12  C   UNL     1      -0.937   7.100   1.191  0.00  0.00    +0.005 A 
ATOM     13  C   UNL     1      -0.374   5.073   2.375  0.00  0.00    +0.005 A 
ATOM     14  C   UNL     1      -0.945   6.391  -0.012  0.00  0.00    +0.000 A 
ATOM     15  C   UNL     1      -0.384   4.368   1.172  0.00  0.00    +0.000 A 
ATOM     16  C   UNL     1      -0.667   5.028  -0.022  0.00  0.00    +0.000 A 
ENDBRANCH  10  11
ENDBRANCH   1  10
TORSDOF 2
ENDMDL
MODEL 7
REMARK VINA RESULT:    -4.975     20.616     21.996
REMARK INTER + INTRA:          -5.721
REMARK INTER:                  -5.588
REMARK INTRA:                  -0.133
REMARK UNBOUND:                -0.165
REMARK  Name = 1550473
REMARK  2 active torsions:
REMARK  status: ('A' for Active; 'I' for Inactive)
REMARK    1  A    between atoms: N_1  and  C_4
REMARK    2  A    between atoms: C_4  and  C_5
REMARK                            x       y       z     vdW  Elec       q    Type
REMARK                         _______ _______ _______ _____ _____    ______ ____
ROOT
ATOM      1  N   UNL     1      -4.701  -4.381  -6.675  0.00  0.00    -0.354 N 
ATOM      2  N   UNL     1      -3.890  -3.388  -8.604  0.00  0.00    -0.372 N 
ATOM      3  N   UNL     1      -4.338  -2.068  -6.782  0.00  0.00    -0.372 N 
ATOM      4  C   UNL     1      -4.316  -3.283  -7.339  0.00  0.00    +0.166 C 
ATOM      5  H   UNL     1      -4.689  -5.268  -7.164  0.00  0.00    +0.163 HD
ATOM      6  H   UNL     1      -3.590  -2.578  -9.129  0.00  0.00    +0.159 HD
ATOM      7  H   UNL     1      -3.836  -4.283  -9.075  0.00  0.00    +0.159 HD
ATOM      8  H   UNL     1      -4.654  -1.920  -5.832  0.00  0.00    +0.159 HD
ATOM      9  H   UNL     1      -4.053  -1.243  -7.295  0.00  0.00    +0.159 HD
ENDROOT
BRANCH   1  10
ATOM     10  C   UNL     1      -5.130  -4.382  -5.277  0.00  0.00    +0.151 C 
BRANCH  10  11
ATOM     11  C   UNL     1      -4.429  -5.496  -4.550  0.00  0.00    -0.028 A 
ATOM     12  C   UNL     1      -4.044  -6.660  -5.231  0.00  0.00    +0.005 A 
ATOM     13  C   UNL     1      -4.143  -5.392  -3.180  0.00  0.00    +0.005 A 
ATOM     14  C   UNL     1      -3.367  -7.683  -4.563  0.00  0.00    +0.000 A 
ATOM     15  C   UNL     1      -3.467  -6.416  -2.516  0.00  0.00    +0.000 A 
ATOM     16  C   UNL     1      -3.077  -7.560  -3.208  0.00  0.00    +0.000 A 
ENDBRANCH  10  11
ENDBRANCH   1  10
TORSDOF 2
ENDMDL
MODEL 8
REMARK VINA RESULT:    -4.966     18.383     19.531
REMARK INTER + INTRA:          -5.712
REMARK INTER:                  -5.614
REMARK INTRA:                  -0.098
REMARK UNBOUND:                -0.165
REMARK  Name = 1550473
REMARK  2 active torsions:
REMARK  status: ('A' for Active; 'I' for Inactive)
REMARK    1  A    between atoms: N_1  and  C_4
REMARK    2  A    between atoms: C_4  and  C_5
REMARK                            x       y       z     vdW  Elec       q    Type
REMARK                         _______ _______ _______ _____ _____    ______ ____
ROOT
ATOM      1  N   UNL     1      -4.530  -5.450 -10.023  0.00  0.00    -0.354 N 
ATOM      2  N   UNL     1      -5.251  -7.497 -10.833  0.00  0.00    -0.372 N 
ATOM      3  N   UNL     1      -3.030  -6.950 -11.018  0.00  0.00    -0.372 N 
ATOM      4  C   UNL     1      -4.263  -6.619 -10.620  0.00  0.00    +0.166 C 
ATOM      5  H   UNL     1      -5.491  -5.246  -9.772  0.00  0.00    +0.163 HD
ATOM      6  H   UNL     1      -5.079  -8.388 -11.278  0.00  0.00    +0.159 HD
ATOM      7  H   UNL     1      -6.202  -7.310 -10.540  0.00  0.00    +0.159 HD
ATOM      8  H   UNL     1      -2.242  -6.329 -10.892  0.00  0.00    +0.159 HD
ATOM      9  H   UNL     1      -2.840  -7.833 -11.476  0.00  0.00    +0.159 HD
ENDROOT
BRANCH   1  10
ATOM     10  C   UNL     1      -3.517  -4.448  -9.696  0.00  0.00    +0.151 C 
BRANCH  10  11
ATOM     11  C   UNL     1      -3.989  -3.638  -8.520  0.00  0.00    -0.028 A 
ATOM     12  C   UNL     1      -3.327  -3.723  -7.286  0.00  0.00    +0.005 A 
ATOM     13  C   UNL     1      -5.093  -2.780  -8.635  0.00  0.00    +0.005 A 
ATOM     14  C   UNL     1      -3.746  -2.948  -6.202  0.00  0.00    +0.000 A 
ATOM     15  C   UNL     1      -5.508  -2.008  -7.550  0.00  0.00    +0.000 A 
ATOM     16  C   UNL     1      -4.833  -2.091  -6.334  0.00  0.00    +0.000 A 
ENDBRANCH  10  11
ENDBRANCH   1  10
TORSDOF 2
ENDMDL
MODEL 9
REMARK VINA RESULT:    -4.867     20.379     21.476
REMARK INTER + INTRA:          -5.601
REMARK INTER:                  -5.493
REMARK INTRA:                  -0.107
REMARK UNBOUND:                -0.165
REMARK  Name = 1550473
REMARK  2 active torsions:
REMARK  status: ('A' for Active; 'I' for Inactive)
REMARK    1  A    between atoms: N_1  and  C_4
REMARK    2  A    between atoms: C_4  and  C_5
REMARK                            x       y       z     vdW  Elec       q    Type
REMARK                         _______ _______ _______ _____ _____    ______ ____
ROOT
ATOM      1  N   UNL     1      -3.667  -5.050  -4.674  0.00  0.00    -0.354 N 
ATOM      2  N   UNL     1      -2.816  -6.253  -2.888  0.00  0.00    -0.372 N 
ATOM      3  N   UNL     1      -5.061  -5.781  -2.937  0.00  0.00    -0.372 N 
ATOM      4  C   UNL     1      -3.856  -5.687  -3.511  0.00  0.00    +0.166 C 
ATOM      5  H   UNL     1      -2.724  -4.988  -5.041  0.00  0.00    +0.163 HD
ATOM      6  H   UNL     1      -2.928  -6.743  -2.010  0.00  0.00    +0.159 HD
ATOM      7  H   UNL     1      -1.882  -6.229  -3.280  0.00  0.00    +0.159 HD
ATOM      8  H   UNL     1      -5.885  -5.369  -3.354  0.00  0.00    +0.159 HD
ATOM      9  H   UNL     1      -5.191  -6.257  -2.054  0.00  0.00    +0.159 HD
ENDROOT
BRANCH   1  10
ATOM     10  C   UNL     1      -4.742  -4.446  -5.460  0.00  0.00    +0.151 C 
BRANCH  10  11
ATOM     11  C   UNL     1      -4.425  -4.595  -6.922  0.00  0.00    -0.028 A 
ATOM     12  C   UNL     1      -4.729  -5.786  -7.598  0.00  0.00    +0.005 A 
ATOM     13  C   UNL     1      -3.827  -3.548  -7.639  0.00  0.00    +0.005 A 
ATOM     14  C   UNL     1      -4.462  -5.915  -8.964  0.00  0.00    +0.000 A 
ATOM     15  C   UNL     1      -3.561  -3.680  -9.002  0.00  0.00    +0.000 A 
ATOM     16  C   UNL     1      -3.882  -4.863  -9.664  0.00  0.00    +0.000 A 
ENDBRANCH  10  11
ENDBRANCH   1  10
TORSDOF 2
ENDMDL
