MODEL 1
REMARK VINA RESULT:    -5.818      0.000      0.000
REMARK INTER + INTRA:          -6.624
REMARK INTER:                  -6.498
REMARK INTRA:                  -0.126
REMARK UNBOUND:                -0.126
REMARK  Name = 1550473
REMARK  2 active torsions:
REMARK  status: ('A' for Active; 'I' for Inactive)
REMARK    1  A    between atoms: N_1  and  C_4
REMARK    2  A    between atoms: C_4  and  C_5
REMARK                            x       y       z     vdW  Elec       q    Type
REMARK                         _______ _______ _______ _____ _____    ______ ____
ROOT
ATOM      1  N   UNL     1      -2.542   1.029 -11.863  0.00  0.00    -0.354 N 
ATOM      2  N   UNL     1      -3.256   2.067 -13.807  0.00  0.00    -0.372 N 
ATOM      3  N   UNL     1      -3.344   3.231 -11.832  0.00  0.00    -0.372 N 
ATOM      4  C   UNL     1      -3.043   2.104 -12.486  0.00  0.00    +0.166 C 
ATOM      5  H   UNL     1      -2.363   0.195 -12.411  0.00  0.00    +0.163 HD
ATOM      6  H   UNL     1      -3.630   2.864 -14.305  0.00  0.00    +0.159 HD
ATOM      7  H   UNL     1      -3.033   1.248 -14.360  0.00  0.00    +0.159 HD
ATOM      8  H   UNL     1      -3.213   3.321 -10.833  0.00  0.00    +0.159 HD
ATOM      9  H   UNL     1      -3.730   4.035 -12.310  0.00  0.00    +0.159 HD
ENDROOT
BRANCH   1  10
ATOM     10  C   UNL     1      -2.223   0.985 -10.437  0.00  0.00    +0.151 C 
BRANCH  10  11
ATOM     11  C   UNL     1      -3.023  -0.111  -9.789  0.00  0.00    -0.028 A 
ATOM     12  C   UNL     1      -2.511  -0.809  -8.686  0.00  0.00    +0.005 A 
ATOM     13  C   UNL     1      -4.297  -0.451 -10.269  0.00  0.00    +0.005 A 
ATOM     14  C   UNL     1      -3.266  -1.806  -8.064  0.00  0.00    +0.000 A 
ATOM     15  C   UNL     1      -5.047  -1.448  -9.647  0.00  0.00    +0.000 A 
ATOM     16  C   UNL     1      -4.533  -2.124  -8.543  0.00  0.00    +0.000 A 
ENDBRANCH  10  11
ENDBRANCH   1  10
TORSDOF 2
ENDMDL
MODEL 2
REMARK VINA RESULT:    -5.396     10.582     11.230
REMARK INTER + INTRA:          -6.153
REMARK INTER:                  -6.056
REMARK INTRA:                  -0.097
REMARK UNBOUND:                -0.126
REMARK  Name = 1550473
REMARK  2 active torsions:
REMARK  status: ('A' for Active; 'I' for Inactive)
REMARK    1  A    between atoms: N_1  and  C_4
REMARK    2  A    between atoms: C_4  and  C_5
REMARK                            x       y       z     vdW  Elec       q    Type
REMARK                         _______ _______ _______ _____ _____    ______ ____
ROOT
ATOM      1  N   UNL     1      -5.135  -3.158  -0.165  0.00  0.00    -0.354 N 
ATOM      2  N   UNL     1      -4.047  -1.234   0.527  0.00  0.00    -0.372 N 
ATOM      3  N   UNL     1      -6.339  -1.237   0.430  0.00  0.00    -0.372 N 
ATOM      4  C   UNL     1      -5.184  -1.888   0.260  0.00  0.00    +0.166 C 
ATOM      5  H   UNL     1      -4.226  -3.585  -0.303  0.00  0.00    +0.163 HD
ATOM      6  H   UNL     1      -4.052  -0.276   0.852  0.00  0.00    +0.159 HD
ATOM      7  H   UNL     1      -3.142  -1.678   0.432  0.00  0.00    +0.159 HD
ATOM      8  H   UNL     1      -7.232  -1.673   0.240  0.00  0.00    +0.159 HD
ATOM      9  H   UNL     1      -6.365  -0.275   0.743  0.00  0.00    +0.159 HD
ENDROOT
BRANCH   1  10
ATOM     10  C   UNL     1      -6.316  -3.976  -0.432  0.00  0.00    +0.151 C 
BRANCH  10  11
ATOM     11  C   UNL     1      -5.922  -5.141  -1.297  0.00  0.00    -0.028 A 
ATOM     12  C   UNL     1      -6.411  -5.253  -2.607  0.00  0.00    +0.005 A 
ATOM     13  C   UNL     1      -5.053  -6.133  -0.816  0.00  0.00    +0.005 A 
ATOM     14  C   UNL     1      -6.021  -6.319  -3.421  0.00  0.00    +0.000 A 
ATOM     15  C   UNL     1      -4.667  -7.196  -1.632  0.00  0.00    +0.000 A 
ATOM     16  C   UNL     1      -5.149  -7.287  -2.935  0.00  0.00    +0.000 A 
ENDBRANCH  10  11
ENDBRANCH   1  10
TORSDOF 2
ENDMDL
MODEL 3
REMARK VINA RESULT:    -5.367      1.521      2.639
REMARK INTER + INTRA:          -6.120
REMARK INTER:                  -5.993
REMARK INTRA:                  -0.127
REMARK UNBOUND:                -0.126
REMARK  Name = 1550473
REMARK  2 active torsions:
REMARK  status: ('A' for Active; 'I' for Inactive)
REMARK    1  A    between atoms: N_1  and  C_4
REMARK    2  A    between atoms: C_4  and  C_5
REMARK                            x       y       z     vdW  Elec       q    Type
REMARK                         _______ _______ _______ _____ _____    ______ ____
ROOT
ATOM      1  N   UNL     1      -4.064  -0.631 -11.049  0.00  0.00    -0.354 N 
ATOM      2  N   UNL     1      -2.792   1.034 -12.036  0.00  0.00    -0.372 N 
ATOM      3  N   UNL     1      -4.789   1.598 -11.055  0.00  0.00    -0.372 N 
ATOM      4  C   UNL     1      -3.892   0.658 -11.373  0.00  0.00    +0.166 C 
ATOM      5  H   UNL     1      -3.362  -1.299 -11.345  0.00  0.00    +0.163 HD
ATOM      6  H   UNL     1      -2.633   2.000 -12.290  0.00  0.00    +0.159 HD
ATOM      7  H   UNL     1      -2.070   0.371 -12.290  0.00  0.00    +0.159 HD
ATOM      8  H   UNL     1      -5.643   1.378 -10.561  0.00  0.00    +0.159 HD
ATOM      9  H   UNL     1      -4.654   2.568 -11.312  0.00  0.00    +0.159 HD
ENDROOT
BRANCH   1  10
ATOM     10  C   UNL     1      -5.201  -1.137 -10.282  0.00  0.00    +0.151 C 
BRANCH  10  11
ATOM     11  C   UNL     1      -4.735  -1.509  -8.901  0.00  0.00    -0.028 A 
ATOM     12  C   UNL     1      -5.663  -1.801  -7.891  0.00  0.00    +0.005 A 
ATOM     13  C   UNL     1      -3.366  -1.577  -8.599  0.00  0.00    +0.005 A 
ATOM     14  C   UNL     1      -5.230  -2.176  -6.617  0.00  0.00    +0.000 A 
ATOM     15  C   UNL     1      -2.938  -1.951  -7.325  0.00  0.00    +0.000 A 
ATOM     16  C   UNL     1      -3.870  -2.253  -6.335  0.00  0.00    +0.000 A 
ENDBRANCH  10  11
ENDBRANCH   1  10
TORSDOF 2
ENDMDL
MODEL 4
REMARK VINA RESULT:    -4.921      5.498      6.615
REMARK INTER + INTRA:          -5.623
REMARK INTER:                  -5.492
REMARK INTRA:                  -0.131
REMARK UNBOUND:                -0.126
REMARK  Name = 1550473
REMARK  2 active torsions:
REMARK  status: ('A' for Active; 'I' for Inactive)
REMARK    1  A    between atoms: N_1  and  C_4
REMARK    2  A    between atoms: C_4  and  C_5
REMARK                            x       y       z     vdW  Elec       q    Type
REMARK                         _______ _______ _______ _____ _____    ______ ____
ROOT
ATOM      1  N   UNL     1       0.848  -2.012  -5.574  0.00  0.00    -0.354 N 
ATOM      2  N   UNL     1       2.528  -1.400  -4.103  0.00  0.00    -0.372 N 
ATOM      3  N   UNL     1       2.713  -0.798  -6.309  0.00  0.00    -0.372 N 
ATOM      4  C   UNL     1       2.020  -1.406  -5.341  0.00  0.00    +0.166 C 
ATOM      5  H   UNL     1       0.386  -2.481  -4.804  0.00  0.00    +0.163 HD
ATOM      6  H   UNL     1       3.409  -0.948  -3.896  0.00  0.00    +0.159 HD
ATOM      7  H   UNL     1       2.043  -1.830  -3.325  0.00  0.00    +0.159 HD
ATOM      8  H   UNL     1       2.387  -0.773  -7.266  0.00  0.00    +0.159 HD
ATOM      9  H   UNL     1       3.602  -0.351  -6.124  0.00  0.00    +0.159 HD
ENDROOT
BRANCH   1  10
ATOM     10  C   UNL     1       0.182  -2.029  -6.876  0.00  0.00    +0.151 C 
BRANCH  10  11
ATOM     11  C   UNL     1      -1.307  -2.070  -6.665  0.00  0.00    -0.028 A 
ATOM     12  C   UNL     1      -2.181  -2.088  -7.761  0.00  0.00    +0.005 A 
ATOM     13  C   UNL     1      -1.849  -2.097  -5.371  0.00  0.00    +0.005 A 
ATOM     14  C   UNL     1      -3.563  -2.156  -7.567  0.00  0.00    +0.000 A 
ATOM     15  C   UNL     1      -3.229  -2.165  -5.180  0.00  0.00    +0.000 A 
ATOM     16  C   UNL     1      -4.085  -2.197  -6.278  0.00  0.00    +0.000 A 
ENDBRANCH  10  11
ENDBRANCH   1  10
TORSDOF 2
ENDMDL
MODEL 5
REMARK VINA RESULT:    -4.897      2.659      3.351
REMARK INTER + INTRA:          -5.596
REMARK INTER:                  -5.434
REMARK INTRA:                  -0.163
REMARK UNBOUND:                -0.126
REMARK  Name = 1550473
REMARK  2 active torsions:
REMARK  status: ('A' for Active; 'I' for Inactive)
REMARK    1  A    between atoms: N_1  and  C_4
REMARK    2  A    between atoms: C_4  and  C_5
REMARK                            x       y       z     vdW  Elec       q    Type
REMARK                         _______ _______ _______ _____ _____    ______ ____
ROOT
ATOM      1  N   UNL     1      -4.606   2.598  -8.729  0.00  0.00    -0.354 N 
ATOM      2  N   UNL     1      -4.322   3.633 -10.781  0.00  0.00    -0.372 N 
ATOM      3  N   UNL     1      -6.419   2.923 -10.178  0.00  0.00    -0.372 N 
ATOM      4  C   UNL     1      -5.120   3.044  -9.883  0.00  0.00    +0.166 C 
ATOM      5  H   UNL     1      -3.608   2.693  -8.578  0.00  0.00    +0.163 HD
ATOM      6  H   UNL     1      -4.682   3.982 -11.659  0.00  0.00    +0.159 HD
ATOM      7  H   UNL     1      -3.333   3.767 -10.609  0.00  0.00    +0.159 HD
ATOM      8  H   UNL     1      -7.073   2.484  -9.544  0.00  0.00    +0.159 HD
ATOM      9  H   UNL     1      -6.796   3.256 -11.056  0.00  0.00    +0.159 HD
ENDROOT
BRANCH   1  10
ATOM     10  C   UNL     1      -5.398   1.991  -7.661  0.00  0.00    +0.151 C 
BRANCH  10  11
ATOM     11  C   UNL     1      -4.990   0.552  -7.504  0.00  0.00    -0.028 A 
ATOM     12  C   UNL     1      -5.694  -0.463  -8.168  0.00  0.00    +0.005 A 
ATOM     13  C   UNL     1      -3.898   0.198  -6.698  0.00  0.00    +0.005 A 
ATOM     14  C   UNL     1      -5.298  -1.797  -8.046  0.00  0.00    +0.000 A 
ATOM     15  C   UNL     1      -3.505  -1.135  -6.579  0.00  0.00    +0.000 A 
ATOM     16  C   UNL     1      -4.204  -2.132  -7.255  0.00  0.00    +0.000 A 
ENDBRANCH  10  11
ENDBRANCH   1  10
TORSDOF 2
ENDMDL
MODEL 6
REMARK VINA RESULT:    -4.861      2.890      5.045
REMARK INTER + INTRA:          -5.555
REMARK INTER:                  -5.450
REMARK INTRA:                  -0.105
REMARK UNBOUND:                -0.126
REMARK  Name = 1550473
REMARK  2 active torsions:
REMARK  status: ('A' for Active; 'I' for Inactive)
REMARK    1  A    between atoms: N_1  and  C_4
REMARK    2  A    between atoms: C_4  and  C_5
REMARK                            x       y       z     vdW  Elec       q    Type
REMARK                         _______ _______ _______ _____ _____    ______ ____
ROOT
ATOM      1  N   UNL     1      -3.108  -0.342  -9.609  0.00  0.00    -0.354 N 
ATOM      2  N   UNL     1      -4.886  -1.805  -9.357  0.00  0.00    -0.372 N 
ATOM      3  N   UNL     1      -3.006  -2.112  -8.077  0.00  0.00    -0.372 N 
ATOM      4  C   UNL     1      -3.653  -1.411  -9.014  0.00  0.00    +0.166 C 
ATOM      5  H   UNL     1      -3.639   0.129 -10.334  0.00  0.00    +0.163 HD
ATOM      6  H   UNL     1      -5.324  -2.606  -8.923  0.00  0.00    +0.159 HD
ATOM      7  H   UNL     1      -5.432  -1.306 -10.048  0.00  0.00    +0.159 HD
ATOM      8  H   UNL     1      -2.071  -1.870  -7.778  0.00  0.00    +0.159 HD
ATOM      9  H   UNL     1      -3.423  -2.923  -7.639  0.00  0.00    +0.159 HD
ENDROOT
BRANCH   1  10
ATOM     10  C   UNL     1      -1.794   0.202  -9.271  0.00  0.00    +0.151 C 
BRANCH  10  11
ATOM     11  C   UNL     1      -1.732   1.641  -9.701  0.00  0.00    -0.028 A 
ATOM     12  C   UNL     1      -0.895   2.034 -10.756  0.00  0.00    +0.005 A 
ATOM     13  C   UNL     1      -2.512   2.617  -9.061  0.00  0.00    +0.005 A 
ATOM     14  C   UNL     1      -0.860   3.366 -11.175  0.00  0.00    +0.000 A 
ATOM     15  C   UNL     1      -2.473   3.946  -9.482  0.00  0.00    +0.000 A 
ATOM     16  C   UNL     1      -1.648   4.320 -10.541  0.00  0.00    +0.000 A 
ENDBRANCH  10  11
ENDBRANCH   1  10
TORSDOF 2
ENDMDL
MODEL 7
REMARK VINA RESULT:    -4.760      2.147      2.761
REMARK INTER + INTRA:          -5.443
REMARK INTER:                  -5.325
REMARK INTRA:                  -0.118
REMARK UNBOUND:                -0.126
REMARK  Name = 1550473
REMARK  2 active torsions:
REMARK  status: ('A' for Active; 'I' for Inactive)
REMARK    1  A    between atoms: N_1  and  C_4
REMARK    2  A    between atoms: C_4  and  C_5
REMARK                            x       y       z     vdW  Elec       q    Type
REMARK                         _______ _______ _______ _____ _____    ______ ____
ROOT
ATOM      1  N   UNL     1      -5.079  -0.260 -10.463  0.00  0.00    -0.354 N 
ATOM      2  N   UNL     1      -6.671   0.208 -12.078  0.00  0.00    -0.372 N 
ATOM      3  N   UNL     1      -4.455   0.210 -12.672  0.00  0.00    -0.372 N 
ATOM      4  C   UNL     1      -5.389   0.050 -11.729  0.00  0.00    +0.166 C 
ATOM      5  H   UNL     1      -5.831  -0.337  -9.788  0.00  0.00    +0.163 HD
ATOM      6  H   UNL     1      -6.935   0.439 -13.027  0.00  0.00    +0.159 HD
ATOM      7  H   UNL     1      -7.424   0.085 -11.413  0.00  0.00    +0.159 HD
ATOM      8  H   UNL     1      -3.468   0.111 -12.471  0.00  0.00    +0.159 HD
ATOM      9  H   UNL     1      -4.699   0.453 -13.624  0.00  0.00    +0.159 HD
ENDROOT
BRANCH   1  10
ATOM     10  C   UNL     1      -3.717  -0.506  -9.991  0.00  0.00    +0.151 C 
BRANCH  10  11
ATOM     11  C   UNL     1      -3.774  -1.044  -8.588  0.00  0.00    -0.028 A 
ATOM     12  C   UNL     1      -2.741  -0.770  -7.678  0.00  0.00    +0.005 A 
ATOM     13  C   UNL     1      -4.859  -1.823  -8.160  0.00  0.00    +0.005 A 
ATOM     14  C   UNL     1      -2.808  -1.245  -6.366  0.00  0.00    +0.000 A 
ATOM     15  C   UNL     1      -4.921  -2.296  -6.849  0.00  0.00    +0.000 A 
ATOM     16  C   UNL     1      -3.896  -2.004  -5.952  0.00  0.00    +0.000 A 
ENDBRANCH  10  11
ENDBRANCH   1  10
TORSDOF 2
ENDMDL
MODEL 8
REMARK VINA RESULT:    -4.656      9.064     11.461
REMARK INTER + INTRA:          -5.327
REMARK INTER:                  -5.236
REMARK INTRA:                  -0.091
REMARK UNBOUND:                -0.126
REMARK  Name = 1550473
REMARK  2 active torsions:
REMARK  status: ('A' for Active; 'I' for Inactive)
REMARK    1  A    between atoms: N_1  and  C_4
REMARK    2  A    between atoms: C_4  and  C_5
REMARK                            x       y       z     vdW  Elec       q    Type
REMARK                         _______ _______ _______ _____ _____    ______ ____
ROOT
ATOM      1  N   UNL     1       2.865   7.286 -11.875  0.00  0.00    -0.354 N 
ATOM      2  N   UNL     1       3.330   6.256  -9.854  0.00  0.00    -0.372 N 
ATOM      3  N   UNL     1       1.209   7.045 -10.235  0.00  0.00    -0.372 N 
ATOM      4  C   UNL     1       2.462   6.870 -10.667  0.00  0.00    +0.166 C 
ATOM      5  H   UNL     1       3.836   7.150 -12.132  0.00  0.00    +0.163 HD
ATOM      6  H   UNL     1       3.054   5.928  -8.938  0.00  0.00    +0.159 HD
ATOM      7  H   UNL     1       4.288   6.080 -10.131  0.00  0.00    +0.159 HD
ATOM      8  H   UNL     1       0.508   7.506 -10.798  0.00  0.00    +0.159 HD
ATOM      9  H   UNL     1       0.917   6.734  -9.317  0.00  0.00    +0.159 HD
ENDROOT
BRANCH   1  10
ATOM     10  C   UNL     1       1.986   7.917 -12.858  0.00  0.00    +0.151 C 
BRANCH  10  11
ATOM     11  C   UNL     1       2.772   8.207 -14.106  0.00  0.00    -0.028 A 
ATOM     12  C   UNL     1       2.684   7.355 -15.217  0.00  0.00    +0.005 A 
ATOM     13  C   UNL     1       3.603   9.335 -14.187  0.00  0.00    +0.005 A 
ATOM     14  C   UNL     1       3.391   7.640 -16.388  0.00  0.00    +0.000 A 
ATOM     15  C   UNL     1       4.309   9.615 -15.357  0.00  0.00    +0.000 A 
ATOM     16  C   UNL     1       4.200   8.769 -16.458  0.00  0.00    +0.000 A 
ENDBRANCH  10  11
ENDBRANCH   1  10
TORSDOF 2
ENDMDL
MODEL 9
REMARK VINA RESULT:    -4.614      7.832      9.399
REMARK INTER + INTRA:          -5.280
REMARK INTER:                  -5.165
REMARK INTRA:                  -0.115
REMARK UNBOUND:                -0.126
REMARK  Name = 1550473
REMARK  2 active torsions:
REMARK  status: ('A' for Active; 'I' for Inactive)
REMARK    1  A    between atoms: N_1  and  C_4
REMARK    2  A    between atoms: C_4  and  C_5
REMARK                            x       y       z     vdW  Elec       q    Type
REMARK                         _______ _______ _______ _____ _____    ______ ____
ROOT
ATOM      1  N   UNL     1       1.590  -1.624  -5.164  0.00  0.00    -0.354 N 
ATOM      2  N   UNL     1      -0.570  -2.404  -5.464  0.00  0.00    -0.372 N 
ATOM      3  N   UNL     1       0.641  -1.758  -7.303  0.00  0.00    -0.372 N 
ATOM      4  C   UNL     1       0.568  -1.923  -5.978  0.00  0.00    +0.166 C 
ATOM      5  H   UNL     1       1.461  -1.743  -4.166  0.00  0.00    +0.163 HD
ATOM      6  H   UNL     1      -1.357  -2.642  -6.053  0.00  0.00    +0.159 HD
ATOM      7  H   UNL     1      -0.680  -2.566  -4.470  0.00  0.00    +0.159 HD
ATOM      8  H   UNL     1       1.470  -1.393  -7.753  0.00  0.00    +0.159 HD
ATOM      9  H   UNL     1      -0.140  -1.979  -7.908  0.00  0.00    +0.159 HD
ENDROOT
BRANCH   1  10
ATOM     10  C   UNL     1       2.891  -1.144  -5.628  0.00  0.00    +0.151 C 
BRANCH  10  11
ATOM     11  C   UNL     1       3.575  -0.417  -4.504  0.00  0.00    -0.028 A 
ATOM     12  C   UNL     1       4.391   0.693  -4.766  0.00  0.00    +0.005 A 
ATOM     13  C   UNL     1       3.408  -0.830  -3.173  0.00  0.00    +0.005 A 
ATOM     14  C   UNL     1       5.003   1.387  -3.719  0.00  0.00    +0.000 A 
ATOM     15  C   UNL     1       4.022  -0.135  -2.131  0.00  0.00    +0.000 A 
ATOM     16  C   UNL     1       4.817   0.975  -2.404  0.00  0.00    +0.000 A 
ENDBRANCH  10  11
ENDBRANCH   1  10
TORSDOF 2
ENDMDL
