MODEL 1
REMARK VINA RESULT:    -4.697      0.000      0.000
REMARK INTER + INTRA:          -5.345
REMARK INTER:                  -5.247
REMARK INTRA:                  -0.099
REMARK UNBOUND:                -0.099
REMARK  Name = 1550473
REMARK  2 active torsions:
REMARK  status: ('A' for Active; 'I' for Inactive)
REMARK    1  A    between atoms: N_1  and  C_4
REMARK    2  A    between atoms: C_4  and  C_5
REMARK                            x       y       z     vdW  Elec       q    Type
REMARK                         _______ _______ _______ _____ _____    ______ ____
ROOT
ATOM      1  N   UNL     1      17.080   3.808  12.376  0.00  0.00    -0.354 N 
ATOM      2  N   UNL     1      19.192   4.110  13.279  0.00  0.00    -0.372 N 
ATOM      3  N   UNL     1      18.139   5.897  12.298  0.00  0.00    -0.372 N 
ATOM      4  C   UNL     1      18.123   4.605  12.644  0.00  0.00    +0.166 C 
ATOM      5  H   UNL     1      17.142   2.831  12.638  0.00  0.00    +0.163 HD
ATOM      6  H   UNL     1      19.992   4.688  13.498  0.00  0.00    +0.159 HD
ATOM      7  H   UNL     1      19.232   3.144  13.581  0.00  0.00    +0.159 HD
ATOM      8  H   UNL     1      17.366   6.330  11.811  0.00  0.00    +0.159 HD
ATOM      9  H   UNL     1      18.936   6.489  12.497  0.00  0.00    +0.159 HD
ENDROOT
BRANCH   1  10
ATOM     10  C   UNL     1      15.847   4.261  11.737  0.00  0.00    +0.151 C 
BRANCH  10  11
ATOM     11  C   UNL     1      15.155   3.082  11.112  0.00  0.00    -0.028 A 
ATOM     12  C   UNL     1      14.991   3.007   9.721  0.00  0.00    +0.005 A 
ATOM     13  C   UNL     1      14.665   2.033  11.905  0.00  0.00    +0.005 A 
ATOM     14  C   UNL     1      14.375   1.897   9.138  0.00  0.00    +0.000 A 
ATOM     15  C   UNL     1      14.050   0.927  11.319  0.00  0.00    +0.000 A 
ATOM     16  C   UNL     1      13.907   0.858   9.935  0.00  0.00    +0.000 A 
ENDBRANCH  10  11
ENDBRANCH   1  10
TORSDOF 2
ENDMDL
MODEL 2
REMARK VINA RESULT:    -4.599     31.870     33.142
REMARK INTER + INTRA:          -5.236
REMARK INTER:                  -5.167
REMARK INTRA:                  -0.069
REMARK UNBOUND:                -0.099
REMARK  Name = 1550473
REMARK  2 active torsions:
REMARK  status: ('A' for Active; 'I' for Inactive)
REMARK    1  A    between atoms: N_1  and  C_4
REMARK    2  A    between atoms: C_4  and  C_5
REMARK                            x       y       z     vdW  Elec       q    Type
REMARK                         _______ _______ _______ _____ _____    ______ ____
ROOT
ATOM      1  N   UNL     1      -9.172   1.313 -10.089  0.00  0.00    -0.354 N 
ATOM      2  N   UNL     1      -7.945   3.218 -10.571  0.00  0.00    -0.372 N 
ATOM      3  N   UNL     1      -7.235   1.840  -8.879  0.00  0.00    -0.372 N 
ATOM      4  C   UNL     1      -8.124   2.110  -9.841  0.00  0.00    +0.166 C 
ATOM      5  H   UNL     1      -9.826   1.590 -10.812  0.00  0.00    +0.163 HD
ATOM      6  H   UNL     1      -7.162   3.836 -10.410  0.00  0.00    +0.159 HD
ATOM      7  H   UNL     1      -8.575   3.468 -11.324  0.00  0.00    +0.159 HD
ATOM      8  H   UNL     1      -7.317   1.023  -8.289  0.00  0.00    +0.159 HD
ATOM      9  H   UNL     1      -6.451   2.453  -8.695  0.00  0.00    +0.159 HD
ENDROOT
BRANCH   1  10
ATOM     10  C   UNL     1      -9.427   0.057  -9.388  0.00  0.00    +0.151 C 
BRANCH  10  11
ATOM     11  C   UNL     1      -9.028  -1.091 -10.274  0.00  0.00    -0.028 A 
ATOM     12  C   UNL     1      -9.188  -2.415  -9.840  0.00  0.00    +0.005 A 
ATOM     13  C   UNL     1      -8.493  -0.861 -11.551  0.00  0.00    +0.005 A 
ATOM     14  C   UNL     1      -8.844  -3.481 -10.674  0.00  0.00    +0.000 A 
ATOM     15  C   UNL     1      -8.151  -1.928 -12.380  0.00  0.00    +0.000 A 
ATOM     16  C   UNL     1      -8.329  -3.238 -11.943  0.00  0.00    +0.000 A 
ENDBRANCH  10  11
ENDBRANCH   1  10
TORSDOF 2
ENDMDL
MODEL 3
REMARK VINA RESULT:    -4.315      4.303      5.499
REMARK INTER + INTRA:          -4.918
REMARK INTER:                  -4.795
REMARK INTRA:                  -0.124
REMARK UNBOUND:                -0.099
REMARK  Name = 1550473
REMARK  2 active torsions:
REMARK  status: ('A' for Active; 'I' for Inactive)
REMARK    1  A    between atoms: N_1  and  C_4
REMARK    2  A    between atoms: C_4  and  C_5
REMARK                            x       y       z     vdW  Elec       q    Type
REMARK                         _______ _______ _______ _____ _____    ______ ____
ROOT
ATOM      1  N   UNL     1      16.017  -2.102  11.082  0.00  0.00    -0.354 N 
ATOM      2  N   UNL     1      16.153  -4.360  10.585  0.00  0.00    -0.372 N 
ATOM      3  N   UNL     1      17.978  -3.315  11.501  0.00  0.00    -0.372 N 
ATOM      4  C   UNL     1      16.718  -3.244  11.060  0.00  0.00    +0.166 C 
ATOM      5  H   UNL     1      15.076  -2.108  10.705  0.00  0.00    +0.163 HD
ATOM      6  H   UNL     1      16.655  -5.237  10.560  0.00  0.00    +0.159 HD
ATOM      7  H   UNL     1      15.196  -4.374  10.252  0.00  0.00    +0.159 HD
ATOM      8  H   UNL     1      18.464  -2.506  11.865  0.00  0.00    +0.159 HD
ATOM      9  H   UNL     1      18.502  -4.181  11.472  0.00  0.00    +0.159 HD
ENDROOT
BRANCH   1  10
ATOM     10  C   UNL     1      16.521  -0.844  11.628  0.00  0.00    +0.151 C 
BRANCH  10  11
ATOM     11  C   UNL     1      15.720   0.295  11.058  0.00  0.00    -0.028 A 
ATOM     12  C   UNL     1      16.175   1.616  11.180  0.00  0.00    +0.005 A 
ATOM     13  C   UNL     1      14.509   0.058  10.391  0.00  0.00    +0.005 A 
ATOM     14  C   UNL     1      15.447   2.671  10.625  0.00  0.00    +0.000 A 
ATOM     15  C   UNL     1      13.784   1.114   9.839  0.00  0.00    +0.000 A 
ATOM     16  C   UNL     1      14.254   2.420   9.954  0.00  0.00    +0.000 A 
ENDBRANCH  10  11
ENDBRANCH   1  10
TORSDOF 2
ENDMDL
MODEL 4
REMARK VINA RESULT:    -4.239     33.396     34.291
REMARK INTER + INTRA:          -4.833
REMARK INTER:                  -4.678
REMARK INTRA:                  -0.155
REMARK UNBOUND:                -0.099
REMARK  Name = 1550473
REMARK  2 active torsions:
REMARK  status: ('A' for Active; 'I' for Inactive)
REMARK    1  A    between atoms: N_1  and  C_4
REMARK    2  A    between atoms: C_4  and  C_5
REMARK                            x       y       z     vdW  Elec       q    Type
REMARK                         _______ _______ _______ _____ _____    ______ ____
ROOT
ATOM      1  N   UNL     1      -7.538  -3.581 -13.938  0.00  0.00    -0.354 N 
ATOM      2  N   UNL     1      -5.717  -5.001 -14.109  0.00  0.00    -0.372 N 
ATOM      3  N   UNL     1      -5.352  -2.739 -13.996  0.00  0.00    -0.372 N 
ATOM      4  C   UNL     1      -6.213  -3.762 -14.013  0.00  0.00    +0.166 C 
ATOM      5  H   UNL     1      -8.139  -4.396 -13.986  0.00  0.00    +0.163 HD
ATOM      6  H   UNL     1      -4.721  -5.169 -14.165  0.00  0.00    +0.159 HD
ATOM      7  H   UNL     1      -6.317  -5.817 -14.112  0.00  0.00    +0.159 HD
ATOM      8  H   UNL     1      -5.663  -1.778 -13.931  0.00  0.00    +0.159 HD
ATOM      9  H   UNL     1      -4.352  -2.886 -14.062  0.00  0.00    +0.159 HD
ENDROOT
BRANCH   1  10
ATOM     10  C   UNL     1      -8.177  -2.276 -13.777  0.00  0.00    +0.151 C 
BRANCH  10  11
ATOM     11  C   UNL     1      -8.524  -2.075 -12.327  0.00  0.00    -0.028 A 
ATOM     12  C   UNL     1      -8.530  -0.788 -11.769  0.00  0.00    +0.005 A 
ATOM     13  C   UNL     1      -8.855  -3.166 -11.509  0.00  0.00    +0.005 A 
ATOM     14  C   UNL     1      -8.881  -0.598 -10.430  0.00  0.00    +0.000 A 
ATOM     15  C   UNL     1      -9.204  -2.971 -10.173  0.00  0.00    +0.000 A 
ATOM     16  C   UNL     1      -9.220  -1.687  -9.634  0.00  0.00    +0.000 A 
ENDBRANCH  10  11
ENDBRANCH   1  10
TORSDOF 2
ENDMDL
MODEL 5
REMARK VINA RESULT:    -4.220     25.740     27.544
REMARK INTER + INTRA:          -4.812
REMARK INTER:                  -4.684
REMARK INTRA:                  -0.128
REMARK UNBOUND:                -0.099
REMARK  Name = 1550473
REMARK  2 active torsions:
REMARK  status: ('A' for Active; 'I' for Inactive)
REMARK    1  A    between atoms: N_1  and  C_4
REMARK    2  A    between atoms: C_4  and  C_5
REMARK                            x       y       z     vdW  Elec       q    Type
REMARK                         _______ _______ _______ _____ _____    ______ ____
ROOT
ATOM      1  N   UNL     1       5.113 -10.027  -8.446  0.00  0.00    -0.354 N 
ATOM      2  N   UNL     1       5.980 -11.589  -6.972  0.00  0.00    -0.372 N 
ATOM      3  N   UNL     1       4.341 -10.161  -6.237  0.00  0.00    -0.372 N 
ATOM      4  C   UNL     1       5.137 -10.581  -7.226  0.00  0.00    +0.166 C 
ATOM      5  H   UNL     1       5.763 -10.371  -9.143  0.00  0.00    +0.163 HD
ATOM      6  H   UNL     1       6.018 -12.029  -6.062  0.00  0.00    +0.159 HD
ATOM      7  H   UNL     1       6.596 -11.961  -7.684  0.00  0.00    +0.159 HD
ATOM      8  H   UNL     1       3.687  -9.400  -6.363  0.00  0.00    +0.159 HD
ATOM      9  H   UNL     1       4.373 -10.580  -5.316  0.00  0.00    +0.159 HD
ENDROOT
BRANCH   1  10
ATOM     10  C   UNL     1       4.195  -8.960  -8.841  0.00  0.00    +0.151 C 
BRANCH  10  11
ATOM     11  C   UNL     1       3.926  -9.066 -10.317  0.00  0.00    -0.028 A 
ATOM     12  C   UNL     1       2.930  -8.282 -10.917  0.00  0.00    +0.005 A 
ATOM     13  C   UNL     1       4.667  -9.945 -11.122  0.00  0.00    +0.005 A 
ATOM     14  C   UNL     1       2.699  -8.358 -12.293  0.00  0.00    +0.000 A 
ATOM     15  C   UNL     1       4.434 -10.018 -12.495  0.00  0.00    +0.000 A 
ATOM     16  C   UNL     1       3.451  -9.223 -13.080  0.00  0.00    +0.000 A 
ENDBRANCH  10  11
ENDBRANCH   1  10
TORSDOF 2
ENDMDL
MODEL 6
REMARK VINA RESULT:    -4.195     33.470     34.670
REMARK INTER + INTRA:          -4.784
REMARK INTER:                  -4.678
REMARK INTRA:                  -0.106
REMARK UNBOUND:                -0.099
REMARK  Name = 1550473
REMARK  2 active torsions:
REMARK  status: ('A' for Active; 'I' for Inactive)
REMARK    1  A    between atoms: N_1  and  C_4
REMARK    2  A    between atoms: C_4  and  C_5
REMARK                            x       y       z     vdW  Elec       q    Type
REMARK                         _______ _______ _______ _____ _____    ______ ____
ROOT
ATOM      1  N   UNL     1      -9.465  -2.086 -11.485  0.00  0.00    -0.354 N 
ATOM      2  N   UNL     1      -8.936  -1.565  -9.292  0.00  0.00    -0.372 N 
ATOM      3  N   UNL     1      -9.117  -3.772  -9.895  0.00  0.00    -0.372 N 
ATOM      4  C   UNL     1      -9.176  -2.481 -10.238  0.00  0.00    +0.166 C 
ATOM      5  H   UNL     1      -9.524  -1.092 -11.675  0.00  0.00    +0.163 HD
ATOM      6  H   UNL     1      -8.712  -1.832  -8.343  0.00  0.00    +0.159 HD
ATOM      7  H   UNL     1      -8.950  -0.573  -9.494  0.00  0.00    +0.159 HD
ATOM      8  H   UNL     1      -9.294  -4.512 -10.561  0.00  0.00    +0.159 HD
ATOM      9  H   UNL     1      -8.906  -4.059  -8.947  0.00  0.00    +0.159 HD
ENDROOT
BRANCH   1  10
ATOM     10  C   UNL     1      -9.690  -3.003 -12.601  0.00  0.00    +0.151 C 
BRANCH  10  11
ATOM     11  C   UNL     1      -8.397  -3.200 -13.344  0.00  0.00    -0.028 A 
ATOM     12  C   UNL     1      -7.395  -2.220 -13.301  0.00  0.00    +0.005 A 
ATOM     13  C   UNL     1      -8.166  -4.367 -14.089  0.00  0.00    +0.005 A 
ATOM     14  C   UNL     1      -6.182  -2.415 -13.966  0.00  0.00    +0.000 A 
ATOM     15  C   UNL     1      -6.954  -4.558 -14.752  0.00  0.00    +0.000 A 
ATOM     16  C   UNL     1      -5.962  -3.583 -14.689  0.00  0.00    +0.000 A 
ENDBRANCH  10  11
ENDBRANCH   1  10
TORSDOF 2
ENDMDL
MODEL 7
REMARK VINA RESULT:    -4.182     33.004     34.340
REMARK INTER + INTRA:          -4.770
REMARK INTER:                  -4.632
REMARK INTRA:                  -0.138
REMARK UNBOUND:                -0.099
REMARK  Name = 1550473
REMARK  2 active torsions:
REMARK  status: ('A' for Active; 'I' for Inactive)
REMARK    1  A    between atoms: N_1  and  C_4
REMARK    2  A    between atoms: C_4  and  C_5
REMARK                            x       y       z     vdW  Elec       q    Type
REMARK                         _______ _______ _______ _____ _____    ______ ____
ROOT
ATOM      1  N   UNL     1     -10.282 -10.264  -5.740  0.00  0.00    -0.354 N 
ATOM      2  N   UNL     1     -10.757 -10.635  -3.504  0.00  0.00    -0.372 N 
ATOM      3  N   UNL     1     -12.017 -11.702  -5.097  0.00  0.00    -0.372 N 
ATOM      4  C   UNL     1     -11.018 -10.866  -4.796  0.00  0.00    +0.166 C 
ATOM      5  H   UNL     1      -9.558  -9.617  -5.447  0.00  0.00    +0.163 HD
ATOM      6  H   UNL     1     -11.293 -11.077  -2.770  0.00  0.00    +0.159 HD
ATOM      7  H   UNL     1     -10.003 -10.024  -3.214  0.00  0.00    +0.159 HD
ATOM      8  H   UNL     1     -12.268 -11.914  -6.054  0.00  0.00    +0.159 HD
ATOM      9  H   UNL     1     -12.572 -12.146  -4.377  0.00  0.00    +0.159 HD
ENDROOT
BRANCH   1  10
ATOM     10  C   UNL     1     -10.449 -10.489  -7.175  0.00  0.00    +0.151 C 
BRANCH  10  11
ATOM     11  C   UNL     1      -9.093 -10.569  -7.821  0.00  0.00    -0.028 A 
ATOM     12  C   UNL     1      -8.974 -10.676  -9.214  0.00  0.00    +0.005 A 
ATOM     13  C   UNL     1      -7.924 -10.533  -7.045  0.00  0.00    +0.005 A 
ATOM     14  C   UNL     1      -7.714 -10.720  -9.817  0.00  0.00    +0.000 A 
ATOM     15  C   UNL     1      -6.669 -10.579  -7.651  0.00  0.00    +0.000 A 
ATOM     16  C   UNL     1      -6.564 -10.670  -9.037  0.00  0.00    +0.000 A 
ENDBRANCH  10  11
ENDBRANCH   1  10
TORSDOF 2
ENDMDL
MODEL 8
REMARK VINA RESULT:    -4.152     30.994     31.859
REMARK INTER + INTRA:          -4.736
REMARK INTER:                  -4.642
REMARK INTRA:                  -0.094
REMARK UNBOUND:                -0.099
REMARK  Name = 1550473
REMARK  2 active torsions:
REMARK  status: ('A' for Active; 'I' for Inactive)
REMARK    1  A    between atoms: N_1  and  C_4
REMARK    2  A    between atoms: C_4  and  C_5
REMARK                            x       y       z     vdW  Elec       q    Type
REMARK                         _______ _______ _______ _____ _____    ______ ____
ROOT
ATOM      1  N   UNL     1     -14.475  10.000  10.755  0.00  0.00    -0.354 N 
ATOM      2  N   UNL     1     -13.844  12.228  10.725  0.00  0.00    -0.372 N 
ATOM      3  N   UNL     1     -12.826  10.807  12.212  0.00  0.00    -0.372 N 
ATOM      4  C   UNL     1     -13.718  10.996  11.233  0.00  0.00    +0.166 C 
ATOM      5  H   UNL     1     -15.154  10.215  10.034  0.00  0.00    +0.163 HD
ATOM      6  H   UNL     1     -13.283  12.999  11.063  0.00  0.00    +0.159 HD
ATOM      7  H   UNL     1     -14.490  12.430   9.972  0.00  0.00    +0.159 HD
ATOM      8  H   UNL     1     -12.687   9.903  12.642  0.00  0.00    +0.159 HD
ATOM      9  H   UNL     1     -12.264  11.569  12.571  0.00  0.00    +0.159 HD
ENDROOT
BRANCH   1  10
ATOM     10  C   UNL     1     -14.378   8.612  11.203  0.00  0.00    +0.151 C 
BRANCH  10  11
ATOM     11  C   UNL     1     -15.515   7.825  10.613  0.00  0.00    -0.028 A 
ATOM     12  C   UNL     1     -16.564   7.371  11.426  0.00  0.00    +0.005 A 
ATOM     13  C   UNL     1     -15.552   7.533   9.241  0.00  0.00    +0.005 A 
ATOM     14  C   UNL     1     -17.636   6.666  10.873  0.00  0.00    +0.000 A 
ATOM     15  C   UNL     1     -16.624   6.828   8.693  0.00  0.00    +0.000 A 
ATOM     16  C   UNL     1     -17.667   6.397   9.509  0.00  0.00    +0.000 A 
ENDBRANCH  10  11
ENDBRANCH   1  10
TORSDOF 2
ENDMDL
MODEL 9
REMARK VINA RESULT:    -4.133     15.708     16.948
REMARK INTER + INTRA:          -4.715
REMARK INTER:                  -4.560
REMARK INTRA:                  -0.156
REMARK UNBOUND:                -0.099
REMARK  Name = 1550473
REMARK  2 active torsions:
REMARK  status: ('A' for Active; 'I' for Inactive)
REMARK    1  A    between atoms: N_1  and  C_4
REMARK    2  A    between atoms: C_4  and  C_5
REMARK                            x       y       z     vdW  Elec       q    Type
REMARK                         _______ _______ _______ _____ _____    ______ ____
ROOT
ATOM      1  N   UNL     1      21.048  -0.715  -3.493  0.00  0.00    -0.354 N 
ATOM      2  N   UNL     1      19.540  -2.469  -3.379  0.00  0.00    -0.372 N 
ATOM      3  N   UNL     1      20.110  -1.629  -5.437  0.00  0.00    -0.372 N 
ATOM      4  C   UNL     1      20.243  -1.592  -4.107  0.00  0.00    +0.166 C 
ATOM      5  H   UNL     1      21.081  -0.718  -2.480  0.00  0.00    +0.163 HD
ATOM      6  H   UNL     1      18.927  -3.146  -3.814  0.00  0.00    +0.159 HD
ATOM      7  H   UNL     1      19.611  -2.501  -2.369  0.00  0.00    +0.159 HD
ATOM      8  H   UNL     1      20.608  -0.990  -6.042  0.00  0.00    +0.159 HD
ATOM      9  H   UNL     1      19.493  -2.291  -5.890  0.00  0.00    +0.159 HD
ENDROOT
BRANCH   1  10
ATOM     10  C   UNL     1      21.896   0.246  -4.196  0.00  0.00    +0.151 C 
BRANCH  10  11
ATOM     11  C   UNL     1      21.218   1.588  -4.201  0.00  0.00    -0.028 A 
ATOM     12  C   UNL     1      21.392   2.470  -5.278  0.00  0.00    +0.005 A 
ATOM     13  C   UNL     1      20.395   1.982  -3.135  0.00  0.00    +0.005 A 
ATOM     14  C   UNL     1      20.738   3.705  -5.297  0.00  0.00    +0.000 A 
ATOM     15  C   UNL     1      19.745   3.216  -3.157  0.00  0.00    +0.000 A 
ATOM     16  C   UNL     1      19.915   4.076  -4.239  0.00  0.00    +0.000 A 
ENDBRANCH  10  11
ENDBRANCH   1  10
TORSDOF 2
ENDMDL
