MODEL 1
REMARK VINA RESULT:    -5.382      0.000      0.000
REMARK INTER + INTRA:          -6.135
REMARK INTER:                  -6.012
REMARK INTRA:                  -0.123
REMARK UNBOUND:                -0.123
REMARK  Name = 1550473
REMARK  2 active torsions:
REMARK  status: ('A' for Active; 'I' for Inactive)
REMARK    1  A    between atoms: N_1  and  C_4
REMARK    2  A    between atoms: C_4  and  C_5
REMARK                            x       y       z     vdW  Elec       q    Type
REMARK                         _______ _______ _______ _____ _____    ______ ____
ROOT
ATOM      1  N   UNL     1      11.897  11.529   2.783  0.00  0.00    -0.354 N 
ATOM      2  N   UNL     1      10.990   9.902   1.406  0.00  0.00    -0.372 N 
ATOM      3  N   UNL     1      12.480  11.403   0.517  0.00  0.00    -0.372 N 
ATOM      4  C   UNL     1      11.797  10.957   1.576  0.00  0.00    +0.166 C 
ATOM      5  H   UNL     1      11.329  11.162   3.538  0.00  0.00    +0.163 HD
ATOM      6  H   UNL     1      10.897   9.447   0.508  0.00  0.00    +0.159 HD
ATOM      7  H   UNL     1      10.459   9.509   2.174  0.00  0.00    +0.159 HD
ATOM      8  H   UNL     1      13.101  12.199   0.577  0.00  0.00    +0.159 HD
ATOM      9  H   UNL     1      12.391  10.969  -0.393  0.00  0.00    +0.159 HD
ENDROOT
BRANCH   1  10
ATOM     10  C   UNL     1      12.787  12.649   3.086  0.00  0.00    +0.151 C 
BRANCH  10  11
ATOM     11  C   UNL     1      12.541  13.104   4.498  0.00  0.00    -0.028 A 
ATOM     12  C   UNL     1      13.335  14.109   5.070  0.00  0.00    +0.005 A 
ATOM     13  C   UNL     1      11.512  12.538   5.266  0.00  0.00    +0.005 A 
ATOM     14  C   UNL     1      13.088  14.553   6.371  0.00  0.00    +0.000 A 
ATOM     15  C   UNL     1      11.269  12.984   6.565  0.00  0.00    +0.000 A 
ATOM     16  C   UNL     1      12.055  13.993   7.117  0.00  0.00    +0.000 A 
ENDBRANCH  10  11
ENDBRANCH   1  10
TORSDOF 2
ENDMDL
MODEL 2
REMARK VINA RESULT:    -4.612      1.534      2.523
REMARK INTER + INTRA:          -5.274
REMARK INTER:                  -5.148
REMARK INTRA:                  -0.126
REMARK UNBOUND:                -0.123
REMARK  Name = 1550473
REMARK  2 active torsions:
REMARK  status: ('A' for Active; 'I' for Inactive)
REMARK    1  A    between atoms: N_1  and  C_4
REMARK    2  A    between atoms: C_4  and  C_5
REMARK                            x       y       z     vdW  Elec       q    Type
REMARK                         _______ _______ _______ _____ _____    ______ ____
ROOT
ATOM      1  N   UNL     1      12.878  12.945   3.199  0.00  0.00    -0.354 N 
ATOM      2  N   UNL     1      11.707  11.169   2.282  0.00  0.00    -0.372 N 
ATOM      3  N   UNL     1      11.950  13.091   1.052  0.00  0.00    -0.372 N 
ATOM      4  C   UNL     1      12.186  12.415   2.182  0.00  0.00    +0.166 C 
ATOM      5  H   UNL     1      12.997  12.392   4.040  0.00  0.00    +0.163 HD
ATOM      6  H   UNL     1      11.184  10.742   1.530  0.00  0.00    +0.159 HD
ATOM      7  H   UNL     1      11.866  10.602   3.106  0.00  0.00    +0.159 HD
ATOM      8  H   UNL     1      12.279  14.037   0.915  0.00  0.00    +0.159 HD
ATOM      9  H   UNL     1      11.418  12.684   0.292  0.00  0.00    +0.159 HD
ENDROOT
BRANCH   1  10
ATOM     10  C   UNL     1      13.488  14.273   3.169  0.00  0.00    +0.151 C 
BRANCH  10  11
ATOM     11  C   UNL     1      13.686  14.754   4.580  0.00  0.00    -0.028 A 
ATOM     12  C   UNL     1      12.888  14.257   5.620  0.00  0.00    +0.005 A 
ATOM     13  C   UNL     1      14.674  15.704   4.883  0.00  0.00    +0.005 A 
ATOM     14  C   UNL     1      13.091  14.681   6.936  0.00  0.00    +0.000 A 
ATOM     15  C   UNL     1      14.873  16.126   6.198  0.00  0.00    +0.000 A 
ATOM     16  C   UNL     1      14.083  15.613   7.224  0.00  0.00    +0.000 A 
ENDBRANCH  10  11
ENDBRANCH   1  10
TORSDOF 2
ENDMDL
MODEL 3
REMARK VINA RESULT:    -4.550     13.538     14.113
REMARK INTER + INTRA:          -5.205
REMARK INTER:                  -5.082
REMARK INTRA:                  -0.123
REMARK UNBOUND:                -0.123
REMARK  Name = 1550473
REMARK  2 active torsions:
REMARK  status: ('A' for Active; 'I' for Inactive)
REMARK    1  A    between atoms: N_1  and  C_4
REMARK    2  A    between atoms: C_4  and  C_5
REMARK                            x       y       z     vdW  Elec       q    Type
REMARK                         _______ _______ _______ _____ _____    ______ ____
ROOT
ATOM      1  N   UNL     1      19.610   5.734  13.008  0.00  0.00    -0.354 N 
ATOM      2  N   UNL     1      18.524   3.847  12.219  0.00  0.00    -0.372 N 
ATOM      3  N   UNL     1      17.478   5.154  13.789  0.00  0.00    -0.372 N 
ATOM      4  C   UNL     1      18.543   4.925  13.012  0.00  0.00    +0.166 C 
ATOM      5  H   UNL     1      20.398   5.489  12.419  0.00  0.00    +0.163 HD
ATOM      6  H   UNL     1      17.731   3.220  12.198  0.00  0.00    +0.159 HD
ATOM      7  H   UNL     1      19.294   3.629  11.598  0.00  0.00    +0.159 HD
ATOM      8  H   UNL     1      17.432   5.947  14.414  0.00  0.00    +0.159 HD
ATOM      9  H   UNL     1      16.680   4.531  13.791  0.00  0.00    +0.159 HD
ENDROOT
BRANCH   1  10
ATOM     10  C   UNL     1      19.708   6.963  13.794  0.00  0.00    +0.151 C 
BRANCH  10  11
ATOM     11  C   UNL     1      21.048   7.599  13.547  0.00  0.00    -0.028 A 
ATOM     12  C   UNL     1      21.903   7.095  12.556  0.00  0.00    +0.005 A 
ATOM     13  C   UNL     1      21.466   8.710  14.296  0.00  0.00    +0.005 A 
ATOM     14  C   UNL     1      23.135   7.704  12.305  0.00  0.00    +0.000 A 
ATOM     15  C   UNL     1      22.697   9.314  14.043  0.00  0.00    +0.000 A 
ATOM     16  C   UNL     1      23.530   8.813  13.046  0.00  0.00    +0.000 A 
ENDBRANCH  10  11
ENDBRANCH   1  10
TORSDOF 2
ENDMDL
MODEL 4
REMARK VINA RESULT:    -4.406     13.745     14.435
REMARK INTER + INTRA:          -5.045
REMARK INTER:                  -4.887
REMARK INTRA:                  -0.157
REMARK UNBOUND:                -0.123
REMARK  Name = 1550473
REMARK  2 active torsions:
REMARK  status: ('A' for Active; 'I' for Inactive)
REMARK    1  A    between atoms: N_1  and  C_4
REMARK    2  A    between atoms: C_4  and  C_5
REMARK                            x       y       z     vdW  Elec       q    Type
REMARK                         _______ _______ _______ _____ _____    ______ ____
ROOT
ATOM      1  N   UNL     1      22.522   6.384  11.645  0.00  0.00    -0.354 N 
ATOM      2  N   UNL     1      24.171   4.790  11.326  0.00  0.00    -0.372 N 
ATOM      3  N   UNL     1      24.325   6.200  13.130  0.00  0.00    -0.372 N 
ATOM      4  C   UNL     1      23.663   5.803  12.038  0.00  0.00    +0.166 C 
ATOM      5  H   UNL     1      22.084   6.056  10.791  0.00  0.00    +0.163 HD
ATOM      6  H   UNL     1      25.029   4.330  11.600  0.00  0.00    +0.159 HD
ATOM      7  H   UNL     1      23.708   4.434  10.499  0.00  0.00    +0.159 HD
ATOM      8  H   UNL     1      23.997   6.963  13.707  0.00  0.00    +0.159 HD
ATOM      9  H   UNL     1      25.191   5.760  13.414  0.00  0.00    +0.159 HD
ENDROOT
BRANCH   1  10
ATOM     10  C   UNL     1      21.856   7.459  12.378  0.00  0.00    +0.151 C 
BRANCH  10  11
ATOM     11  C   UNL     1      20.565   6.939  12.947  0.00  0.00    -0.028 A 
ATOM     12  C   UNL     1      19.509   6.575  12.099  0.00  0.00    +0.005 A 
ATOM     13  C   UNL     1      20.393   6.803  14.334  0.00  0.00    +0.005 A 
ATOM     14  C   UNL     1      18.320   6.064  12.626  0.00  0.00    +0.000 A 
ATOM     15  C   UNL     1      19.204   6.293  14.855  0.00  0.00    +0.000 A 
ATOM     16  C   UNL     1      18.169   5.921  14.001  0.00  0.00    +0.000 A 
ENDBRANCH  10  11
ENDBRANCH   1  10
TORSDOF 2
ENDMDL
MODEL 5
REMARK VINA RESULT:    -4.309     13.872     14.535
REMARK INTER + INTRA:          -4.936
REMARK INTER:                  -4.768
REMARK INTRA:                  -0.167
REMARK UNBOUND:                -0.123
REMARK  Name = 1550473
REMARK  2 active torsions:
REMARK  status: ('A' for Active; 'I' for Inactive)
REMARK    1  A    between atoms: N_1  and  C_4
REMARK    2  A    between atoms: C_4  and  C_5
REMARK                            x       y       z     vdW  Elec       q    Type
REMARK                         _______ _______ _______ _____ _____    ______ ____
ROOT
ATOM      1  N   UNL     1      21.517   5.739  11.666  0.00  0.00    -0.354 N 
ATOM      2  N   UNL     1      22.354   3.582  11.556  0.00  0.00    -0.372 N 
ATOM      3  N   UNL     1      20.814   4.093  13.179  0.00  0.00    -0.372 N 
ATOM      4  C   UNL     1      21.555   4.485  12.136  0.00  0.00    +0.166 C 
ATOM      5  H   UNL     1      22.125   5.981  10.892  0.00  0.00    +0.163 HD
ATOM      6  H   UNL     1      22.400   2.628  11.887  0.00  0.00    +0.159 HD
ATOM      7  H   UNL     1      22.926   3.814  10.753  0.00  0.00    +0.159 HD
ATOM      8  H   UNL     1      20.195   4.728  13.665  0.00  0.00    +0.159 HD
ATOM      9  H   UNL     1      20.856   3.145  13.532  0.00  0.00    +0.159 HD
ENDROOT
BRANCH   1  10
ATOM     10  C   UNL     1      20.642   6.784  12.192  0.00  0.00    +0.151 C 
BRANCH  10  11
ATOM     11  C   UNL     1      21.445   7.698  13.076  0.00  0.00    -0.028 A 
ATOM     12  C   UNL     1      22.727   8.115  12.691  0.00  0.00    +0.005 A 
ATOM     13  C   UNL     1      20.926   8.156  14.297  0.00  0.00    +0.005 A 
ATOM     14  C   UNL     1      23.461   8.988  13.498  0.00  0.00    +0.000 A 
ATOM     15  C   UNL     1      21.663   9.027  15.100  0.00  0.00    +0.000 A 
ATOM     16  C   UNL     1      22.929   9.445  14.699  0.00  0.00    +0.000 A 
ENDBRANCH  10  11
ENDBRANCH   1  10
TORSDOF 2
ENDMDL
MODEL 6
REMARK VINA RESULT:    -4.304     49.381     50.167
REMARK INTER + INTRA:          -4.930
REMARK INTER:                  -4.812
REMARK INTRA:                  -0.118
REMARK UNBOUND:                -0.123
REMARK  Name = 1550473
REMARK  2 active torsions:
REMARK  status: ('A' for Active; 'I' for Inactive)
REMARK    1  A    between atoms: N_1  and  C_4
REMARK    2  A    between atoms: C_4  and  C_5
REMARK                            x       y       z     vdW  Elec       q    Type
REMARK                         _______ _______ _______ _____ _____    ______ ____
ROOT
ATOM      1  N   UNL     1      16.069   5.747  53.288  0.00  0.00    -0.354 N 
ATOM      2  N   UNL     1      15.088   7.838  53.114  0.00  0.00    -0.372 N 
ATOM      3  N   UNL     1      13.842   5.982  52.596  0.00  0.00    -0.372 N 
ATOM      4  C   UNL     1      15.004   6.507  53.000  0.00  0.00    +0.166 C 
ATOM      5  H   UNL     1      16.930   6.208  53.560  0.00  0.00    +0.163 HD
ATOM      6  H   UNL     1      14.300   8.437  52.907  0.00  0.00    +0.159 HD
ATOM      7  H   UNL     1      15.936   8.293  53.430  0.00  0.00    +0.159 HD
ATOM      8  H   UNL     1      13.715   4.985  52.484  0.00  0.00    +0.159 HD
ATOM      9  H   UNL     1      13.046   6.566  52.373  0.00  0.00    +0.159 HD
ENDROOT
BRANCH   1  10
ATOM     10  C   UNL     1      16.065   4.286  53.248  0.00  0.00    +0.151 C 
BRANCH  10  11
ATOM     11  C   UNL     1      17.485   3.792  53.214  0.00  0.00    -0.028 A 
ATOM     12  C   UNL     1      18.523   4.570  53.748  0.00  0.00    +0.005 A 
ATOM     13  C   UNL     1      17.799   2.544  52.654  0.00  0.00    +0.005 A 
ATOM     14  C   UNL     1      19.838   4.099  53.743  0.00  0.00    +0.000 A 
ATOM     15  C   UNL     1      19.114   2.077  52.651  0.00  0.00    +0.000 A 
ATOM     16  C   UNL     1      20.132   2.854  53.198  0.00  0.00    +0.000 A 
ENDBRANCH  10  11
ENDBRANCH   1  10
TORSDOF 2
ENDMDL
MODEL 7
REMARK VINA RESULT:    -4.263      7.792      9.362
REMARK INTER + INTRA:          -4.884
REMARK INTER:                  -4.764
REMARK INTRA:                  -0.120
REMARK UNBOUND:                -0.123
REMARK  Name = 1550473
REMARK  2 active torsions:
REMARK  status: ('A' for Active; 'I' for Inactive)
REMARK    1  A    between atoms: N_1  and  C_4
REMARK    2  A    between atoms: C_4  and  C_5
REMARK                            x       y       z     vdW  Elec       q    Type
REMARK                         _______ _______ _______ _____ _____    ______ ____
ROOT
ATOM      1  N   UNL     1      15.947  20.046   6.796  0.00  0.00    -0.354 N 
ATOM      2  N   UNL     1      14.615  21.760   5.990  0.00  0.00    -0.372 N 
ATOM      3  N   UNL     1      16.176  22.234   7.603  0.00  0.00    -0.372 N 
ATOM      4  C   UNL     1      15.589  21.337   6.804  0.00  0.00    +0.166 C 
ATOM      5  H   UNL     1      15.443  19.410   6.189  0.00  0.00    +0.163 HD
ATOM      6  H   UNL     1      14.325  22.729   5.972  0.00  0.00    +0.159 HD
ATOM      7  H   UNL     1      14.143  21.131   5.351  0.00  0.00    +0.159 HD
ATOM      8  H   UNL     1      16.915  21.977   8.245  0.00  0.00    +0.159 HD
ATOM      9  H   UNL     1      15.893  23.206   7.607  0.00  0.00    +0.159 HD
ENDROOT
BRANCH   1  10
ATOM     10  C   UNL     1      17.033  19.493   7.604  0.00  0.00    +0.151 C 
BRANCH  10  11
ATOM     11  C   UNL     1      17.389  18.129   7.081  0.00  0.00    -0.028 A 
ATOM     12  C   UNL     1      18.624  17.545   7.399  0.00  0.00    +0.005 A 
ATOM     13  C   UNL     1      16.495  17.413   6.271  0.00  0.00    +0.005 A 
ATOM     14  C   UNL     1      18.944  16.266   6.938  0.00  0.00    +0.000 A 
ATOM     15  C   UNL     1      16.818  16.136   5.812  0.00  0.00    +0.000 A 
ATOM     16  C   UNL     1      18.041  15.562   6.148  0.00  0.00    +0.000 A 
ENDBRANCH  10  11
ENDBRANCH   1  10
TORSDOF 2
ENDMDL
MODEL 8
REMARK VINA RESULT:    -4.250      4.130      5.517
REMARK INTER + INTRA:          -4.870
REMARK INTER:                  -4.758
REMARK INTRA:                  -0.111
REMARK UNBOUND:                -0.123
REMARK  Name = 1550473
REMARK  2 active torsions:
REMARK  status: ('A' for Active; 'I' for Inactive)
REMARK    1  A    between atoms: N_1  and  C_4
REMARK    2  A    between atoms: C_4  and  C_5
REMARK                            x       y       z     vdW  Elec       q    Type
REMARK                         _______ _______ _______ _____ _____    ______ ____
ROOT
ATOM      1  N   UNL     1      14.324  16.715   4.713  0.00  0.00    -0.354 N 
ATOM      2  N   UNL     1      14.582  18.670   3.497  0.00  0.00    -0.372 N 
ATOM      3  N   UNL     1      14.972  18.710   5.758  0.00  0.00    -0.372 N 
ATOM      4  C   UNL     1      14.625  18.020   4.667  0.00  0.00    +0.166 C 
ATOM      5  H   UNL     1      14.039  16.256   3.855  0.00  0.00    +0.163 HD
ATOM      6  H   UNL     1      14.807  19.653   3.431  0.00  0.00    +0.159 HD
ATOM      7  H   UNL     1      14.342  18.198   2.634  0.00  0.00    +0.159 HD
ATOM      8  H   UNL     1      15.017  18.280   6.672  0.00  0.00    +0.159 HD
ATOM      9  H   UNL     1      15.189  19.698   5.714  0.00  0.00    +0.159 HD
ENDROOT
BRANCH   1  10
ATOM     10  C   UNL     1      14.392  15.903   5.926  0.00  0.00    +0.151 C 
BRANCH  10  11
ATOM     11  C   UNL     1      13.415  14.766   5.811  0.00  0.00    -0.028 A 
ATOM     12  C   UNL     1      12.598  14.416   6.897  0.00  0.00    +0.005 A 
ATOM     13  C   UNL     1      13.297  14.037   4.618  0.00  0.00    +0.005 A 
ATOM     14  C   UNL     1      11.670  13.379   6.781  0.00  0.00    +0.000 A 
ATOM     15  C   UNL     1      12.369  13.002   4.506  0.00  0.00    +0.000 A 
ATOM     16  C   UNL     1      11.554  12.675   5.587  0.00  0.00    +0.000 A 
ENDBRANCH  10  11
ENDBRANCH   1  10
TORSDOF 2
ENDMDL
MODEL 9
REMARK VINA RESULT:    -4.171      5.050      6.368
REMARK INTER + INTRA:          -4.782
REMARK INTER:                  -4.643
REMARK INTRA:                  -0.139
REMARK UNBOUND:                -0.123
REMARK  Name = 1550473
REMARK  2 active torsions:
REMARK  status: ('A' for Active; 'I' for Inactive)
REMARK    1  A    between atoms: N_1  and  C_4
REMARK    2  A    between atoms: C_4  and  C_5
REMARK                            x       y       z     vdW  Elec       q    Type
REMARK                         _______ _______ _______ _____ _____    ______ ____
ROOT
ATOM      1  N   UNL     1      15.293  17.880   6.108  0.00  0.00    -0.354 N 
ATOM      2  N   UNL     1      14.796  20.130   5.877  0.00  0.00    -0.372 N 
ATOM      3  N   UNL     1      15.759  19.021   4.114  0.00  0.00    -0.372 N 
ATOM      4  C   UNL     1      15.287  18.995   5.365  0.00  0.00    +0.166 C 
ATOM      5  H   UNL     1      14.949  17.934   7.060  0.00  0.00    +0.163 HD
ATOM      6  H   UNL     1      14.775  20.986   5.339  0.00  0.00    +0.159 HD
ATOM      7  H   UNL     1      14.410  20.170   6.813  0.00  0.00    +0.159 HD
ATOM      8  H   UNL     1      16.149  18.199   3.672  0.00  0.00    +0.159 HD
ATOM      9  H   UNL     1      15.757  19.871   3.565  0.00  0.00    +0.159 HD
ENDROOT
BRANCH   1  10
ATOM     10  C   UNL     1      15.756  16.580   5.626  0.00  0.00    +0.151 C 
BRANCH  10  11
ATOM     11  C   UNL     1      14.617  15.600   5.684  0.00  0.00    -0.028 A 
ATOM     12  C   UNL     1      14.303  14.807   4.571  0.00  0.00    +0.005 A 
ATOM     13  C   UNL     1      13.851  15.456   6.851  0.00  0.00    +0.005 A 
ATOM     14  C   UNL     1      13.263  13.876   4.634  0.00  0.00    +0.000 A 
ATOM     15  C   UNL     1      12.814  14.525   6.910  0.00  0.00    +0.000 A 
ATOM     16  C   UNL     1      12.522  13.734   5.802  0.00  0.00    +0.000 A 
ENDBRANCH  10  11
ENDBRANCH   1  10
TORSDOF 2
ENDMDL
