MODEL 1
REMARK VINA RESULT:    -4.674      0.000      0.000
REMARK INTER + INTRA:          -5.401
REMARK INTER:                  -5.221
REMARK INTRA:                  -0.180
REMARK UNBOUND:                -0.180
REMARK  Name = 1550473
REMARK  2 active torsions:
REMARK  status: ('A' for Active; 'I' for Inactive)
REMARK    1  A    between atoms: N_1  and  C_4
REMARK    2  A    between atoms: C_4  and  C_5
REMARK                            x       y       z     vdW  Elec       q    Type
REMARK                         _______ _______ _______ _____ _____    ______ ____
ROOT
ATOM      1  N   UNL     1     -25.497 -58.199 -44.774  0.00  0.00    -0.354 N 
ATOM      2  N   UNL     1     -27.775 -57.800 -44.653  0.00  0.00    -0.372 N 
ATOM      3  N   UNL     1     -27.038 -59.964 -44.847  0.00  0.00    -0.372 N 
ATOM      4  C   UNL     1     -26.755 -58.660 -44.759  0.00  0.00    +0.166 C 
ATOM      5  H   UNL     1     -25.351 -57.197 -44.734  0.00  0.00    +0.163 HD
ATOM      6  H   UNL     1     -28.735 -58.118 -44.635  0.00  0.00    +0.159 HD
ATOM      7  H   UNL     1     -27.625 -56.802 -44.567  0.00  0.00    +0.159 HD
ATOM      8  H   UNL     1     -26.313 -60.664 -44.935  0.00  0.00    +0.159 HD
ATOM      9  H   UNL     1     -27.992 -60.301 -44.843  0.00  0.00    +0.159 HD
ENDROOT
BRANCH   1  10
ATOM     10  C   UNL     1     -24.314 -59.055 -44.832  0.00  0.00    +0.151 C 
BRANCH  10  11
ATOM     11  C   UNL     1     -23.811 -59.102 -46.249  0.00  0.00    -0.028 A 
ATOM     12  C   UNL     1     -24.004 -60.247 -47.036  0.00  0.00    +0.005 A 
ATOM     13  C   UNL     1     -23.145 -58.002 -46.811  0.00  0.00    +0.005 A 
ATOM     14  C   UNL     1     -23.564 -60.279 -48.361  0.00  0.00    +0.000 A 
ATOM     15  C   UNL     1     -22.705 -58.039 -48.135  0.00  0.00    +0.000 A 
ATOM     16  C   UNL     1     -22.917 -59.177 -48.910  0.00  0.00    +0.000 A 
ENDBRANCH  10  11
ENDBRANCH   1  10
TORSDOF 2
ENDMDL
MODEL 2
REMARK VINA RESULT:    -4.532     95.457     96.482
REMARK INTER + INTRA:          -5.243
REMARK INTER:                  -5.098
REMARK INTRA:                  -0.145
REMARK UNBOUND:                -0.180
REMARK  Name = 1550473
REMARK  2 active torsions:
REMARK  status: ('A' for Active; 'I' for Inactive)
REMARK    1  A    between atoms: N_1  and  C_4
REMARK    2  A    between atoms: C_4  and  C_5
REMARK                            x       y       z     vdW  Elec       q    Type
REMARK                         _______ _______ _______ _____ _____    ______ ____
ROOT
ATOM      1  N   UNL     1       8.407  12.854  10.792  0.00  0.00    -0.354 N 
ATOM      2  N   UNL     1      10.072  11.902  12.091  0.00  0.00    -0.372 N 
ATOM      3  N   UNL     1       8.517  13.257  13.098  0.00  0.00    -0.372 N 
ATOM      4  C   UNL     1       8.986  12.679  11.987  0.00  0.00    +0.166 C 
ATOM      5  H   UNL     1       8.829  12.413   9.983  0.00  0.00    +0.163 HD
ATOM      6  H   UNL     1      10.528  11.749  12.980  0.00  0.00    +0.159 HD
ATOM      7  H   UNL     1      10.464  11.426  11.288  0.00  0.00    +0.159 HD
ATOM      8  H   UNL     1       7.705  13.859  13.086  0.00  0.00    +0.159 HD
ATOM      9  H   UNL     1       8.967  13.124  13.995  0.00  0.00    +0.159 HD
ENDROOT
BRANCH   1  10
ATOM     10  C   UNL     1       7.190  13.636  10.579  0.00  0.00    +0.151 C 
BRANCH  10  11
ATOM     11  C   UNL     1       6.136  12.750   9.975  0.00  0.00    -0.028 A 
ATOM     12  C   UNL     1       4.824  13.218   9.807  0.00  0.00    +0.005 A 
ATOM     13  C   UNL     1       6.444  11.445   9.563  0.00  0.00    +0.005 A 
ATOM     14  C   UNL     1       3.852  12.406   9.218  0.00  0.00    +0.000 A 
ATOM     15  C   UNL     1       5.470  10.637   8.976  0.00  0.00    +0.000 A 
ATOM     16  C   UNL     1       4.175  11.119   8.802  0.00  0.00    +0.000 A 
ENDBRANCH  10  11
ENDBRANCH   1  10
TORSDOF 2
ENDMDL
MODEL 3
REMARK VINA RESULT:    -4.385     94.762     95.793
REMARK INTER + INTRA:          -5.078
REMARK INTER:                  -4.980
REMARK INTRA:                  -0.098
REMARK UNBOUND:                -0.180
REMARK  Name = 1550473
REMARK  2 active torsions:
REMARK  status: ('A' for Active; 'I' for Inactive)
REMARK    1  A    between atoms: N_1  and  C_4
REMARK    2  A    between atoms: C_4  and  C_5
REMARK                            x       y       z     vdW  Elec       q    Type
REMARK                         _______ _______ _______ _____ _____    ______ ____
ROOT
ATOM      1  N   UNL     1       8.202  12.015  11.328  0.00  0.00    -0.354 N 
ATOM      2  N   UNL     1       8.086  14.096  12.339  0.00  0.00    -0.372 N 
ATOM      3  N   UNL     1      10.060  12.929  12.425  0.00  0.00    -0.372 N 
ATOM      4  C   UNL     1       8.786  12.999  12.025  0.00  0.00    +0.166 C 
ATOM      5  H   UNL     1       7.224  12.116  11.081  0.00  0.00    +0.163 HD
ATOM      6  H   UNL     1       8.501  14.856  12.861  0.00  0.00    +0.159 HD
ATOM      7  H   UNL     1       7.123  14.214  12.051  0.00  0.00    +0.159 HD
ATOM      8  H   UNL     1      10.641  12.126  12.225  0.00  0.00    +0.159 HD
ATOM      9  H   UNL     1      10.490  13.675  12.958  0.00  0.00    +0.159 HD
ENDROOT
BRANCH   1  10
ATOM     10  C   UNL     1       8.891  10.803  10.889  0.00  0.00    +0.151 C 
BRANCH  10  11
ATOM     11  C   UNL     1       7.876   9.720  10.649  0.00  0.00    -0.028 A 
ATOM     12  C   UNL     1       7.845   8.580  11.465  0.00  0.00    +0.005 A 
ATOM     13  C   UNL     1       6.939   9.831   9.610  0.00  0.00    +0.005 A 
ATOM     14  C   UNL     1       6.883   7.588  11.261  0.00  0.00    +0.000 A 
ATOM     15  C   UNL     1       5.981   8.837   9.409  0.00  0.00    +0.000 A 
ATOM     16  C   UNL     1       5.951   7.717  10.237  0.00  0.00    +0.000 A 
ENDBRANCH  10  11
ENDBRANCH   1  10
TORSDOF 2
ENDMDL
MODEL 4
REMARK VINA RESULT:    -4.273    109.060    110.197
REMARK INTER + INTRA:          -4.953
REMARK INTER:                  -4.859
REMARK INTRA:                  -0.094
REMARK UNBOUND:                -0.180
REMARK  Name = 1550473
REMARK  2 active torsions:
REMARK  status: ('A' for Active; 'I' for Inactive)
REMARK    1  A    between atoms: N_1  and  C_4
REMARK    2  A    between atoms: C_4  and  C_5
REMARK                            x       y       z     vdW  Elec       q    Type
REMARK                         _______ _______ _______ _____ _____    ______ ____
ROOT
ATOM      1  N   UNL     1      -1.425  18.885  30.320  0.00  0.00    -0.354 N 
ATOM      2  N   UNL     1      -1.387  19.851  32.424  0.00  0.00    -0.372 N 
ATOM      3  N   UNL     1      -0.446  20.986  30.665  0.00  0.00    -0.372 N 
ATOM      4  C   UNL     1      -1.085  19.903  31.121  0.00  0.00    +0.166 C 
ATOM      5  H   UNL     1      -1.881  18.079  30.732  0.00  0.00    +0.163 HD
ATOM      6  H   UNL     1      -1.146  20.606  33.053  0.00  0.00    +0.159 HD
ATOM      7  H   UNL     1      -1.883  19.065  32.825  0.00  0.00    +0.159 HD
ATOM      8  H   UNL     1      -0.185  21.083  29.693  0.00  0.00    +0.159 HD
ATOM      9  H   UNL     1      -0.186  21.746  31.281  0.00  0.00    +0.159 HD
ENDROOT
BRANCH   1  10
ATOM     10  C   UNL     1      -1.191  18.866  28.877  0.00  0.00    +0.151 C 
BRANCH  10  11
ATOM     11  C   UNL     1      -2.097  17.846  28.245  0.00  0.00    -0.028 A 
ATOM     12  C   UNL     1      -3.224  18.251  27.514  0.00  0.00    +0.005 A 
ATOM     13  C   UNL     1      -1.833  16.474  28.369  0.00  0.00    +0.005 A 
ATOM     14  C   UNL     1      -4.050  17.305  26.901  0.00  0.00    +0.000 A 
ATOM     15  C   UNL     1      -2.660  15.533  27.757  0.00  0.00    +0.000 A 
ATOM     16  C   UNL     1      -3.767  15.949  27.021  0.00  0.00    +0.000 A 
ENDBRANCH  10  11
ENDBRANCH   1  10
TORSDOF 2
ENDMDL
MODEL 5
REMARK VINA RESULT:    -4.214      1.571      2.376
REMARK INTER + INTRA:          -4.887
REMARK INTER:                  -4.708
REMARK INTRA:                  -0.179
REMARK UNBOUND:                -0.180
REMARK  Name = 1550473
REMARK  2 active torsions:
REMARK  status: ('A' for Active; 'I' for Inactive)
REMARK    1  A    between atoms: N_1  and  C_4
REMARK    2  A    between atoms: C_4  and  C_5
REMARK                            x       y       z     vdW  Elec       q    Type
REMARK                         _______ _______ _______ _____ _____    ______ ____
ROOT
ATOM      1  N   UNL     1     -26.920 -57.845 -46.666  0.00  0.00    -0.354 N 
ATOM      2  N   UNL     1     -28.321 -57.187 -44.943  0.00  0.00    -0.372 N 
ATOM      3  N   UNL     1     -27.957 -59.427 -45.282  0.00  0.00    -0.372 N 
ATOM      4  C   UNL     1     -27.724 -58.160 -45.641  0.00  0.00    +0.166 C 
ATOM      5  H   UNL     1     -26.808 -56.867 -46.907  0.00  0.00    +0.163 HD
ATOM      6  H   UNL     1     -28.930 -57.394 -44.163  0.00  0.00    +0.159 HD
ATOM      7  H   UNL     1     -28.171 -56.208 -45.157  0.00  0.00    +0.159 HD
ATOM      8  H   UNL     1     -27.542 -60.208 -45.772  0.00  0.00    +0.159 HD
ATOM      9  H   UNL     1     -28.573 -59.654 -44.511  0.00  0.00    +0.159 HD
ENDROOT
BRANCH   1  10
ATOM     10  C   UNL     1     -26.180 -58.827 -47.456  0.00  0.00    +0.151 C 
BRANCH  10  11
ATOM     11  C   UNL     1     -24.776 -58.927 -46.926  0.00  0.00    -0.028 A 
ATOM     12  C   UNL     1     -23.815 -57.964 -47.269  0.00  0.00    +0.005 A 
ATOM     13  C   UNL     1     -24.401 -59.979 -46.076  0.00  0.00    +0.005 A 
ATOM     14  C   UNL     1     -22.519 -58.040 -46.753  0.00  0.00    +0.000 A 
ATOM     15  C   UNL     1     -23.106 -60.051 -45.564  0.00  0.00    +0.000 A 
ATOM     16  C   UNL     1     -22.166 -59.080 -45.901  0.00  0.00    +0.000 A 
ENDBRANCH  10  11
ENDBRANCH   1  10
TORSDOF 2
ENDMDL
MODEL 6
REMARK VINA RESULT:    -4.038     93.476     94.510
REMARK INTER + INTRA:          -4.691
REMARK INTER:                  -4.558
REMARK INTRA:                  -0.133
REMARK UNBOUND:                -0.180
REMARK  Name = 1550473
REMARK  2 active torsions:
REMARK  status: ('A' for Active; 'I' for Inactive)
REMARK    1  A    between atoms: N_1  and  C_4
REMARK    2  A    between atoms: C_4  and  C_5
REMARK                            x       y       z     vdW  Elec       q    Type
REMARK                         _______ _______ _______ _____ _____    ______ ____
ROOT
ATOM      1  N   UNL     1       6.446  10.097   8.984  0.00  0.00    -0.354 N 
ATOM      2  N   UNL     1       8.366   8.949   9.585  0.00  0.00    -0.372 N 
ATOM      3  N   UNL     1       6.372   7.816   9.516  0.00  0.00    -0.372 N 
ATOM      4  C   UNL     1       7.047   8.959   9.358  0.00  0.00    +0.166 C 
ATOM      5  H   UNL     1       7.009  10.937   8.911  0.00  0.00    +0.163 HD
ATOM      6  H   UNL     1       8.847   8.105   9.864  0.00  0.00    +0.159 HD
ATOM      7  H   UNL     1       8.933   9.779   9.466  0.00  0.00    +0.159 HD
ATOM      8  H   UNL     1       5.373   7.758   9.366  0.00  0.00    +0.159 HD
ATOM      9  H   UNL     1       6.834   6.963   9.807  0.00  0.00    +0.159 HD
ENDROOT
BRANCH   1  10
ATOM     10  C   UNL     1       5.024  10.203   8.661  0.00  0.00    +0.151 C 
BRANCH  10  11
ATOM     11  C   UNL     1       4.524  11.556   9.086  0.00  0.00    -0.028 A 
ATOM     12  C   UNL     1       3.170  11.892   8.939  0.00  0.00    +0.005 A 
ATOM     13  C   UNL     1       5.397  12.504   9.641  0.00  0.00    +0.005 A 
ATOM     14  C   UNL     1       2.699  13.138   9.361  0.00  0.00    +0.000 A 
ATOM     15  C   UNL     1       4.923  13.746  10.061  0.00  0.00    +0.000 A 
ATOM     16  C   UNL     1       3.573  14.062   9.923  0.00  0.00    +0.000 A 
ENDBRANCH  10  11
ENDBRANCH   1  10
TORSDOF 2
ENDMDL
MODEL 7
REMARK VINA RESULT:    -4.013      1.597      2.367
REMARK INTER + INTRA:          -4.662
REMARK INTER:                  -4.485
REMARK INTRA:                  -0.178
REMARK UNBOUND:                -0.180
REMARK  Name = 1550473
REMARK  2 active torsions:
REMARK  status: ('A' for Active; 'I' for Inactive)
REMARK    1  A    between atoms: N_1  and  C_4
REMARK    2  A    between atoms: C_4  and  C_5
REMARK                            x       y       z     vdW  Elec       q    Type
REMARK                         _______ _______ _______ _____ _____    ______ ____
ROOT
ATOM      1  N   UNL     1     -25.700 -60.151 -46.454  0.00  0.00    -0.354 N 
ATOM      2  N   UNL     1     -27.705 -59.718 -45.379  0.00  0.00    -0.372 N 
ATOM      3  N   UNL     1     -27.383 -58.899 -47.498  0.00  0.00    -0.372 N 
ATOM      4  C   UNL     1     -26.916 -59.590 -46.453  0.00  0.00    +0.166 C 
ATOM      5  H   UNL     1     -25.393 -60.637 -45.619  0.00  0.00    +0.163 HD
ATOM      6  H   UNL     1     -28.629 -59.309 -45.350  0.00  0.00    +0.159 HD
ATOM      7  H   UNL     1     -27.414 -60.243 -44.563  0.00  0.00    +0.159 HD
ATOM      8  H   UNL     1     -26.835 -58.761 -48.336  0.00  0.00    +0.159 HD
ATOM      9  H   UNL     1     -28.301 -58.472 -47.484  0.00  0.00    +0.159 HD
ENDROOT
BRANCH   1  10
ATOM     10  C   UNL     1     -24.784 -60.116 -47.593  0.00  0.00    +0.151 C 
BRANCH  10  11
ATOM     11  C   UNL     1     -23.740 -59.062 -47.352  0.00  0.00    -0.028 A 
ATOM     12  C   UNL     1     -22.897 -59.137 -46.233  0.00  0.00    +0.005 A 
ATOM     13  C   UNL     1     -23.583 -57.988 -48.242  0.00  0.00    +0.005 A 
ATOM     14  C   UNL     1     -21.907 -58.174 -46.025  0.00  0.00    +0.000 A 
ATOM     15  C   UNL     1     -22.594 -57.029 -48.031  0.00  0.00    +0.000 A 
ATOM     16  C   UNL     1     -21.754 -57.123 -46.923  0.00  0.00    +0.000 A 
ENDBRANCH  10  11
ENDBRANCH   1  10
TORSDOF 2
ENDMDL
MODEL 8
REMARK VINA RESULT:    -3.850     51.323     51.791
REMARK INTER + INTRA:          -4.480
REMARK INTER:                  -4.342
REMARK INTRA:                  -0.138
REMARK UNBOUND:                -0.180
REMARK  Name = 1550473
REMARK  2 active torsions:
REMARK  status: ('A' for Active; 'I' for Inactive)
REMARK    1  A    between atoms: N_1  and  C_4
REMARK    2  A    between atoms: C_4  and  C_5
REMARK                            x       y       z     vdW  Elec       q    Type
REMARK                         _______ _______ _______ _____ _____    ______ ____
ROOT
ATOM      1  N   UNL     1      -2.166 -16.347 -26.495  0.00  0.00    -0.354 N 
ATOM      2  N   UNL     1      -0.774 -17.768 -25.310  0.00  0.00    -0.372 N 
ATOM      3  N   UNL     1      -1.237 -18.246 -27.506  0.00  0.00    -0.372 N 
ATOM      4  C   UNL     1      -1.402 -17.446 -26.447  0.00  0.00    +0.166 C 
ATOM      5  H   UNL     1      -2.274 -15.798 -25.649  0.00  0.00    +0.163 HD
ATOM      6  H   UNL     1      -0.187 -18.590 -25.245  0.00  0.00    +0.159 HD
ATOM      7  H   UNL     1      -0.846 -17.193 -24.479  0.00  0.00    +0.159 HD
ATOM      8  H   UNL     1      -1.689 -18.061 -28.392  0.00  0.00    +0.159 HD
ATOM      9  H   UNL     1      -0.664 -19.079 -27.457  0.00  0.00    +0.159 HD
ENDROOT
BRANCH   1  10
ATOM     10  C   UNL     1      -2.849 -15.878 -27.699  0.00  0.00    +0.151 C 
BRANCH  10  11
ATOM     11  C   UNL     1      -4.235 -15.423 -27.332  0.00  0.00    -0.028 A 
ATOM     12  C   UNL     1      -4.906 -14.476 -28.120  0.00  0.00    +0.005 A 
ATOM     13  C   UNL     1      -4.884 -15.938 -26.200  0.00  0.00    +0.005 A 
ATOM     14  C   UNL     1      -6.204 -14.076 -27.796  0.00  0.00    +0.000 A 
ATOM     15  C   UNL     1      -6.181 -15.535 -25.879  0.00  0.00    +0.000 A 
ATOM     16  C   UNL     1      -6.841 -14.606 -26.679  0.00  0.00    +0.000 A 
ENDBRANCH  10  11
ENDBRANCH   1  10
TORSDOF 2
ENDMDL
MODEL 9
REMARK VINA RESULT:    -3.836      2.769      4.836
REMARK INTER + INTRA:          -4.465
REMARK INTER:                  -4.306
REMARK INTRA:                  -0.159
REMARK UNBOUND:                -0.180
REMARK  Name = 1550473
REMARK  2 active torsions:
REMARK  status: ('A' for Active; 'I' for Inactive)
REMARK    1  A    between atoms: N_1  and  C_4
REMARK    2  A    between atoms: C_4  and  C_5
REMARK                            x       y       z     vdW  Elec       q    Type
REMARK                         _______ _______ _______ _____ _____    ______ ____
ROOT
ATOM      1  N   UNL     1     -23.006 -58.192 -47.301  0.00  0.00    -0.354 N 
ATOM      2  N   UNL     1     -21.341 -56.582 -47.331  0.00  0.00    -0.372 N 
ATOM      3  N   UNL     1     -23.003 -56.488 -48.910  0.00  0.00    -0.372 N 
ATOM      4  C   UNL     1     -22.462 -57.097 -47.850  0.00  0.00    +0.166 C 
ATOM      5  H   UNL     1     -22.531 -58.624 -46.517  0.00  0.00    +0.163 HD
ATOM      6  H   UNL     1     -20.910 -55.755 -47.721  0.00  0.00    +0.159 HD
ATOM      7  H   UNL     1     -20.894 -56.989 -46.518  0.00  0.00    +0.159 HD
ATOM      8  H   UNL     1     -23.845 -56.830 -49.353  0.00  0.00    +0.159 HD
ATOM      9  H   UNL     1     -22.579 -55.666 -49.322  0.00  0.00    +0.159 HD
ENDROOT
BRANCH   1  10
ATOM     10  C   UNL     1     -24.254 -58.800 -47.757  0.00  0.00    +0.151 C 
BRANCH  10  11
ATOM     11  C   UNL     1     -25.329 -58.538 -46.739  0.00  0.00    -0.028 A 
ATOM     12  C   UNL     1     -26.582 -58.047 -47.136  0.00  0.00    +0.005 A 
ATOM     13  C   UNL     1     -25.104 -58.783 -45.376  0.00  0.00    +0.005 A 
ATOM     14  C   UNL     1     -27.591 -57.831 -46.194  0.00  0.00    +0.000 A 
ATOM     15  C   UNL     1     -26.113 -58.565 -44.438  0.00  0.00    +0.000 A 
ATOM     16  C   UNL     1     -27.357 -58.092 -44.848  0.00  0.00    +0.000 A 
ENDBRANCH  10  11
ENDBRANCH   1  10
TORSDOF 2
ENDMDL
