MODEL 1
REMARK VINA RESULT:    -5.370      0.000      0.000
REMARK INTER + INTRA:          -6.180
REMARK INTER:                  -5.998
REMARK INTRA:                  -0.182
REMARK UNBOUND:                -0.182
REMARK  Name = 1550473
REMARK  2 active torsions:
REMARK  status: ('A' for Active; 'I' for Inactive)
REMARK    1  A    between atoms: N_1  and  C_4
REMARK    2  A    between atoms: C_4  and  C_5
REMARK                            x       y       z     vdW  Elec       q    Type
REMARK                         _______ _______ _______ _____ _____    ______ ____
ROOT
ATOM      1  N   UNL     1      -2.086  -5.082  13.167  0.00  0.00    -0.354 N 
ATOM      2  N   UNL     1      -2.431  -3.172  11.903  0.00  0.00    -0.372 N 
ATOM      3  N   UNL     1      -0.385  -3.495  12.889  0.00  0.00    -0.372 N 
ATOM      4  C   UNL     1      -1.629  -3.928  12.662  0.00  0.00    +0.166 C 
ATOM      5  H   UNL     1      -3.049  -5.340  12.983  0.00  0.00    +0.163 HD
ATOM      6  H   UNL     1      -2.113  -2.298  11.506  0.00  0.00    +0.159 HD
ATOM      7  H   UNL     1      -3.378  -3.454  11.683  0.00  0.00    +0.159 HD
ATOM      8  H   UNL     1       0.268  -4.016  13.459  0.00  0.00    +0.159 HD
ATOM      9  H   UNL     1      -0.051  -2.617  12.510  0.00  0.00    +0.159 HD
ENDROOT
BRANCH   1  10
ATOM     10  C   UNL     1      -1.277  -6.005  13.961  0.00  0.00    +0.151 C 
BRANCH  10  11
ATOM     11  C   UNL     1      -0.761  -7.099  13.067  0.00  0.00    -0.028 A 
ATOM     12  C   UNL     1       0.578  -7.104  12.649  0.00  0.00    +0.005 A 
ATOM     13  C   UNL     1      -1.604  -8.136  12.641  0.00  0.00    +0.005 A 
ATOM     14  C   UNL     1       1.066  -8.136  11.844  0.00  0.00    +0.000 A 
ATOM     15  C   UNL     1      -1.113  -9.165  11.836  0.00  0.00    +0.000 A 
ATOM     16  C   UNL     1       0.222  -9.165  11.440  0.00  0.00    +0.000 A 
ENDBRANCH  10  11
ENDBRANCH   1  10
TORSDOF 2
ENDMDL
MODEL 2
REMARK VINA RESULT:    -5.112     15.869     16.677
REMARK INTER + INTRA:          -5.892
REMARK INTER:                  -5.756
REMARK INTRA:                  -0.135
REMARK UNBOUND:                -0.182
REMARK  Name = 1550473
REMARK  2 active torsions:
REMARK  status: ('A' for Active; 'I' for Inactive)
REMARK    1  A    between atoms: N_1  and  C_4
REMARK    2  A    between atoms: C_4  and  C_5
REMARK                            x       y       z     vdW  Elec       q    Type
REMARK                         _______ _______ _______ _____ _____    ______ ____
ROOT
ATOM      1  N   UNL     1      -4.816  -1.511  -1.263  0.00  0.00    -0.354 N 
ATOM      2  N   UNL     1      -3.248  -1.544   0.441  0.00  0.00    -0.372 N 
ATOM      3  N   UNL     1      -5.219  -2.685   0.725  0.00  0.00    -0.372 N 
ATOM      4  C   UNL     1      -4.440  -1.915  -0.042  0.00  0.00    +0.166 C 
ATOM      5  H   UNL     1      -4.193  -0.903  -1.782  0.00  0.00    +0.163 HD
ATOM      6  H   UNL     1      -2.936  -1.836   1.358  0.00  0.00    +0.159 HD
ATOM      7  H   UNL     1      -2.608  -0.975  -0.098  0.00  0.00    +0.159 HD
ATOM      8  H   UNL     1      -6.133  -2.994   0.420  0.00  0.00    +0.159 HD
ATOM      9  H   UNL     1      -4.929  -2.978   1.649  0.00  0.00    +0.159 HD
ENDROOT
BRANCH   1  10
ATOM     10  C   UNL     1      -6.071  -1.903  -1.904  0.00  0.00    +0.151 C 
BRANCH  10  11
ATOM     11  C   UNL     1      -5.792  -2.300  -3.327  0.00  0.00    -0.028 A 
ATOM     12  C   UNL     1      -4.622  -1.870  -3.970  0.00  0.00    +0.005 A 
ATOM     13  C   UNL     1      -6.691  -3.111  -4.036  0.00  0.00    +0.005 A 
ATOM     14  C   UNL     1      -4.349  -2.264  -5.283  0.00  0.00    +0.000 A 
ATOM     15  C   UNL     1      -6.415  -3.501  -5.346  0.00  0.00    +0.000 A 
ATOM     16  C   UNL     1      -5.242  -3.080  -5.968  0.00  0.00    +0.000 A 
ENDBRANCH  10  11
ENDBRANCH   1  10
TORSDOF 2
ENDMDL
MODEL 3
REMARK VINA RESULT:    -5.090     17.663     18.374
REMARK INTER + INTRA:          -5.868
REMARK INTER:                  -5.749
REMARK INTRA:                  -0.119
REMARK UNBOUND:                -0.182
REMARK  Name = 1550473
REMARK  2 active torsions:
REMARK  status: ('A' for Active; 'I' for Inactive)
REMARK    1  A    between atoms: N_1  and  C_4
REMARK    2  A    between atoms: C_4  and  C_5
REMARK                            x       y       z     vdW  Elec       q    Type
REMARK                         _______ _______ _______ _____ _____    ______ ____
ROOT
ATOM      1  N   UNL     1      -5.667  -2.611  -3.019  0.00  0.00    -0.354 N 
ATOM      2  N   UNL     1      -6.748  -2.707  -0.973  0.00  0.00    -0.372 N 
ATOM      3  N   UNL     1      -5.040  -1.201  -1.255  0.00  0.00    -0.372 N 
ATOM      4  C   UNL     1      -5.809  -2.170  -1.762  0.00  0.00    +0.166 C 
ATOM      5  H   UNL     1      -6.262  -3.369  -3.334  0.00  0.00    +0.163 HD
ATOM      6  H   UNL     1      -6.881  -2.392  -0.021  0.00  0.00    +0.159 HD
ATOM      7  H   UNL     1      -7.372  -3.432  -1.305  0.00  0.00    +0.159 HD
ATOM      8  H   UNL     1      -4.309  -0.760  -1.797  0.00  0.00    +0.159 HD
ATOM      9  H   UNL     1      -5.149  -0.882  -0.301  0.00  0.00    +0.159 HD
ENDROOT
BRANCH   1  10
ATOM     10  C   UNL     1      -4.711  -2.057  -3.977  0.00  0.00    +0.151 C 
BRANCH  10  11
ATOM     11  C   UNL     1      -4.948  -2.680  -5.324  0.00  0.00    -0.028 A 
ATOM     12  C   UNL     1      -6.215  -3.175  -5.667  0.00  0.00    +0.005 A 
ATOM     13  C   UNL     1      -3.911  -2.775  -6.265  0.00  0.00    +0.005 A 
ATOM     14  C   UNL     1      -6.443  -3.727  -6.930  0.00  0.00    +0.000 A 
ATOM     15  C   UNL     1      -4.143  -3.328  -7.525  0.00  0.00    +0.000 A 
ATOM     16  C   UNL     1      -5.410  -3.801  -7.857  0.00  0.00    +0.000 A 
ENDBRANCH  10  11
ENDBRANCH   1  10
TORSDOF 2
ENDMDL
MODEL 4
REMARK VINA RESULT:    -4.834     12.469     13.321
REMARK INTER + INTRA:          -5.582
REMARK INTER:                  -5.410
REMARK INTRA:                  -0.172
REMARK UNBOUND:                -0.182
REMARK  Name = 1550473
REMARK  2 active torsions:
REMARK  status: ('A' for Active; 'I' for Inactive)
REMARK    1  A    between atoms: N_1  and  C_4
REMARK    2  A    between atoms: C_4  and  C_5
REMARK                            x       y       z     vdW  Elec       q    Type
REMARK                         _______ _______ _______ _____ _____    ______ ____
ROOT
ATOM      1  N   UNL     1      -6.455  -5.767  -0.569  0.00  0.00    -0.354 N 
ATOM      2  N   UNL     1      -5.462  -5.661  -2.658  0.00  0.00    -0.372 N 
ATOM      3  N   UNL     1      -6.503  -3.792  -1.829  0.00  0.00    -0.372 N 
ATOM      4  C   UNL     1      -6.148  -5.071  -1.671  0.00  0.00    +0.166 C 
ATOM      5  H   UNL     1      -6.183  -6.742  -0.523  0.00  0.00    +0.163 HD
ATOM      6  H   UNL     1      -5.213  -5.160  -3.501  0.00  0.00    +0.159 HD
ATOM      7  H   UNL     1      -5.152  -6.623  -2.591  0.00  0.00    +0.159 HD
ATOM      8  H   UNL     1      -7.027  -3.291  -1.124  0.00  0.00    +0.159 HD
ATOM      9  H   UNL     1      -6.273  -3.277  -2.670  0.00  0.00    +0.159 HD
ENDROOT
BRANCH   1  10
ATOM     10  C   UNL     1      -7.152  -5.203   0.586  0.00  0.00    +0.151 C 
BRANCH  10  11
ATOM     11  C   UNL     1      -6.138  -4.764   1.606  0.00  0.00    -0.028 A 
ATOM     12  C   UNL     1      -6.235  -3.502   2.210  0.00  0.00    +0.005 A 
ATOM     13  C   UNL     1      -5.079  -5.608   1.976  0.00  0.00    +0.005 A 
ATOM     14  C   UNL     1      -5.311  -3.106   3.179  0.00  0.00    +0.000 A 
ATOM     15  C   UNL     1      -4.158  -5.208   2.944  0.00  0.00    +0.000 A 
ATOM     16  C   UNL     1      -4.275  -3.958   3.547  0.00  0.00    +0.000 A 
ENDBRANCH  10  11
ENDBRANCH   1  10
TORSDOF 2
ENDMDL
MODEL 5
REMARK VINA RESULT:    -4.819     22.130     23.273
REMARK INTER + INTRA:          -5.564
REMARK INTER:                  -5.424
REMARK INTRA:                  -0.140
REMARK UNBOUND:                -0.182
REMARK  Name = 1550473
REMARK  2 active torsions:
REMARK  status: ('A' for Active; 'I' for Inactive)
REMARK    1  A    between atoms: N_1  and  C_4
REMARK    2  A    between atoms: C_4  and  C_5
REMARK                            x       y       z     vdW  Elec       q    Type
REMARK                         _______ _______ _______ _____ _____    ______ ____
ROOT
ATOM      1  N   UNL     1      -1.833 -12.270  -7.944  0.00  0.00    -0.354 N 
ATOM      2  N   UNL     1      -1.937 -12.652  -5.662  0.00  0.00    -0.372 N 
ATOM      3  N   UNL     1      -0.150 -13.473  -6.844  0.00  0.00    -0.372 N 
ATOM      4  C   UNL     1      -1.304 -12.797  -6.832  0.00  0.00    +0.166 C 
ATOM      5  H   UNL     1      -2.726 -11.794  -7.873  0.00  0.00    +0.163 HD
ATOM      6  H   UNL     1      -1.560 -13.036  -4.806  0.00  0.00    +0.159 HD
ATOM      7  H   UNL     1      -2.805 -12.137  -5.586  0.00  0.00    +0.159 HD
ATOM      8  H   UNL     1       0.374 -13.623  -7.696  0.00  0.00    +0.159 HD
ATOM      9  H   UNL     1       0.238 -13.876  -6.000  0.00  0.00    +0.159 HD
ENDROOT
BRANCH   1  10
ATOM     10  C   UNL     1      -1.197 -12.325  -9.259  0.00  0.00    +0.151 C 
BRANCH  10  11
ATOM     11  C   UNL     1      -2.200 -12.809 -10.270  0.00  0.00    -0.028 A 
ATOM     12  C   UNL     1      -3.281 -13.609  -9.873  0.00  0.00    +0.005 A 
ATOM     13  C   UNL     1      -2.077 -12.467 -11.625  0.00  0.00    +0.005 A 
ATOM     14  C   UNL     1      -4.229 -14.035 -10.806  0.00  0.00    +0.000 A 
ATOM     15  C   UNL     1      -3.026 -12.894 -12.554  0.00  0.00    +0.000 A 
ATOM     16  C   UNL     1      -4.103 -13.676 -12.144  0.00  0.00    +0.000 A 
ENDBRANCH  10  11
ENDBRANCH   1  10
TORSDOF 2
ENDMDL
MODEL 6
REMARK VINA RESULT:    -4.810     33.987     35.128
REMARK INTER + INTRA:          -5.555
REMARK INTER:                  -5.442
REMARK INTRA:                  -0.113
REMARK UNBOUND:                -0.182
REMARK  Name = 1550473
REMARK  2 active torsions:
REMARK  status: ('A' for Active; 'I' for Inactive)
REMARK    1  A    between atoms: N_1  and  C_4
REMARK    2  A    between atoms: C_4  and  C_5
REMARK                            x       y       z     vdW  Elec       q    Type
REMARK                         _______ _______ _______ _____ _____    ______ ____
ROOT
ATOM      1  N   UNL     1     -10.959 -16.494 -19.208  0.00  0.00    -0.354 N 
ATOM      2  N   UNL     1     -10.028 -14.409 -18.820  0.00  0.00    -0.372 N 
ATOM      3  N   UNL     1     -11.963 -14.980 -17.727  0.00  0.00    -0.372 N 
ATOM      4  C   UNL     1     -10.992 -15.308 -18.586  0.00  0.00    +0.166 C 
ATOM      5  H   UNL     1     -10.212 -16.670 -19.870  0.00  0.00    +0.163 HD
ATOM      6  H   UNL     1     -10.025 -13.507 -18.363  0.00  0.00    +0.159 HD
ATOM      7  H   UNL     1      -9.258 -14.605 -19.448  0.00  0.00    +0.159 HD
ATOM      8  H   UNL     1     -12.723 -15.612 -17.512  0.00  0.00    +0.159 HD
ATOM      9  H   UNL     1     -11.983 -14.078 -17.269  0.00  0.00    +0.159 HD
ENDROOT
BRANCH   1  10
ATOM     10  C   UNL     1     -11.930 -17.563 -18.982  0.00  0.00    +0.151 C 
BRANCH  10  11
ATOM     11  C   UNL     1     -11.234 -18.891 -19.091  0.00  0.00    -0.028 A 
ATOM     12  C   UNL     1     -11.493 -19.909 -18.162  0.00  0.00    +0.005 A 
ATOM     13  C   UNL     1     -10.317 -19.140 -20.124  0.00  0.00    +0.005 A 
ATOM     14  C   UNL     1     -10.869 -21.153 -18.279  0.00  0.00    +0.000 A 
ATOM     15  C   UNL     1      -9.695 -20.383 -20.237  0.00  0.00    +0.000 A 
ATOM     16  C   UNL     1      -9.973 -21.390 -19.317  0.00  0.00    +0.000 A 
ENDBRANCH  10  11
ENDBRANCH   1  10
TORSDOF 2
ENDMDL
MODEL 7
REMARK VINA RESULT:    -4.752     23.772     24.686
REMARK INTER + INTRA:          -5.490
REMARK INTER:                  -5.356
REMARK INTRA:                  -0.134
REMARK UNBOUND:                -0.182
REMARK  Name = 1550473
REMARK  2 active torsions:
REMARK  status: ('A' for Active; 'I' for Inactive)
REMARK    1  A    between atoms: N_1  and  C_4
REMARK    2  A    between atoms: C_4  and  C_5
REMARK                            x       y       z     vdW  Elec       q    Type
REMARK                         _______ _______ _______ _____ _____    ______ ____
ROOT
ATOM      1  N   UNL     1       2.981  -5.317 -13.166  0.00  0.00    -0.354 N 
ATOM      2  N   UNL     1       3.970  -6.025 -15.137  0.00  0.00    -0.372 N 
ATOM      3  N   UNL     1       1.695  -6.217 -14.906  0.00  0.00    -0.372 N 
ATOM      4  C   UNL     1       2.873  -5.849 -14.391  0.00  0.00    +0.166 C 
ATOM      5  H   UNL     1       3.906  -5.087 -12.821  0.00  0.00    +0.163 HD
ATOM      6  H   UNL     1       3.919  -6.421 -16.066  0.00  0.00    +0.159 HD
ATOM      7  H   UNL     1       4.888  -5.752 -14.808  0.00  0.00    +0.159 HD
ATOM      8  H   UNL     1       0.830  -6.116 -14.392  0.00  0.00    +0.159 HD
ATOM      9  H   UNL     1       1.625  -6.626 -15.830  0.00  0.00    +0.159 HD
ENDROOT
BRANCH   1  10
ATOM     10  C   UNL     1       1.842  -5.034 -12.294  0.00  0.00    +0.151 C 
BRANCH  10  11
ATOM     11  C   UNL     1       2.231  -5.322 -10.870  0.00  0.00    -0.028 A 
ATOM     12  C   UNL     1       1.585  -4.670  -9.810  0.00  0.00    +0.005 A 
ATOM     13  C   UNL     1       3.240  -6.252 -10.574  0.00  0.00    +0.005 A 
ATOM     14  C   UNL     1       1.924  -4.960  -8.486  0.00  0.00    +0.000 A 
ATOM     15  C   UNL     1       3.577  -6.538  -9.251  0.00  0.00    +0.000 A 
ATOM     16  C   UNL     1       2.917  -5.893  -8.207  0.00  0.00    +0.000 A 
ENDBRANCH  10  11
ENDBRANCH   1  10
TORSDOF 2
ENDMDL
MODEL 8
REMARK VINA RESULT:    -4.717     21.618     22.502
REMARK INTER + INTRA:          -5.450
REMARK INTER:                  -5.373
REMARK INTRA:                  -0.077
REMARK UNBOUND:                -0.182
REMARK  Name = 1550473
REMARK  2 active torsions:
REMARK  status: ('A' for Active; 'I' for Inactive)
REMARK    1  A    between atoms: N_1  and  C_4
REMARK    2  A    between atoms: C_4  and  C_5
REMARK                            x       y       z     vdW  Elec       q    Type
REMARK                         _______ _______ _______ _____ _____    ______ ____
ROOT
ATOM      1  N   UNL     1       2.167  -6.377  -7.463  0.00  0.00    -0.354 N 
ATOM      2  N   UNL     1       4.110  -6.061  -6.241  0.00  0.00    -0.372 N 
ATOM      3  N   UNL     1       4.127  -7.550  -7.987  0.00  0.00    -0.372 N 
ATOM      4  C   UNL     1       3.456  -6.667  -7.240  0.00  0.00    +0.166 C 
ATOM      5  H   UNL     1       1.707  -5.721  -6.842  0.00  0.00    +0.163 HD
ATOM      6  H   UNL     1       5.083  -6.257  -6.052  0.00  0.00    +0.159 HD
ATOM      7  H   UNL     1       3.660  -5.371  -5.651  0.00  0.00    +0.159 HD
ATOM      8  H   UNL     1       3.689  -8.046  -8.752  0.00  0.00    +0.159 HD
ATOM      9  H   UNL     1       5.098  -7.769  -7.805  0.00  0.00    +0.159 HD
ENDROOT
BRANCH   1  10
ATOM     10  C   UNL     1       1.379  -6.941  -8.557  0.00  0.00    +0.151 C 
BRANCH  10  11
ATOM     11  C   UNL     1       1.612  -6.127  -9.800  0.00  0.00    -0.028 A 
ATOM     12  C   UNL     1       1.075  -4.836  -9.916  0.00  0.00    +0.005 A 
ATOM     13  C   UNL     1       2.373  -6.638 -10.862  0.00  0.00    +0.005 A 
ATOM     14  C   UNL     1       1.316  -4.068 -11.058  0.00  0.00    +0.000 A 
ATOM     15  C   UNL     1       2.610  -5.868 -12.001  0.00  0.00    +0.000 A 
ATOM     16  C   UNL     1       2.084  -4.582 -12.097  0.00  0.00    +0.000 A 
ENDBRANCH  10  11
ENDBRANCH   1  10
TORSDOF 2
ENDMDL
MODEL 9
REMARK VINA RESULT:    -4.675     13.116     14.155
REMARK INTER + INTRA:          -5.404
REMARK INTER:                  -5.319
REMARK INTRA:                  -0.085
REMARK UNBOUND:                -0.182
REMARK  Name = 1550473
REMARK  2 active torsions:
REMARK  status: ('A' for Active; 'I' for Inactive)
REMARK    1  A    between atoms: N_1  and  C_4
REMARK    2  A    between atoms: C_4  and  C_5
REMARK                            x       y       z     vdW  Elec       q    Type
REMARK                         _______ _______ _______ _____ _____    ______ ____
ROOT
ATOM      1  N   UNL     1      -3.477  -3.622  -1.596  0.00  0.00    -0.354 N 
ATOM      2  N   UNL     1      -1.306  -3.002  -2.114  0.00  0.00    -0.372 N 
ATOM      3  N   UNL     1      -3.007  -1.511  -2.499  0.00  0.00    -0.372 N 
ATOM      4  C   UNL     1      -2.612  -2.713  -2.067  0.00  0.00    +0.166 C 
ATOM      5  H   UNL     1      -3.118  -4.526  -1.312  0.00  0.00    +0.163 HD
ATOM      6  H   UNL     1      -0.630  -2.336  -2.461  0.00  0.00    +0.159 HD
ATOM      7  H   UNL     1      -0.945  -3.890  -1.786  0.00  0.00    +0.159 HD
ATOM      8  H   UNL     1      -3.980  -1.234  -2.496  0.00  0.00    +0.159 HD
ATOM      9  H   UNL     1      -2.347  -0.835  -2.861  0.00  0.00    +0.159 HD
ENDROOT
BRANCH   1  10
ATOM     10  C   UNL     1      -4.913  -3.387  -1.452  0.00  0.00    +0.151 C 
BRANCH  10  11
ATOM     11  C   UNL     1      -5.259  -3.334   0.010  0.00  0.00    -0.028 A 
ATOM     12  C   UNL     1      -6.467  -3.873   0.476  0.00  0.00    +0.005 A 
ATOM     13  C   UNL     1      -4.380  -2.752   0.936  0.00  0.00    +0.005 A 
ATOM     14  C   UNL     1      -6.775  -3.852   1.838  0.00  0.00    +0.000 A 
ATOM     15  C   UNL     1      -4.691  -2.731   2.295  0.00  0.00    +0.000 A 
ATOM     16  C   UNL     1      -5.888  -3.284   2.746  0.00  0.00    +0.000 A 
ENDBRANCH  10  11
ENDBRANCH   1  10
TORSDOF 2
ENDMDL
