MODEL 1
REMARK VINA RESULT:    -6.766      0.000      0.000
REMARK INTER + INTRA:          -7.700
REMARK INTER:                  -7.557
REMARK INTRA:                  -0.143
REMARK UNBOUND:                -0.143
REMARK  Name = 1550473
REMARK  2 active torsions:
REMARK  status: ('A' for Active; 'I' for Inactive)
REMARK    1  A    between atoms: N_1  and  C_4
REMARK    2  A    between atoms: C_4  and  C_5
REMARK                            x       y       z     vdW  Elec       q    Type
REMARK                         _______ _______ _______ _____ _____    ______ ____
ROOT
ATOM      1  N   UNL     1      -6.789  -1.103 -18.711  0.00  0.00    -0.354 N 
ATOM      2  N   UNL     1      -5.073  -1.699 -20.147  0.00  0.00    -0.372 N 
ATOM      3  N   UNL     1      -7.242  -2.069 -20.797  0.00  0.00    -0.372 N 
ATOM      4  C   UNL     1      -6.382  -1.621 -19.877  0.00  0.00    +0.166 C 
ATOM      5  H   UNL     1      -6.086  -0.808 -18.043  0.00  0.00    +0.163 HD
ATOM      6  H   UNL     1      -4.736  -2.082 -21.020  0.00  0.00    +0.159 HD
ATOM      7  H   UNL     1      -4.374  -1.362 -19.497  0.00  0.00    +0.159 HD
ATOM      8  H   UNL     1      -8.243  -2.044 -20.652  0.00  0.00    +0.159 HD
ATOM      9  H   UNL     1      -6.924  -2.467 -21.672  0.00  0.00    +0.159 HD
ENDROOT
BRANCH   1  10
ATOM     10  C   UNL     1      -8.192  -0.923 -18.342  0.00  0.00    +0.151 C 
BRANCH  10  11
ATOM     11  C   UNL     1      -8.407  -1.457 -16.953  0.00  0.00    -0.028 A 
ATOM     12  C   UNL     1      -7.342  -2.021 -16.234  0.00  0.00    +0.005 A 
ATOM     13  C   UNL     1      -9.672  -1.398 -16.347  0.00  0.00    +0.005 A 
ATOM     14  C   UNL     1      -7.535  -2.490 -14.932  0.00  0.00    +0.000 A 
ATOM     15  C   UNL     1      -9.860  -1.868 -15.048  0.00  0.00    +0.000 A 
ATOM     16  C   UNL     1      -8.790  -2.412 -14.340  0.00  0.00    +0.000 A 
ENDBRANCH  10  11
ENDBRANCH   1  10
TORSDOF 2
ENDMDL
MODEL 2
REMARK VINA RESULT:    -6.271      0.719      1.772
REMARK INTER + INTRA:          -7.147
REMARK INTER:                  -7.040
REMARK INTRA:                  -0.107
REMARK UNBOUND:                -0.143
REMARK  Name = 1550473
REMARK  2 active torsions:
REMARK  status: ('A' for Active; 'I' for Inactive)
REMARK    1  A    between atoms: N_1  and  C_4
REMARK    2  A    between atoms: C_4  and  C_5
REMARK                            x       y       z     vdW  Elec       q    Type
REMARK                         _______ _______ _______ _____ _____    ______ ____
ROOT
ATOM      1  N   UNL     1      -7.811  -1.447 -19.026  0.00  0.00    -0.354 N 
ATOM      2  N   UNL     1      -6.060  -2.081 -20.403  0.00  0.00    -0.372 N 
ATOM      3  N   UNL     1      -5.931  -0.075 -19.298  0.00  0.00    -0.372 N 
ATOM      4  C   UNL     1      -6.611  -1.194 -19.566  0.00  0.00    +0.166 C 
ATOM      5  H   UNL     1      -8.289  -2.300 -19.293  0.00  0.00    +0.163 HD
ATOM      6  H   UNL     1      -5.155  -1.919 -20.823  0.00  0.00    +0.159 HD
ATOM      7  H   UNL     1      -6.519  -2.954 -20.633  0.00  0.00    +0.159 HD
ATOM      8  H   UNL     1      -6.295   0.638 -18.678  0.00  0.00    +0.159 HD
ATOM      9  H   UNL     1      -5.029   0.111 -19.717  0.00  0.00    +0.159 HD
ENDROOT
BRANCH   1  10
ATOM     10  C   UNL     1      -8.475  -0.572 -18.061  0.00  0.00    +0.151 C 
BRANCH  10  11
ATOM     11  C   UNL     1      -8.506  -1.253 -16.721  0.00  0.00    -0.028 A 
ATOM     12  C   UNL     1      -9.705  -1.351 -16.000  0.00  0.00    +0.005 A 
ATOM     13  C   UNL     1      -7.341  -1.808 -16.169  0.00  0.00    +0.005 A 
ATOM     14  C   UNL     1      -9.741  -2.010 -14.769  0.00  0.00    +0.000 A 
ATOM     15  C   UNL     1      -7.381  -2.465 -14.939  0.00  0.00    +0.000 A 
ATOM     16  C   UNL     1      -8.582  -2.568 -14.240  0.00  0.00    +0.000 A 
ENDBRANCH  10  11
ENDBRANCH   1  10
TORSDOF 2
ENDMDL
MODEL 3
REMARK VINA RESULT:    -5.924     25.840     26.771
REMARK INTER + INTRA:          -6.759
REMARK INTER:                  -6.657
REMARK INTRA:                  -0.102
REMARK UNBOUND:                -0.143
REMARK  Name = 1550473
REMARK  2 active torsions:
REMARK  status: ('A' for Active; 'I' for Inactive)
REMARK    1  A    between atoms: N_1  and  C_4
REMARK    2  A    between atoms: C_4  and  C_5
REMARK                            x       y       z     vdW  Elec       q    Type
REMARK                         _______ _______ _______ _____ _____    ______ ____
ROOT
ATOM      1  N   UNL     1       4.757  15.894  -0.661  0.00  0.00    -0.354 N 
ATOM      2  N   UNL     1       6.698  17.149  -0.808  0.00  0.00    -0.372 N 
ATOM      3  N   UNL     1       5.680  16.916   1.235  0.00  0.00    -0.372 N 
ATOM      4  C   UNL     1       5.698  16.645  -0.074  0.00  0.00    +0.166 C 
ATOM      5  H   UNL     1       4.811  15.750  -1.663  0.00  0.00    +0.163 HD
ATOM      6  H   UNL     1       7.424  17.716  -0.392  0.00  0.00    +0.159 HD
ATOM      7  H   UNL     1       6.774  16.966  -1.801  0.00  0.00    +0.159 HD
ATOM      8  H   UNL     1       4.950  16.570   1.844  0.00  0.00    +0.159 HD
ATOM      9  H   UNL     1       6.392  17.491   1.668  0.00  0.00    +0.159 HD
ENDROOT
BRANCH   1  10
ATOM     10  C   UNL     1       3.656  15.253   0.058  0.00  0.00    +0.151 C 
BRANCH  10  11
ATOM     11  C   UNL     1       3.822  13.761  -0.019  0.00  0.00    -0.028 A 
ATOM     12  C   UNL     1       5.021  13.200  -0.483  0.00  0.00    +0.005 A 
ATOM     13  C   UNL     1       2.785  12.901   0.375  0.00  0.00    +0.005 A 
ATOM     14  C   UNL     1       5.186  11.814  -0.526  0.00  0.00    +0.000 A 
ATOM     15  C   UNL     1       2.953  11.517   0.330  0.00  0.00    +0.000 A 
ATOM     16  C   UNL     1       4.155  10.974  -0.118  0.00  0.00    +0.000 A 
ENDBRANCH  10  11
ENDBRANCH   1  10
TORSDOF 2
ENDMDL
MODEL 4
REMARK VINA RESULT:    -5.916      1.296      2.447
REMARK INTER + INTRA:          -6.750
REMARK INTER:                  -6.765
REMARK INTRA:                   0.015
REMARK UNBOUND:                -0.143
REMARK  Name = 1550473
REMARK  2 active torsions:
REMARK  status: ('A' for Active; 'I' for Inactive)
REMARK    1  A    between atoms: N_1  and  C_4
REMARK    2  A    between atoms: C_4  and  C_5
REMARK                            x       y       z     vdW  Elec       q    Type
REMARK                         _______ _______ _______ _____ _____    ______ ____
ROOT
ATOM      1  N   UNL     1      -7.322  -2.292 -17.270  0.00  0.00    -0.354 N 
ATOM      2  N   UNL     1      -7.060  -1.339 -19.365  0.00  0.00    -0.372 N 
ATOM      3  N   UNL     1      -6.658  -0.057 -17.506  0.00  0.00    -0.372 N 
ATOM      4  C   UNL     1      -7.015  -1.233 -18.032  0.00  0.00    +0.166 C 
ATOM      5  H   UNL     1      -7.614  -3.147 -17.730  0.00  0.00    +0.163 HD
ATOM      6  H   UNL     1      -6.831  -0.559 -19.966  0.00  0.00    +0.159 HD
ATOM      7  H   UNL     1      -7.308  -2.208 -19.822  0.00  0.00    +0.159 HD
ATOM      8  H   UNL     1      -6.610   0.091 -16.506  0.00  0.00    +0.159 HD
ATOM      9  H   UNL     1      -6.436   0.740 -18.090  0.00  0.00    +0.159 HD
ENDROOT
BRANCH   1  10
ATOM     10  C   UNL     1      -7.251  -2.297 -15.810  0.00  0.00    +0.151 C 
BRANCH  10  11
ATOM     11  C   UNL     1      -8.630  -2.079 -15.251  0.00  0.00    -0.028 A 
ATOM     12  C   UNL     1      -8.888  -2.290 -13.889  0.00  0.00    +0.005 A 
ATOM     13  C   UNL     1      -9.683  -1.657 -16.078  0.00  0.00    +0.005 A 
ATOM     14  C   UNL     1     -10.161  -2.060 -13.363  0.00  0.00    +0.000 A 
ATOM     15  C   UNL     1     -10.953  -1.428 -15.549  0.00  0.00    +0.000 A 
ATOM     16  C   UNL     1     -11.191  -1.627 -14.192  0.00  0.00    +0.000 A 
ENDBRANCH  10  11
ENDBRANCH   1  10
TORSDOF 2
ENDMDL
MODEL 5
REMARK VINA RESULT:    -5.792     14.488     15.349
REMARK INTER + INTRA:          -6.612
REMARK INTER:                  -6.443
REMARK INTRA:                  -0.169
REMARK UNBOUND:                -0.143
REMARK  Name = 1550473
REMARK  2 active torsions:
REMARK  status: ('A' for Active; 'I' for Inactive)
REMARK    1  A    between atoms: N_1  and  C_4
REMARK    2  A    between atoms: C_4  and  C_5
REMARK                            x       y       z     vdW  Elec       q    Type
REMARK                         _______ _______ _______ _____ _____    ______ ____
ROOT
ATOM      1  N   UNL     1     -13.842 -12.156  -7.470  0.00  0.00    -0.354 N 
ATOM      2  N   UNL     1     -12.921 -12.636  -9.540  0.00  0.00    -0.372 N 
ATOM      3  N   UNL     1     -11.520 -12.151  -7.789  0.00  0.00    -0.372 N 
ATOM      4  C   UNL     1     -12.765 -12.311  -8.251  0.00  0.00    +0.166 C 
ATOM      5  H   UNL     1     -14.759 -12.262  -7.888  0.00  0.00    +0.163 HD
ATOM      6  H   UNL     1     -12.127 -12.762 -10.153  0.00  0.00    +0.159 HD
ATOM      7  H   UNL     1     -13.837 -12.786  -9.944  0.00  0.00    +0.159 HD
ATOM      8  H   UNL     1     -11.334 -11.899  -6.827  0.00  0.00    +0.159 HD
ATOM      9  H   UNL     1     -10.713 -12.262  -8.390  0.00  0.00    +0.159 HD
ENDROOT
BRANCH   1  10
ATOM     10  C   UNL     1     -13.779 -11.856  -6.040  0.00  0.00    +0.151 C 
BRANCH  10  11
ATOM     11  C   UNL     1     -14.100 -10.402  -5.830  0.00  0.00    -0.028 A 
ATOM     12  C   UNL     1     -13.091  -9.430  -5.913  0.00  0.00    +0.005 A 
ATOM     13  C   UNL     1     -15.412  -9.988  -5.553  0.00  0.00    +0.005 A 
ATOM     14  C   UNL     1     -13.394  -8.077  -5.747  0.00  0.00    +0.000 A 
ATOM     15  C   UNL     1     -15.710  -8.635  -5.387  0.00  0.00    +0.000 A 
ATOM     16  C   UNL     1     -14.701  -7.680  -5.487  0.00  0.00    +0.000 A 
ENDBRANCH  10  11
ENDBRANCH   1  10
TORSDOF 2
ENDMDL
MODEL 6
REMARK VINA RESULT:    -5.785     15.457     16.821
REMARK INTER + INTRA:          -6.604
REMARK INTER:                  -6.510
REMARK INTRA:                  -0.094
REMARK UNBOUND:                -0.143
REMARK  Name = 1550473
REMARK  2 active torsions:
REMARK  status: ('A' for Active; 'I' for Inactive)
REMARK    1  A    between atoms: N_1  and  C_4
REMARK    2  A    between atoms: C_4  and  C_5
REMARK                            x       y       z     vdW  Elec       q    Type
REMARK                         _______ _______ _______ _____ _____    ______ ____
ROOT
ATOM      1  N   UNL     1      -3.530   4.591  -4.310  0.00  0.00    -0.354 N 
ATOM      2  N   UNL     1      -5.166   3.776  -5.732  0.00  0.00    -0.372 N 
ATOM      3  N   UNL     1      -5.786   5.140  -3.995  0.00  0.00    -0.372 N 
ATOM      4  C   UNL     1      -4.818   4.509  -4.668  0.00  0.00    +0.166 C 
ATOM      5  H   UNL     1      -2.848   4.064  -4.843  0.00  0.00    +0.163 HD
ATOM      6  H   UNL     1      -6.130   3.699  -6.029  0.00  0.00    +0.159 HD
ATOM      7  H   UNL     1      -4.477   3.288  -6.291  0.00  0.00    +0.159 HD
ATOM      8  H   UNL     1      -5.591   5.705  -3.179  0.00  0.00    +0.159 HD
ATOM      9  H   UNL     1      -6.758   5.066  -4.269  0.00  0.00    +0.159 HD
ENDROOT
BRANCH   1  10
ATOM     10  C   UNL     1      -3.040   5.405  -3.199  0.00  0.00    +0.151 C 
BRANCH  10  11
ATOM     11  C   UNL     1      -1.699   4.884  -2.762  0.00  0.00    -0.028 A 
ATOM     12  C   UNL     1      -0.530   5.281  -3.428  0.00  0.00    +0.005 A 
ATOM     13  C   UNL     1      -1.589   3.998  -1.680  0.00  0.00    +0.005 A 
ATOM     14  C   UNL     1       0.719   4.821  -3.004  0.00  0.00    +0.000 A 
ATOM     15  C   UNL     1      -0.340   3.540  -1.260  0.00  0.00    +0.000 A 
ATOM     16  C   UNL     1       0.814   3.954  -1.921  0.00  0.00    +0.000 A 
ENDBRANCH  10  11
ENDBRANCH   1  10
TORSDOF 2
ENDMDL
MODEL 7
REMARK VINA RESULT:    -5.772     15.003     16.390
REMARK INTER + INTRA:          -6.590
REMARK INTER:                  -6.448
REMARK INTRA:                  -0.142
REMARK UNBOUND:                -0.143
REMARK  Name = 1550473
REMARK  2 active torsions:
REMARK  status: ('A' for Active; 'I' for Inactive)
REMARK    1  A    between atoms: N_1  and  C_4
REMARK    2  A    between atoms: C_4  and  C_5
REMARK                            x       y       z     vdW  Elec       q    Type
REMARK                         _______ _______ _______ _____ _____    ______ ____
ROOT
ATOM      1  N   UNL     1      -2.702   4.722  -2.416  0.00  0.00    -0.354 N 
ATOM      2  N   UNL     1      -1.341   3.184  -1.346  0.00  0.00    -0.372 N 
ATOM      3  N   UNL     1      -3.095   4.107  -0.189  0.00  0.00    -0.372 N 
ATOM      4  C   UNL     1      -2.390   4.015  -1.322  0.00  0.00    +0.166 C 
ATOM      5  H   UNL     1      -2.110   4.630  -3.234  0.00  0.00    +0.163 HD
ATOM      6  H   UNL     1      -1.084   2.635  -0.537  0.00  0.00    +0.159 HD
ATOM      7  H   UNL     1      -0.779   3.060  -2.179  0.00  0.00    +0.159 HD
ATOM      8  H   UNL     1      -3.894   4.720  -0.104  0.00  0.00    +0.159 HD
ATOM      9  H   UNL     1      -2.846   3.574   0.635  0.00  0.00    +0.159 HD
ENDROOT
BRANCH   1  10
ATOM     10  C   UNL     1      -3.856   5.615  -2.511  0.00  0.00    +0.151 C 
BRANCH  10  11
ATOM     11  C   UNL     1      -4.578   5.348  -3.803  0.00  0.00    -0.028 A 
ATOM     12  C   UNL     1      -4.157   4.315  -4.654  0.00  0.00    +0.005 A 
ATOM     13  C   UNL     1      -5.688   6.120  -4.180  0.00  0.00    +0.005 A 
ATOM     14  C   UNL     1      -4.846   4.048  -5.840  0.00  0.00    +0.000 A 
ATOM     15  C   UNL     1      -6.372   5.850  -5.364  0.00  0.00    +0.000 A 
ATOM     16  C   UNL     1      -5.953   4.813  -6.193  0.00  0.00    +0.000 A 
ENDBRANCH  10  11
ENDBRANCH   1  10
TORSDOF 2
ENDMDL
MODEL 8
REMARK VINA RESULT:    -5.420     23.561     24.574
REMARK INTER + INTRA:          -6.197
REMARK INTER:                  -6.070
REMARK INTRA:                  -0.128
REMARK UNBOUND:                -0.143
REMARK  Name = 1550473
REMARK  2 active torsions:
REMARK  status: ('A' for Active; 'I' for Inactive)
REMARK    1  A    between atoms: N_1  and  C_4
REMARK    2  A    between atoms: C_4  and  C_5
REMARK                            x       y       z     vdW  Elec       q    Type
REMARK                         _______ _______ _______ _____ _____    ______ ____
ROOT
ATOM      1  N   UNL     1       0.800  14.915   0.042  0.00  0.00    -0.354 N 
ATOM      2  N   UNL     1       1.201  16.343   1.821  0.00  0.00    -0.372 N 
ATOM      3  N   UNL     1       2.976  15.613   0.563  0.00  0.00    -0.372 N 
ATOM      4  C   UNL     1       1.659  15.614   0.796  0.00  0.00    +0.166 C 
ATOM      5  H   UNL     1      -0.182  14.934   0.289  0.00  0.00    +0.163 HD
ATOM      6  H   UNL     1       1.825  16.883   2.405  0.00  0.00    +0.159 HD
ATOM      7  H   UNL     1       0.213  16.396   2.037  0.00  0.00    +0.159 HD
ATOM      8  H   UNL     1       3.386  15.079  -0.191  0.00  0.00    +0.159 HD
ATOM      9  H   UNL     1       3.618  16.138   1.144  0.00  0.00    +0.159 HD
ENDROOT
BRANCH   1  10
ATOM     10  C   UNL     1       1.190  14.133  -1.130  0.00  0.00    +0.151 C 
BRANCH  10  11
ATOM     11  C   UNL     1       0.608  12.751  -1.013  0.00  0.00    -0.028 A 
ATOM     12  C   UNL     1      -0.669  12.472  -1.521  0.00  0.00    +0.005 A 
ATOM     13  C   UNL     1       1.331  11.716  -0.401  0.00  0.00    +0.005 A 
ATOM     14  C   UNL     1      -1.198  11.181  -1.440  0.00  0.00    +0.000 A 
ATOM     15  C   UNL     1       0.798  10.429  -0.321  0.00  0.00    +0.000 A 
ATOM     16  C   UNL     1      -0.465  10.161  -0.843  0.00  0.00    +0.000 A 
ENDBRANCH  10  11
ENDBRANCH   1  10
TORSDOF 2
ENDMDL
MODEL 9
REMARK VINA RESULT:    -5.344     34.334     35.572
REMARK INTER + INTRA:          -6.112
REMARK INTER:                  -5.963
REMARK INTRA:                  -0.149
REMARK UNBOUND:                -0.143
REMARK  Name = 1550473
REMARK  2 active torsions:
REMARK  status: ('A' for Active; 'I' for Inactive)
REMARK    1  A    between atoms: N_1  and  C_4
REMARK    2  A    between atoms: C_4  and  C_5
REMARK                            x       y       z     vdW  Elec       q    Type
REMARK                         _______ _______ _______ _____ _____    ______ ____
ROOT
ATOM      1  N   UNL     1       9.636  -0.324  13.000  0.00  0.00    -0.354 N 
ATOM      2  N   UNL     1      10.175  -2.558  13.284  0.00  0.00    -0.372 N 
ATOM      3  N   UNL     1      10.536  -1.101  15.019  0.00  0.00    -0.372 N 
ATOM      4  C   UNL     1      10.113  -1.312  13.768  0.00  0.00    +0.166 C 
ATOM      5  H   UNL     1       9.360  -0.544  12.050  0.00  0.00    +0.163 HD
ATOM      6  H   UNL     1      10.527  -3.325  13.841  0.00  0.00    +0.159 HD
ATOM      7  H   UNL     1       9.855  -2.783  12.350  0.00  0.00    +0.159 HD
ATOM      8  H   UNL     1      10.522  -0.182  15.441  0.00  0.00    +0.159 HD
ATOM      9  H   UNL     1      10.903  -1.853  15.589  0.00  0.00    +0.159 HD
ENDROOT
BRANCH   1  10
ATOM     10  C   UNL     1       9.477   1.058  13.450  0.00  0.00    +0.151 C 
BRANCH  10  11
ATOM     11  C   UNL     1      10.253   1.965  12.535  0.00  0.00    -0.028 A 
ATOM     12  C   UNL     1       9.600   2.679  11.519  0.00  0.00    +0.005 A 
ATOM     13  C   UNL     1      11.640   2.120  12.682  0.00  0.00    +0.005 A 
ATOM     14  C   UNL     1      10.315   3.545  10.688  0.00  0.00    +0.000 A 
ATOM     15  C   UNL     1      12.350   2.984  11.850  0.00  0.00    +0.000 A 
ATOM     16  C   UNL     1      11.687   3.699  10.855  0.00  0.00    +0.000 A 
ENDBRANCH  10  11
ENDBRANCH   1  10
TORSDOF 2
ENDMDL
