MODEL 1
REMARK VINA RESULT:    -4.727      0.000      0.000
REMARK INTER + INTRA:          -5.372
REMARK INTER:                  -5.280
REMARK INTRA:                  -0.092
REMARK UNBOUND:                -0.092
REMARK  Name = 1550473
REMARK  2 active torsions:
REMARK  status: ('A' for Active; 'I' for Inactive)
REMARK    1  A    between atoms: N_1  and  C_4
REMARK    2  A    between atoms: C_4  and  C_5
REMARK                            x       y       z     vdW  Elec       q    Type
REMARK                         _______ _______ _______ _____ _____    ______ ____
ROOT
ATOM      1  N   UNL     1      -4.605  -4.379 -14.023  0.00  0.00    -0.354 N 
ATOM      2  N   UNL     1      -5.601  -4.234 -16.109  0.00  0.00    -0.372 N 
ATOM      3  N   UNL     1      -5.696  -2.420 -14.706  0.00  0.00    -0.372 N 
ATOM      4  C   UNL     1      -5.295  -3.676 -14.931  0.00  0.00    +0.166 C 
ATOM      5  H   UNL     1      -4.357  -5.336 -14.242  0.00  0.00    +0.163 HD
ATOM      6  H   UNL     1      -6.118  -3.728 -16.815  0.00  0.00    +0.159 HD
ATOM      7  H   UNL     1      -5.312  -5.176 -16.343  0.00  0.00    +0.159 HD
ATOM      8  H   UNL     1      -5.502  -1.944 -13.836  0.00  0.00    +0.159 HD
ATOM      9  H   UNL     1      -6.224  -1.901 -15.397  0.00  0.00    +0.159 HD
ENDROOT
BRANCH   1  10
ATOM     10  C   UNL     1      -4.175  -3.845 -12.731  0.00  0.00    +0.151 C 
BRANCH  10  11
ATOM     11  C   UNL     1      -3.488  -4.934 -11.955  0.00  0.00    -0.028 A 
ATOM     12  C   UNL     1      -2.160  -5.284 -12.242  0.00  0.00    +0.005 A 
ATOM     13  C   UNL     1      -4.157  -5.616 -10.926  0.00  0.00    +0.005 A 
ATOM     14  C   UNL     1      -1.512  -6.275 -11.501  0.00  0.00    +0.000 A 
ATOM     15  C   UNL     1      -3.506  -6.605 -10.189  0.00  0.00    +0.000 A 
ATOM     16  C   UNL     1      -2.183  -6.933 -10.475  0.00  0.00    +0.000 A 
ENDBRANCH  10  11
ENDBRANCH   1  10
TORSDOF 2
ENDMDL
MODEL 2
REMARK VINA RESULT:    -4.691      4.320      5.527
REMARK INTER + INTRA:          -5.331
REMARK INTER:                  -5.165
REMARK INTRA:                  -0.166
REMARK UNBOUND:                -0.092
REMARK  Name = 1550473
REMARK  2 active torsions:
REMARK  status: ('A' for Active; 'I' for Inactive)
REMARK    1  A    between atoms: N_1  and  C_4
REMARK    2  A    between atoms: C_4  and  C_5
REMARK                            x       y       z     vdW  Elec       q    Type
REMARK                         _______ _______ _______ _____ _____    ______ ____
ROOT
ATOM      1  N   UNL     1      -3.779  -7.028  -8.022  0.00  0.00    -0.354 N 
ATOM      2  N   UNL     1      -4.727  -6.204  -6.076  0.00  0.00    -0.372 N 
ATOM      3  N   UNL     1      -6.106  -6.942  -7.755  0.00  0.00    -0.372 N 
ATOM      4  C   UNL     1      -4.867  -6.731  -7.299  0.00  0.00    +0.166 C 
ATOM      5  H   UNL     1      -2.869  -6.816  -7.632  0.00  0.00    +0.163 HD
ATOM      6  H   UNL     1      -5.529  -5.973  -5.506  0.00  0.00    +0.159 HD
ATOM      7  H   UNL     1      -3.815  -6.036  -5.670  0.00  0.00    +0.159 HD
ATOM      8  H   UNL     1      -6.280  -7.332  -8.672  0.00  0.00    +0.159 HD
ATOM      9  H   UNL     1      -6.921  -6.706  -7.204  0.00  0.00    +0.159 HD
ENDROOT
BRANCH   1  10
ATOM     10  C   UNL     1      -3.822  -7.654  -9.343  0.00  0.00    +0.151 C 
BRANCH  10  11
ATOM     11  C   UNL     1      -3.425  -6.640 -10.380  0.00  0.00    -0.028 A 
ATOM     12  C   UNL     1      -2.142  -6.664 -10.946  0.00  0.00    +0.005 A 
ATOM     13  C   UNL     1      -4.331  -5.656 -10.806  0.00  0.00    +0.005 A 
ATOM     14  C   UNL     1      -1.784  -5.741 -11.931  0.00  0.00    +0.000 A 
ATOM     15  C   UNL     1      -3.969  -4.736 -11.790  0.00  0.00    +0.000 A 
ATOM     16  C   UNL     1      -2.696  -4.780 -12.353  0.00  0.00    +0.000 A 
ENDBRANCH  10  11
ENDBRANCH   1  10
TORSDOF 2
ENDMDL
MODEL 3
REMARK VINA RESULT:    -4.616      2.735      3.421
REMARK INTER + INTRA:          -5.247
REMARK INTER:                  -5.101
REMARK INTRA:                  -0.146
REMARK UNBOUND:                -0.092
REMARK  Name = 1550473
REMARK  2 active torsions:
REMARK  status: ('A' for Active; 'I' for Inactive)
REMARK    1  A    between atoms: N_1  and  C_4
REMARK    2  A    between atoms: C_4  and  C_5
REMARK                            x       y       z     vdW  Elec       q    Type
REMARK                         _______ _______ _______ _____ _____    ______ ____
ROOT
ATOM      1  N   UNL     1      -6.548  -3.700 -11.274  0.00  0.00    -0.354 N 
ATOM      2  N   UNL     1      -7.352  -1.531 -11.145  0.00  0.00    -0.372 N 
ATOM      3  N   UNL     1      -7.227  -2.784  -9.226  0.00  0.00    -0.372 N 
ATOM      4  C   UNL     1      -7.037  -2.687 -10.546  0.00  0.00    +0.166 C 
ATOM      5  H   UNL     1      -6.456  -3.573 -12.275  0.00  0.00    +0.163 HD
ATOM      6  H   UNL     1      -7.720  -0.748 -10.622  0.00  0.00    +0.159 HD
ATOM      7  H   UNL     1      -7.216  -1.392 -12.139  0.00  0.00    +0.159 HD
ATOM      8  H   UNL     1      -7.015  -3.631  -8.716  0.00  0.00    +0.159 HD
ATOM      9  H   UNL     1      -7.606  -2.015  -8.687  0.00  0.00    +0.159 HD
ENDROOT
BRANCH   1  10
ATOM     10  C   UNL     1      -6.124  -4.980 -10.710  0.00  0.00    +0.151 C 
BRANCH  10  11
ATOM     11  C   UNL     1      -4.706  -5.256 -11.130  0.00  0.00    -0.028 A 
ATOM     12  C   UNL     1      -4.074  -4.443 -12.082  0.00  0.00    +0.005 A 
ATOM     13  C   UNL     1      -3.987  -6.326 -10.575  0.00  0.00    +0.005 A 
ATOM     14  C   UNL     1      -2.748  -4.680 -12.450  0.00  0.00    +0.000 A 
ATOM     15  C   UNL     1      -2.663  -6.560 -10.946  0.00  0.00    +0.000 A 
ATOM     16  C   UNL     1      -2.043  -5.736 -11.881  0.00  0.00    +0.000 A 
ENDBRANCH  10  11
ENDBRANCH   1  10
TORSDOF 2
ENDMDL
MODEL 4
REMARK VINA RESULT:    -4.566      1.689      2.512
REMARK INTER + INTRA:          -5.191
REMARK INTER:                  -5.064
REMARK INTRA:                  -0.127
REMARK UNBOUND:                -0.092
REMARK  Name = 1550473
REMARK  2 active torsions:
REMARK  status: ('A' for Active; 'I' for Inactive)
REMARK    1  A    between atoms: N_1  and  C_4
REMARK    2  A    between atoms: C_4  and  C_5
REMARK                            x       y       z     vdW  Elec       q    Type
REMARK                         _______ _______ _______ _____ _____    ______ ____
ROOT
ATOM      1  N   UNL     1      -5.964  -4.343 -12.151  0.00  0.00    -0.354 N 
ATOM      2  N   UNL     1      -6.698  -2.528 -13.389  0.00  0.00    -0.372 N 
ATOM      3  N   UNL     1      -6.537  -2.323 -11.110  0.00  0.00    -0.372 N 
ATOM      4  C   UNL     1      -6.395  -3.075 -12.206  0.00  0.00    +0.166 C 
ATOM      5  H   UNL     1      -5.906  -4.870 -13.015  0.00  0.00    +0.163 HD
ATOM      6  H   UNL     1      -7.022  -1.574 -13.463  0.00  0.00    +0.159 HD
ATOM      7  H   UNL     1      -6.596  -3.043 -14.256  0.00  0.00    +0.159 HD
ATOM      8  H   UNL     1      -6.331  -2.678 -10.186  0.00  0.00    +0.159 HD
ATOM      9  H   UNL     1      -6.872  -1.369 -11.161  0.00  0.00    +0.159 HD
ENDROOT
BRANCH   1  10
ATOM     10  C   UNL     1      -5.557  -5.015 -10.918  0.00  0.00    +0.151 C 
BRANCH  10  11
ATOM     11  C   UNL     1      -4.144  -5.508 -11.071  0.00  0.00    -0.028 A 
ATOM     12  C   UNL     1      -3.673  -6.571 -10.287  0.00  0.00    +0.005 A 
ATOM     13  C   UNL     1      -3.274  -4.920 -12.002  0.00  0.00    +0.005 A 
ATOM     14  C   UNL     1      -2.370  -7.050 -10.450  0.00  0.00    +0.000 A 
ATOM     15  C   UNL     1      -1.974  -5.400 -12.161  0.00  0.00    +0.000 A 
ATOM     16  C   UNL     1      -1.524  -6.466 -11.387  0.00  0.00    +0.000 A 
ENDBRANCH  10  11
ENDBRANCH   1  10
TORSDOF 2
ENDMDL
MODEL 5
REMARK VINA RESULT:    -4.302      2.976      4.089
REMARK INTER + INTRA:          -4.897
REMARK INTER:                  -4.781
REMARK INTRA:                  -0.116
REMARK UNBOUND:                -0.092
REMARK  Name = 1550473
REMARK  2 active torsions:
REMARK  status: ('A' for Active; 'I' for Inactive)
REMARK    1  A    between atoms: N_1  and  C_4
REMARK    2  A    between atoms: C_4  and  C_5
REMARK                            x       y       z     vdW  Elec       q    Type
REMARK                         _______ _______ _______ _____ _____    ______ ____
ROOT
ATOM      1  N   UNL     1      -3.841  -7.008 -16.524  0.00  0.00    -0.354 N 
ATOM      2  N   UNL     1      -4.024  -7.087 -18.832  0.00  0.00    -0.372 N 
ATOM      3  N   UNL     1      -5.531  -8.259 -17.559  0.00  0.00    -0.372 N 
ATOM      4  C   UNL     1      -4.466  -7.453 -17.623  0.00  0.00    +0.166 C 
ATOM      5  H   UNL     1      -3.021  -6.424 -16.641  0.00  0.00    +0.163 HD
ATOM      6  H   UNL     1      -4.477  -7.403 -19.678  0.00  0.00    +0.159 HD
ATOM      7  H   UNL     1      -3.232  -6.466 -18.944  0.00  0.00    +0.159 HD
ATOM      8  H   UNL     1      -5.910  -8.577 -16.677  0.00  0.00    +0.159 HD
ATOM      9  H   UNL     1      -5.991  -8.596 -18.395  0.00  0.00    +0.159 HD
ENDROOT
BRANCH   1  10
ATOM     10  C   UNL     1      -4.275  -7.304 -15.160  0.00  0.00    +0.151 C 
BRANCH  10  11
ATOM     11  C   UNL     1      -4.013  -6.106 -14.291  0.00  0.00    -0.028 A 
ATOM     12  C   UNL     1      -4.763  -4.932 -14.452  0.00  0.00    +0.005 A 
ATOM     13  C   UNL     1      -3.020  -6.140 -13.299  0.00  0.00    +0.005 A 
ATOM     14  C   UNL     1      -4.541  -3.828 -13.625  0.00  0.00    +0.000 A 
ATOM     15  C   UNL     1      -2.801  -5.036 -12.475  0.00  0.00    +0.000 A 
ATOM     16  C   UNL     1      -3.563  -3.881 -12.637  0.00  0.00    +0.000 A 
ENDBRANCH  10  11
ENDBRANCH   1  10
TORSDOF 2
ENDMDL
MODEL 6
REMARK VINA RESULT:    -4.264      3.658      5.020
REMARK INTER + INTRA:          -4.854
REMARK INTER:                  -4.710
REMARK INTRA:                  -0.144
REMARK UNBOUND:                -0.092
REMARK  Name = 1550473
REMARK  2 active torsions:
REMARK  status: ('A' for Active; 'I' for Inactive)
REMARK    1  A    between atoms: N_1  and  C_4
REMARK    2  A    between atoms: C_4  and  C_5
REMARK                            x       y       z     vdW  Elec       q    Type
REMARK                         _______ _______ _______ _____ _____    ______ ____
ROOT
ATOM      1  N   UNL     1      -6.056  -5.489  -9.194  0.00  0.00    -0.354 N 
ATOM      2  N   UNL     1      -6.740  -4.158  -7.427  0.00  0.00    -0.372 N 
ATOM      3  N   UNL     1      -5.576  -6.084  -6.979  0.00  0.00    -0.372 N 
ATOM      4  C   UNL     1      -6.118  -5.254  -7.877  0.00  0.00    +0.166 C 
ATOM      5  H   UNL     1      -6.513  -4.837  -9.822  0.00  0.00    +0.163 HD
ATOM      6  H   UNL     1      -6.800  -3.952  -6.439  0.00  0.00    +0.159 HD
ATOM      7  H   UNL     1      -7.156  -3.484  -8.059  0.00  0.00    +0.159 HD
ATOM      8  H   UNL     1      -5.099  -6.932  -7.253  0.00  0.00    +0.159 HD
ATOM      9  H   UNL     1      -5.637  -5.902  -5.985  0.00  0.00    +0.159 HD
ENDROOT
BRANCH   1  10
ATOM     10  C   UNL     1      -5.356  -6.626  -9.790  0.00  0.00    +0.151 C 
BRANCH  10  11
ATOM     11  C   UNL     1      -4.240  -6.115 -10.659  0.00  0.00    -0.028 A 
ATOM     12  C   UNL     1      -4.435  -4.999 -11.486  0.00  0.00    +0.005 A 
ATOM     13  C   UNL     1      -2.983  -6.739 -10.656  0.00  0.00    +0.005 A 
ATOM     14  C   UNL     1      -3.390  -4.506 -12.271  0.00  0.00    +0.000 A 
ATOM     15  C   UNL     1      -1.942  -6.245 -11.441  0.00  0.00    +0.000 A 
ATOM     16  C   UNL     1      -2.145  -5.127 -12.247  0.00  0.00    +0.000 A 
ENDBRANCH  10  11
ENDBRANCH   1  10
TORSDOF 2
ENDMDL
MODEL 7
REMARK VINA RESULT:    -4.120      3.920      5.151
REMARK INTER + INTRA:          -4.693
REMARK INTER:                  -4.550
REMARK INTRA:                  -0.143
REMARK UNBOUND:                -0.092
REMARK  Name = 1550473
REMARK  2 active torsions:
REMARK  status: ('A' for Active; 'I' for Inactive)
REMARK    1  A    between atoms: N_1  and  C_4
REMARK    2  A    between atoms: C_4  and  C_5
REMARK                            x       y       z     vdW  Elec       q    Type
REMARK                         _______ _______ _______ _____ _____    ______ ____
ROOT
ATOM      1  N   UNL     1      -7.052  -4.357  -9.211  0.00  0.00    -0.354 N 
ATOM      2  N   UNL     1      -7.529  -2.990  -7.404  0.00  0.00    -0.372 N 
ATOM      3  N   UNL     1      -6.535  -5.023  -7.024  0.00  0.00    -0.372 N 
ATOM      4  C   UNL     1      -7.035  -4.135  -7.890  0.00  0.00    +0.166 C 
ATOM      5  H   UNL     1      -7.472  -3.658  -9.812  0.00  0.00    +0.163 HD
ATOM      6  H   UNL     1      -7.527  -2.793  -6.412  0.00  0.00    +0.159 HD
ATOM      7  H   UNL     1      -7.907  -2.272  -8.010  0.00  0.00    +0.159 HD
ATOM      8  H   UNL     1      -6.152  -5.909  -7.327  0.00  0.00    +0.159 HD
ATOM      9  H   UNL     1      -6.534  -4.849  -6.027  0.00  0.00    +0.159 HD
ENDROOT
BRANCH   1  10
ATOM     10  C   UNL     1      -6.490  -5.548  -9.847  0.00  0.00    +0.151 C 
BRANCH  10  11
ATOM     11  C   UNL     1      -5.361  -5.135 -10.751  0.00  0.00    -0.028 A 
ATOM     12  C   UNL     1      -4.148  -5.838 -10.741  0.00  0.00    +0.005 A 
ATOM     13  C   UNL     1      -5.501  -4.045 -11.623  0.00  0.00    +0.005 A 
ATOM     14  C   UNL     1      -3.110  -5.474 -11.602  0.00  0.00    +0.000 A 
ATOM     15  C   UNL     1      -4.461  -3.684 -12.481  0.00  0.00    +0.000 A 
ATOM     16  C   UNL     1      -3.267  -4.400 -12.471  0.00  0.00    +0.000 A 
ENDBRANCH  10  11
ENDBRANCH   1  10
TORSDOF 2
ENDMDL
MODEL 8
REMARK VINA RESULT:    -3.962     23.294     24.487
REMARK INTER + INTRA:          -4.517
REMARK INTER:                  -4.356
REMARK INTRA:                  -0.162
REMARK UNBOUND:                -0.092
REMARK  Name = 1550473
REMARK  2 active torsions:
REMARK  status: ('A' for Active; 'I' for Inactive)
REMARK    1  A    between atoms: N_1  and  C_4
REMARK    2  A    between atoms: C_4  and  C_5
REMARK                            x       y       z     vdW  Elec       q    Type
REMARK                         _______ _______ _______ _____ _____    ______ ____
ROOT
ATOM      1  N   UNL     1      11.472  -2.897   4.971  0.00  0.00    -0.354 N 
ATOM      2  N   UNL     1      10.238  -1.082   4.230  0.00  0.00    -0.372 N 
ATOM      3  N   UNL     1      11.509  -0.859   6.128  0.00  0.00    -0.372 N 
ATOM      4  C   UNL     1      11.082  -1.623   5.117  0.00  0.00    +0.166 C 
ATOM      5  H   UNL     1      11.088  -3.432   4.200  0.00  0.00    +0.163 HD
ATOM      6  H   UNL     1       9.928  -0.123   4.313  0.00  0.00    +0.159 HD
ATOM      7  H   UNL     1       9.892  -1.606   3.435  0.00  0.00    +0.159 HD
ATOM      8  H   UNL     1      12.142  -1.210   6.834  0.00  0.00    +0.159 HD
ATOM      9  H   UNL     1      11.202   0.100   6.234  0.00  0.00    +0.159 HD
ENDROOT
BRANCH   1  10
ATOM     10  C   UNL     1      12.430  -3.565   5.850  0.00  0.00    +0.151 C 
BRANCH  10  11
ATOM     11  C   UNL     1      11.698  -4.559   6.709  0.00  0.00    -0.028 A 
ATOM     12  C   UNL     1      11.926  -4.610   8.092  0.00  0.00    +0.005 A 
ATOM     13  C   UNL     1      10.771  -5.450   6.146  0.00  0.00    +0.005 A 
ATOM     14  C   UNL     1      11.224  -5.513   8.894  0.00  0.00    +0.000 A 
ATOM     15  C   UNL     1      10.073  -6.351   6.950  0.00  0.00    +0.000 A 
ATOM     16  C   UNL     1      10.298  -6.380   8.324  0.00  0.00    +0.000 A 
ENDBRANCH  10  11
ENDBRANCH   1  10
TORSDOF 2
ENDMDL
MODEL 9
REMARK VINA RESULT:    -3.950     31.000     31.988
REMARK INTER + INTRA:          -4.503
REMARK INTER:                  -4.426
REMARK INTRA:                  -0.077
REMARK UNBOUND:                -0.092
REMARK  Name = 1550473
REMARK  2 active torsions:
REMARK  status: ('A' for Active; 'I' for Inactive)
REMARK    1  A    between atoms: N_1  and  C_4
REMARK    2  A    between atoms: C_4  and  C_5
REMARK                            x       y       z     vdW  Elec       q    Type
REMARK                         _______ _______ _______ _____ _____    ______ ____
ROOT
ATOM      1  N   UNL     1      -0.675   7.495  17.491  0.00  0.00    -0.354 N 
ATOM      2  N   UNL     1      -0.092   8.898  19.240  0.00  0.00    -0.372 N 
ATOM      3  N   UNL     1       1.181   8.917  17.331  0.00  0.00    -0.372 N 
ATOM      4  C   UNL     1       0.137   8.428  18.007  0.00  0.00    +0.166 C 
ATOM      5  H   UNL     1      -1.432   7.144  18.067  0.00  0.00    +0.163 HD
ATOM      6  H   UNL     1       0.502   9.604  19.654  0.00  0.00    +0.159 HD
ATOM      7  H   UNL     1      -0.876   8.578  19.795  0.00  0.00    +0.159 HD
ATOM      8  H   UNL     1       1.411   8.600  16.398  0.00  0.00    +0.159 HD
ATOM      9  H   UNL     1       1.793   9.615  17.733  0.00  0.00    +0.159 HD
ENDROOT
BRANCH   1  10
ATOM     10  C   UNL     1      -0.545   6.957  16.138  0.00  0.00    +0.151 C 
BRANCH  10  11
ATOM     11  C   UNL     1      -0.088   5.527  16.220  0.00  0.00    -0.028 A 
ATOM     12  C   UNL     1      -0.507   4.589  15.265  0.00  0.00    +0.005 A 
ATOM     13  C   UNL     1       0.769   5.104  17.248  0.00  0.00    +0.005 A 
ATOM     14  C   UNL     1      -0.059   3.267  15.324  0.00  0.00    +0.000 A 
ATOM     15  C   UNL     1       1.214   3.783  17.304  0.00  0.00    +0.000 A 
ATOM     16  C   UNL     1       0.802   2.866  16.340  0.00  0.00    +0.000 A 
ENDBRANCH  10  11
ENDBRANCH   1  10
TORSDOF 2
ENDMDL
