MODEL 1
REMARK VINA RESULT:    -4.870      0.000      0.000
REMARK INTER + INTRA:          -5.598
REMARK INTER:                  -5.439
REMARK INTRA:                  -0.159
REMARK UNBOUND:                -0.159
REMARK  Name = 1550473
REMARK  2 active torsions:
REMARK  status: ('A' for Active; 'I' for Inactive)
REMARK    1  A    between atoms: N_1  and  C_4
REMARK    2  A    between atoms: C_4  and  C_5
REMARK                            x       y       z     vdW  Elec       q    Type
REMARK                         _______ _______ _______ _____ _____    ______ ____
ROOT
ATOM      1  N   UNL     1     -13.346  -1.826  -1.649  0.00  0.00    -0.354 N 
ATOM      2  N   UNL     1     -11.113  -1.281  -1.361  0.00  0.00    -0.372 N 
ATOM      3  N   UNL     1     -12.100  -2.735   0.116  0.00  0.00    -0.372 N 
ATOM      4  C   UNL     1     -12.201  -1.952  -0.964  0.00  0.00    +0.166 C 
ATOM      5  H   UNL     1     -13.366  -1.194  -2.441  0.00  0.00    +0.163 HD
ATOM      6  H   UNL     1     -10.235  -1.360  -0.866  0.00  0.00    +0.159 HD
ATOM      7  H   UNL     1     -11.124  -0.686  -2.180  0.00  0.00    +0.159 HD
ATOM      8  H   UNL     1     -12.886  -3.263   0.470  0.00  0.00    +0.159 HD
ATOM      9  H   UNL     1     -11.232  -2.817   0.631  0.00  0.00    +0.159 HD
ENDROOT
BRANCH   1  10
ATOM     10  C   UNL     1     -14.573  -2.555  -1.332  0.00  0.00    +0.151 C 
BRANCH  10  11
ATOM     11  C   UNL     1     -14.798  -3.614  -2.375  0.00  0.00    -0.028 A 
ATOM     12  C   UNL     1     -14.488  -3.367  -3.720  0.00  0.00    +0.005 A 
ATOM     13  C   UNL     1     -15.316  -4.871  -2.023  0.00  0.00    +0.005 A 
ATOM     14  C   UNL     1     -14.669  -4.361  -4.685  0.00  0.00    +0.000 A 
ATOM     15  C   UNL     1     -15.495  -5.860  -2.990  0.00  0.00    +0.000 A 
ATOM     16  C   UNL     1     -15.170  -5.606  -4.319  0.00  0.00    +0.000 A 
ENDBRANCH  10  11
ENDBRANCH   1  10
TORSDOF 2
ENDMDL
MODEL 2
REMARK VINA RESULT:    -4.660     21.528     22.355
REMARK INTER + INTRA:          -5.364
REMARK INTER:                  -5.218
REMARK INTRA:                  -0.145
REMARK UNBOUND:                -0.159
REMARK  Name = 1550473
REMARK  2 active torsions:
REMARK  status: ('A' for Active; 'I' for Inactive)
REMARK    1  A    between atoms: N_1  and  C_4
REMARK    2  A    between atoms: C_4  and  C_5
REMARK                            x       y       z     vdW  Elec       q    Type
REMARK                         _______ _______ _______ _____ _____    ______ ____
ROOT
ATOM      1  N   UNL     1       2.569 -14.594 -11.526  0.00  0.00    -0.354 N 
ATOM      2  N   UNL     1       0.954 -16.241 -11.733  0.00  0.00    -0.372 N 
ATOM      3  N   UNL     1       2.834 -16.360 -13.043  0.00  0.00    -0.372 N 
ATOM      4  C   UNL     1       2.131 -15.722 -12.101  0.00  0.00    +0.166 C 
ATOM      5  H   UNL     1       1.975 -14.142 -10.840  0.00  0.00    +0.163 HD
ATOM      6  H   UNL     1       0.599 -17.093 -12.146  0.00  0.00    +0.159 HD
ATOM      7  H   UNL     1       0.384 -15.812 -11.014  0.00  0.00    +0.159 HD
ATOM      8  H   UNL     1       3.727 -16.017 -13.370  0.00  0.00    +0.159 HD
ATOM      9  H   UNL     1       2.490 -17.208 -13.477  0.00  0.00    +0.159 HD
ENDROOT
BRANCH   1  10
ATOM     10  C   UNL     1       3.861 -13.976 -11.817  0.00  0.00    +0.151 C 
BRANCH  10  11
ATOM     11  C   UNL     1       3.644 -12.533 -12.181  0.00  0.00    -0.028 A 
ATOM     12  C   UNL     1       2.689 -12.177 -13.145  0.00  0.00    +0.005 A 
ATOM     13  C   UNL     1       4.386 -11.515 -11.562  0.00  0.00    +0.005 A 
ATOM     14  C   UNL     1       2.466 -10.835 -13.462  0.00  0.00    +0.000 A 
ATOM     15  C   UNL     1       4.161 -10.177 -11.882  0.00  0.00    +0.000 A 
ATOM     16  C   UNL     1       3.200  -9.837 -12.830  0.00  0.00    +0.000 A 
ENDBRANCH  10  11
ENDBRANCH   1  10
TORSDOF 2
ENDMDL
MODEL 3
REMARK VINA RESULT:    -4.542      2.558      4.689
REMARK INTER + INTRA:          -5.233
REMARK INTER:                  -5.093
REMARK INTRA:                  -0.140
REMARK UNBOUND:                -0.159
REMARK  Name = 1550473
REMARK  2 active torsions:
REMARK  status: ('A' for Active; 'I' for Inactive)
REMARK    1  A    between atoms: N_1  and  C_4
REMARK    2  A    between atoms: C_4  and  C_5
REMARK                            x       y       z     vdW  Elec       q    Type
REMARK                         _______ _______ _______ _____ _____    ______ ____
ROOT
ATOM      1  N   UNL     1     -14.741  -3.324  -3.905  0.00  0.00    -0.354 N 
ATOM      2  N   UNL     1     -14.068  -3.481  -6.115  0.00  0.00    -0.372 N 
ATOM      3  N   UNL     1     -14.503  -5.408  -4.949  0.00  0.00    -0.372 N 
ATOM      4  C   UNL     1     -14.442  -4.073  -4.975  0.00  0.00    +0.166 C 
ATOM      5  H   UNL     1     -14.645  -2.318  -3.979  0.00  0.00    +0.163 HD
ATOM      6  H   UNL     1     -13.840  -4.019  -6.940  0.00  0.00    +0.159 HD
ATOM      7  H   UNL     1     -14.018  -2.473  -6.201  0.00  0.00    +0.159 HD
ATOM      8  H   UNL     1     -14.772  -5.916  -4.117  0.00  0.00    +0.159 HD
ATOM      9  H   UNL     1     -14.267  -5.965  -5.761  0.00  0.00    +0.159 HD
ENDROOT
BRANCH   1  10
ATOM     10  C   UNL     1     -15.209  -3.868  -2.631  0.00  0.00    +0.151 C 
BRANCH  10  11
ATOM     11  C   UNL     1     -14.428  -3.239  -1.511  0.00  0.00    -0.028 A 
ATOM     12  C   UNL     1     -14.478  -3.778  -0.217  0.00  0.00    +0.005 A 
ATOM     13  C   UNL     1     -13.632  -2.106  -1.738  0.00  0.00    +0.005 A 
ATOM     14  C   UNL     1     -13.729  -3.212   0.817  0.00  0.00    +0.000 A 
ATOM     15  C   UNL     1     -12.886  -1.543  -0.702  0.00  0.00    +0.000 A 
ATOM     16  C   UNL     1     -12.933  -2.097   0.574  0.00  0.00    +0.000 A 
ENDBRANCH  10  11
ENDBRANCH   1  10
TORSDOF 2
ENDMDL
MODEL 4
REMARK VINA RESULT:    -4.468     22.534     23.335
REMARK INTER + INTRA:          -5.150
REMARK INTER:                  -5.027
REMARK INTRA:                  -0.123
REMARK UNBOUND:                -0.159
REMARK  Name = 1550473
REMARK  2 active torsions:
REMARK  status: ('A' for Active; 'I' for Inactive)
REMARK    1  A    between atoms: N_1  and  C_4
REMARK    2  A    between atoms: C_4  and  C_5
REMARK                            x       y       z     vdW  Elec       q    Type
REMARK                         _______ _______ _______ _____ _____    ______ ____
ROOT
ATOM      1  N   UNL     1       4.898 -11.309 -11.707  0.00  0.00    -0.354 N 
ATOM      2  N   UNL     1       3.854 -13.293 -11.124  0.00  0.00    -0.372 N 
ATOM      3  N   UNL     1       5.556 -12.505  -9.802  0.00  0.00    -0.372 N 
ATOM      4  C   UNL     1       4.778 -12.356 -10.879  0.00  0.00    +0.166 C 
ATOM      5  H   UNL     1       4.298 -11.270 -12.523  0.00  0.00    +0.163 HD
ATOM      6  H   UNL     1       3.738 -14.092 -10.515  0.00  0.00    +0.159 HD
ATOM      7  H   UNL     1       3.225 -13.228 -11.915  0.00  0.00    +0.159 HD
ATOM      8  H   UNL     1       6.276 -11.836  -9.565  0.00  0.00    +0.159 HD
ATOM      9  H   UNL     1       5.462 -13.304  -9.187  0.00  0.00    +0.159 HD
ENDROOT
BRANCH   1  10
ATOM     10  C   UNL     1       5.835 -10.207 -11.501  0.00  0.00    +0.151 C 
BRANCH  10  11
ATOM     11  C   UNL     1       5.906  -9.381 -12.755  0.00  0.00    -0.028 A 
ATOM     12  C   UNL     1       4.979  -9.576 -13.790  0.00  0.00    +0.005 A 
ATOM     13  C   UNL     1       6.894  -8.397 -12.914  0.00  0.00    +0.005 A 
ATOM     14  C   UNL     1       5.026  -8.789 -14.943  0.00  0.00    +0.000 A 
ATOM     15  C   UNL     1       6.938  -7.613 -14.067  0.00  0.00    +0.000 A 
ATOM     16  C   UNL     1       6.003  -7.808 -15.080  0.00  0.00    +0.000 A 
ENDBRANCH  10  11
ENDBRANCH   1  10
TORSDOF 2
ENDMDL
MODEL 5
REMARK VINA RESULT:    -4.463     17.385     18.512
REMARK INTER + INTRA:          -5.144
REMARK INTER:                  -4.985
REMARK INTRA:                  -0.159
REMARK UNBOUND:                -0.159
REMARK  Name = 1550473
REMARK  2 active torsions:
REMARK  status: ('A' for Active; 'I' for Inactive)
REMARK    1  A    between atoms: N_1  and  C_4
REMARK    2  A    between atoms: C_4  and  C_5
REMARK                            x       y       z     vdW  Elec       q    Type
REMARK                         _______ _______ _______ _____ _____    ______ ____
ROOT
ATOM      1  N   UNL     1       1.533 -13.296   0.019  0.00  0.00    -0.354 N 
ATOM      2  N   UNL     1       1.673 -12.561  -2.173  0.00  0.00    -0.372 N 
ATOM      3  N   UNL     1      -0.341 -12.420  -1.083  0.00  0.00    -0.372 N 
ATOM      4  C   UNL     1       0.951 -12.764  -1.064  0.00  0.00    +0.166 C 
ATOM      5  H   UNL     1       2.509 -13.563  -0.041  0.00  0.00    +0.163 HD
ATOM      6  H   UNL     1       1.262 -12.158  -3.005  0.00  0.00    +0.159 HD
ATOM      7  H   UNL     1       2.659 -12.787  -2.215  0.00  0.00    +0.159 HD
ATOM      8  H   UNL     1      -0.942 -12.553  -0.280  0.00  0.00    +0.159 HD
ATOM      9  H   UNL     1      -0.773 -12.026  -1.909  0.00  0.00    +0.159 HD
ENDROOT
BRANCH   1  10
ATOM     10  C   UNL     1       0.849 -13.508   1.293  0.00  0.00    +0.151 C 
BRANCH  10  11
ATOM     11  C   UNL     1       1.253 -12.424   2.254  0.00  0.00    -0.028 A 
ATOM     12  C   UNL     1       0.364 -11.983   3.245  0.00  0.00    +0.005 A 
ATOM     13  C   UNL     1       2.526 -11.837   2.181  0.00  0.00    +0.005 A 
ATOM     14  C   UNL     1       0.750 -10.996   4.156  0.00  0.00    +0.000 A 
ATOM     15  C   UNL     1       2.907 -10.853   3.092  0.00  0.00    +0.000 A 
ATOM     16  C   UNL     1       2.020 -10.434   4.081  0.00  0.00    +0.000 A 
ENDBRANCH  10  11
ENDBRANCH   1  10
TORSDOF 2
ENDMDL
MODEL 6
REMARK VINA RESULT:    -4.270     75.452     76.877
REMARK INTER + INTRA:          -4.928
REMARK INTER:                  -4.796
REMARK INTRA:                  -0.132
REMARK UNBOUND:                -0.159
REMARK  Name = 1550473
REMARK  2 active torsions:
REMARK  status: ('A' for Active; 'I' for Inactive)
REMARK    1  A    between atoms: N_1  and  C_4
REMARK    2  A    between atoms: C_4  and  C_5
REMARK                            x       y       z     vdW  Elec       q    Type
REMARK                         _______ _______ _______ _____ _____    ______ ____
ROOT
ATOM      1  N   UNL     1      52.451  36.765   5.437  0.00  0.00    -0.354 N 
ATOM      2  N   UNL     1      53.662  35.081   4.406  0.00  0.00    -0.372 N 
ATOM      3  N   UNL     1      53.973  35.458   6.648  0.00  0.00    -0.372 N 
ATOM      4  C   UNL     1      53.355  35.779   5.507  0.00  0.00    +0.166 C 
ATOM      5  H   UNL     1      52.040  36.979   4.535  0.00  0.00    +0.163 HD
ATOM      6  H   UNL     1      54.339  34.330   4.429  0.00  0.00    +0.159 HD
ATOM      7  H   UNL     1      53.217  35.267   3.516  0.00  0.00    +0.159 HD
ATOM      8  H   UNL     1      53.790  35.950   7.513  0.00  0.00    +0.159 HD
ATOM      9  H   UNL     1      54.661  34.717   6.689  0.00  0.00    +0.159 HD
ENDROOT
BRANCH   1  10
ATOM     10  C   UNL     1      52.006  37.549   6.588  0.00  0.00    +0.151 C 
BRANCH  10  11
ATOM     11  C   UNL     1      50.509  37.453   6.699  0.00  0.00    -0.028 A 
ATOM     12  C   UNL     1      49.800  36.496   5.958  0.00  0.00    +0.005 A 
ATOM     13  C   UNL     1      49.795  38.313   7.547  0.00  0.00    +0.005 A 
ATOM     14  C   UNL     1      48.413  36.387   6.083  0.00  0.00    +0.000 A 
ATOM     15  C   UNL     1      48.410  38.202   7.668  0.00  0.00    +0.000 A 
ATOM     16  C   UNL     1      47.720  37.237   6.938  0.00  0.00    +0.000 A 
ENDBRANCH  10  11
ENDBRANCH   1  10
TORSDOF 2
ENDMDL
MODEL 7
REMARK VINA RESULT:    -4.231     22.474     23.403
REMARK INTER + INTRA:          -4.885
REMARK INTER:                  -4.772
REMARK INTRA:                  -0.113
REMARK UNBOUND:                -0.159
REMARK  Name = 1550473
REMARK  2 active torsions:
REMARK  status: ('A' for Active; 'I' for Inactive)
REMARK    1  A    between atoms: N_1  and  C_4
REMARK    2  A    between atoms: C_4  and  C_5
REMARK                            x       y       z     vdW  Elec       q    Type
REMARK                         _______ _______ _______ _____ _____    ______ ____
ROOT
ATOM      1  N   UNL     1       4.362 -11.734 -13.258  0.00  0.00    -0.354 N 
ATOM      2  N   UNL     1       3.246 -12.836 -14.962  0.00  0.00    -0.372 N 
ATOM      3  N   UNL     1       2.114 -11.266 -13.729  0.00  0.00    -0.372 N 
ATOM      4  C   UNL     1       3.246 -11.937 -13.970  0.00  0.00    +0.166 C 
ATOM      5  H   UNL     1       5.178 -12.295 -13.471  0.00  0.00    +0.163 HD
ATOM      6  H   UNL     1       2.420 -13.008 -15.519  0.00  0.00    +0.159 HD
ATOM      7  H   UNL     1       4.076 -13.363 -15.203  0.00  0.00    +0.159 HD
ATOM      8  H   UNL     1       2.046 -10.578 -12.991  0.00  0.00    +0.159 HD
ATOM      9  H   UNL     1       1.274 -11.433 -14.268  0.00  0.00    +0.159 HD
ENDROOT
BRANCH   1  10
ATOM     10  C   UNL     1       4.482 -10.739 -12.193  0.00  0.00    +0.151 C 
BRANCH  10  11
ATOM     11  C   UNL     1       5.447  -9.670 -12.626  0.00  0.00    -0.028 A 
ATOM     12  C   UNL     1       6.478  -9.253 -11.772  0.00  0.00    +0.005 A 
ATOM     13  C   UNL     1       5.338  -9.074 -13.892  0.00  0.00    +0.005 A 
ATOM     14  C   UNL     1       7.392  -8.281 -12.186  0.00  0.00    +0.000 A 
ATOM     15  C   UNL     1       6.252  -8.103 -14.301  0.00  0.00    +0.000 A 
ATOM     16  C   UNL     1       7.281  -7.709 -13.449  0.00  0.00    +0.000 A 
ENDBRANCH  10  11
ENDBRANCH   1  10
TORSDOF 2
ENDMDL
MODEL 8
REMARK VINA RESULT:    -4.180     17.130     18.377
REMARK INTER + INTRA:          -4.828
REMARK INTER:                  -4.676
REMARK INTRA:                  -0.152
REMARK UNBOUND:                -0.159
REMARK  Name = 1550473
REMARK  2 active torsions:
REMARK  status: ('A' for Active; 'I' for Inactive)
REMARK    1  A    between atoms: N_1  and  C_4
REMARK    2  A    between atoms: C_4  and  C_5
REMARK                            x       y       z     vdW  Elec       q    Type
REMARK                         _______ _______ _______ _____ _____    ______ ____
ROOT
ATOM      1  N   UNL     1      -6.041  -1.165 -18.511  0.00  0.00    -0.354 N 
ATOM      2  N   UNL     1      -4.608   0.451 -17.676  0.00  0.00    -0.372 N 
ATOM      3  N   UNL     1      -4.747   0.159 -19.948  0.00  0.00    -0.372 N 
ATOM      4  C   UNL     1      -5.141  -0.195 -18.720  0.00  0.00    +0.166 C 
ATOM      5  H   UNL     1      -6.275  -1.407 -17.555  0.00  0.00    +0.163 HD
ATOM      6  H   UNL     1      -3.928   1.189 -17.803  0.00  0.00    +0.159 HD
ATOM      7  H   UNL     1      -4.877   0.238 -16.723  0.00  0.00    +0.159 HD
ATOM      8  H   UNL     1      -5.107  -0.294 -20.777  0.00  0.00    +0.159 HD
ATOM      9  H   UNL     1      -4.060   0.888 -20.094  0.00  0.00    +0.159 HD
ENDROOT
BRANCH   1  10
ATOM     10  C   UNL     1      -6.722  -1.893 -19.580  0.00  0.00    +0.151 C 
BRANCH  10  11
ATOM     11  C   UNL     1      -8.191  -1.576 -19.533  0.00  0.00    -0.028 A 
ATOM     12  C   UNL     1      -8.790  -1.154 -18.337  0.00  0.00    +0.005 A 
ATOM     13  C   UNL     1      -8.988  -1.690 -20.682  0.00  0.00    +0.005 A 
ATOM     14  C   UNL     1     -10.149  -0.831 -18.300  0.00  0.00    +0.000 A 
ATOM     15  C   UNL     1     -10.344  -1.367 -20.641  0.00  0.00    +0.000 A 
ATOM     16  C   UNL     1     -10.924  -0.935 -19.450  0.00  0.00    +0.000 A 
ENDBRANCH  10  11
ENDBRANCH   1  10
TORSDOF 2
ENDMDL
MODEL 9
REMARK VINA RESULT:    -4.121     25.750     26.971
REMARK INTER + INTRA:          -4.762
REMARK INTER:                  -4.639
REMARK INTRA:                  -0.123
REMARK UNBOUND:                -0.159
REMARK  Name = 1550473
REMARK  2 active torsions:
REMARK  status: ('A' for Active; 'I' for Inactive)
REMARK    1  A    between atoms: N_1  and  C_4
REMARK    2  A    between atoms: C_4  and  C_5
REMARK                            x       y       z     vdW  Elec       q    Type
REMARK                         _______ _______ _______ _____ _____    ______ ____
ROOT
ATOM      1  N   UNL     1       7.544   7.012   8.127  0.00  0.00    -0.354 N 
ATOM      2  N   UNL     1       7.291   6.813   5.833  0.00  0.00    -0.372 N 
ATOM      3  N   UNL     1       9.182   5.966   6.818  0.00  0.00    -0.372 N 
ATOM      4  C   UNL     1       8.010   6.597   6.941  0.00  0.00    +0.166 C 
ATOM      5  H   UNL     1       6.662   7.512   8.149  0.00  0.00    +0.163 HD
ATOM      6  H   UNL     1       7.615   6.508   4.925  0.00  0.00    +0.159 HD
ATOM      7  H   UNL     1       6.389   7.272   5.864  0.00  0.00    +0.159 HD
ATOM      8  H   UNL     1       9.775   5.778   7.615  0.00  0.00    +0.159 HD
ATOM      9  H   UNL     1       9.529   5.663   5.916  0.00  0.00    +0.159 HD
ENDROOT
BRANCH   1  10
ATOM     10  C   UNL     1       8.224   6.780   9.399  0.00  0.00    +0.151 C 
BRANCH  10  11
ATOM     11  C   UNL     1       7.394   7.357  10.513  0.00  0.00    -0.028 A 
ATOM     12  C   UNL     1       6.110   7.859  10.256  0.00  0.00    +0.005 A 
ATOM     13  C   UNL     1       7.884   7.400  11.827  0.00  0.00    +0.005 A 
ATOM     14  C   UNL     1       5.326   8.369  11.295  0.00  0.00    +0.000 A 
ATOM     15  C   UNL     1       7.099   7.911  12.861  0.00  0.00    +0.000 A 
ATOM     16  C   UNL     1       5.820   8.392  12.595  0.00  0.00    +0.000 A 
ENDBRANCH  10  11
ENDBRANCH   1  10
TORSDOF 2
ENDMDL
