MODEL 1
REMARK VINA RESULT:    -5.335      0.000      0.000
REMARK INTER + INTRA:          -6.105
REMARK INTER:                  -5.959
REMARK INTRA:                  -0.147
REMARK UNBOUND:                -0.147
REMARK  Name = 1550473
REMARK  2 active torsions:
REMARK  status: ('A' for Active; 'I' for Inactive)
REMARK    1  A    between atoms: N_1  and  C_4
REMARK    2  A    between atoms: C_4  and  C_5
REMARK                            x       y       z     vdW  Elec       q    Type
REMARK                         _______ _______ _______ _____ _____    ______ ____
ROOT
ATOM      1  N   UNL     1      -3.206  -8.224  14.285  0.00  0.00    -0.354 N 
ATOM      2  N   UNL     1      -4.211  -6.411  13.250  0.00  0.00    -0.372 N 
ATOM      3  N   UNL     1      -4.105  -6.461  15.542  0.00  0.00    -0.372 N 
ATOM      4  C   UNL     1      -3.834  -7.043  14.368  0.00  0.00    +0.166 C 
ATOM      5  H   UNL     1      -3.058  -8.626  13.366  0.00  0.00    +0.163 HD
ATOM      6  H   UNL     1      -4.683  -5.518  13.282  0.00  0.00    +0.159 HD
ATOM      7  H   UNL     1      -4.020  -6.794  12.332  0.00  0.00    +0.159 HD
ATOM      8  H   UNL     1      -3.852  -6.890  16.422  0.00  0.00    +0.159 HD
ATOM      9  H   UNL     1      -4.587  -5.573  15.594  0.00  0.00    +0.159 HD
ENDROOT
BRANCH   1  10
ATOM     10  C   UNL     1      -2.708  -8.968  15.440  0.00  0.00    +0.151 C 
BRANCH  10  11
ATOM     11  C   UNL     1      -3.305 -10.348  15.430  0.00  0.00    -0.028 A 
ATOM     12  C   UNL     1      -3.116 -11.214  16.517  0.00  0.00    +0.005 A 
ATOM     13  C   UNL     1      -4.066 -10.794  14.338  0.00  0.00    +0.005 A 
ATOM     14  C   UNL     1      -3.695 -12.485  16.521  0.00  0.00    +0.000 A 
ATOM     15  C   UNL     1      -4.642 -12.065  14.346  0.00  0.00    +0.000 A 
ATOM     16  C   UNL     1      -4.459 -12.909  15.438  0.00  0.00    +0.000 A 
ENDBRANCH  10  11
ENDBRANCH   1  10
TORSDOF 2
ENDMDL
MODEL 2
REMARK VINA RESULT:    -5.293      0.285      1.458
REMARK INTER + INTRA:          -6.059
REMARK INTER:                  -5.919
REMARK INTRA:                  -0.140
REMARK UNBOUND:                -0.147
REMARK  Name = 1550473
REMARK  2 active torsions:
REMARK  status: ('A' for Active; 'I' for Inactive)
REMARK    1  A    between atoms: N_1  and  C_4
REMARK    2  A    between atoms: C_4  and  C_5
REMARK                            x       y       z     vdW  Elec       q    Type
REMARK                         _______ _______ _______ _____ _____    ______ ____
ROOT
ATOM      1  N   UNL     1      -3.421  -8.339  14.346  0.00  0.00    -0.354 N 
ATOM      2  N   UNL     1      -4.240  -6.465  13.258  0.00  0.00    -0.372 N 
ATOM      3  N   UNL     1      -4.008  -6.409  15.540  0.00  0.00    -0.372 N 
ATOM      4  C   UNL     1      -3.885  -7.082  14.392  0.00  0.00    +0.166 C 
ATOM      5  H   UNL     1      -3.380  -8.804  13.447  0.00  0.00    +0.163 HD
ATOM      6  H   UNL     1      -4.590  -5.516  13.261  0.00  0.00    +0.159 HD
ATOM      7  H   UNL     1      -4.155  -6.917  12.356  0.00  0.00    +0.159 HD
ATOM      8  H   UNL     1      -3.763  -6.821  16.431  0.00  0.00    +0.159 HD
ATOM      9  H   UNL     1      -4.367  -5.463  15.565  0.00  0.00    +0.159 HD
ENDROOT
BRANCH   1  10
ATOM     10  C   UNL     1      -2.957  -9.081  15.517  0.00  0.00    +0.151 C 
BRANCH  10  11
ATOM     11  C   UNL     1      -3.468 -10.493  15.437  0.00  0.00    -0.028 A 
ATOM     12  C   UNL     1      -4.422 -10.852  14.474  0.00  0.00    +0.005 A 
ATOM     13  C   UNL     1      -2.997 -11.479  16.317  0.00  0.00    +0.005 A 
ATOM     14  C   UNL     1      -4.875 -12.170  14.379  0.00  0.00    +0.000 A 
ATOM     15  C   UNL     1      -3.451 -12.794  16.220  0.00  0.00    +0.000 A 
ATOM     16  C   UNL     1      -4.389 -13.140  15.250  0.00  0.00    +0.000 A 
ENDBRANCH  10  11
ENDBRANCH   1  10
TORSDOF 2
ENDMDL
MODEL 3
REMARK VINA RESULT:    -5.263      5.960      6.926
REMARK INTER + INTRA:          -6.025
REMARK INTER:                  -5.909
REMARK INTRA:                  -0.115
REMARK UNBOUND:                -0.147
REMARK  Name = 1550473
REMARK  2 active torsions:
REMARK  status: ('A' for Active; 'I' for Inactive)
REMARK    1  A    between atoms: N_1  and  C_4
REMARK    2  A    between atoms: C_4  and  C_5
REMARK                            x       y       z     vdW  Elec       q    Type
REMARK                         _______ _______ _______ _____ _____    ______ ____
ROOT
ATOM      1  N   UNL     1       0.627 -10.522  14.599  0.00  0.00    -0.354 N 
ATOM      2  N   UNL     1      -1.388  -9.388  14.466  0.00  0.00    -0.372 N 
ATOM      3  N   UNL     1      -0.747 -10.719  12.710  0.00  0.00    -0.372 N 
ATOM      4  C   UNL     1      -0.489 -10.218  13.923  0.00  0.00    +0.166 C 
ATOM      5  H   UNL     1       0.777 -10.086  15.501  0.00  0.00    +0.163 HD
ATOM      6  H   UNL     1      -2.241  -9.142  13.981  0.00  0.00    +0.159 HD
ATOM      7  H   UNL     1      -1.256  -8.989  15.387  0.00  0.00    +0.159 HD
ATOM      8  H   UNL     1      -0.106 -11.347  12.243  0.00  0.00    +0.159 HD
ATOM      9  H   UNL     1      -1.589 -10.476  12.204  0.00  0.00    +0.159 HD
ENDROOT
BRANCH   1  10
ATOM     10  C   UNL     1       1.643 -11.458  14.120  0.00  0.00    +0.151 C 
BRANCH  10  11
ATOM     11  C   UNL     1       2.893 -11.287  14.939  0.00  0.00    -0.028 A 
ATOM     12  C   UNL     1       2.815 -10.895  16.284  0.00  0.00    +0.005 A 
ATOM     13  C   UNL     1       4.157 -11.522  14.379  0.00  0.00    +0.005 A 
ATOM     14  C   UNL     1       3.973 -10.766  17.054  0.00  0.00    +0.000 A 
ATOM     15  C   UNL     1       5.312 -11.390  15.150  0.00  0.00    +0.000 A 
ATOM     16  C   UNL     1       5.219 -11.015  16.488  0.00  0.00    +0.000 A 
ENDBRANCH  10  11
ENDBRANCH   1  10
TORSDOF 2
ENDMDL
MODEL 4
REMARK VINA RESULT:    -5.096      2.381      3.385
REMARK INTER + INTRA:          -5.839
REMARK INTER:                  -5.826
REMARK INTRA:                  -0.013
REMARK UNBOUND:                -0.147
REMARK  Name = 1550473
REMARK  2 active torsions:
REMARK  status: ('A' for Active; 'I' for Inactive)
REMARK    1  A    between atoms: N_1  and  C_4
REMARK    2  A    between atoms: C_4  and  C_5
REMARK                            x       y       z     vdW  Elec       q    Type
REMARK                         _______ _______ _______ _____ _____    ______ ____
ROOT
ATOM      1  N   UNL     1      -2.494  -7.868  15.033  0.00  0.00    -0.354 N 
ATOM      2  N   UNL     1      -1.063  -8.826  16.582  0.00  0.00    -0.372 N 
ATOM      3  N   UNL     1      -3.011  -7.864  17.319  0.00  0.00    -0.372 N 
ATOM      4  C   UNL     1      -2.201  -8.179  16.303  0.00  0.00    +0.166 C 
ATOM      5  H   UNL     1      -1.824  -8.108  14.312  0.00  0.00    +0.163 HD
ATOM      6  H   UNL     1      -0.816  -9.076  17.530  0.00  0.00    +0.159 HD
ATOM      7  H   UNL     1      -0.416  -9.105  15.854  0.00  0.00    +0.159 HD
ATOM      8  H   UNL     1      -3.882  -7.370  17.176  0.00  0.00    +0.159 HD
ATOM      9  H   UNL     1      -2.776  -8.096  18.276  0.00  0.00    +0.159 HD
ENDROOT
BRANCH   1  10
ATOM     10  C   UNL     1      -3.733  -7.212  14.617  0.00  0.00    +0.151 C 
BRANCH  10  11
ATOM     11  C   UNL     1      -4.856  -8.211  14.660  0.00  0.00    -0.028 A 
ATOM     12  C   UNL     1      -4.738  -9.443  13.999  0.00  0.00    +0.005 A 
ATOM     13  C   UNL     1      -6.038  -7.935  15.364  0.00  0.00    +0.005 A 
ATOM     14  C   UNL     1      -5.769 -10.383  14.063  0.00  0.00    +0.000 A 
ATOM     15  C   UNL     1      -7.065  -8.876  15.424  0.00  0.00    +0.000 A 
ATOM     16  C   UNL     1      -6.930 -10.101  14.776  0.00  0.00    +0.000 A 
ENDBRANCH  10  11
ENDBRANCH   1  10
TORSDOF 2
ENDMDL
MODEL 5
REMARK VINA RESULT:    -5.072      2.446      3.587
REMARK INTER + INTRA:          -5.812
REMARK INTER:                  -5.639
REMARK INTRA:                  -0.173
REMARK UNBOUND:                -0.147
REMARK  Name = 1550473
REMARK  2 active torsions:
REMARK  status: ('A' for Active; 'I' for Inactive)
REMARK    1  A    between atoms: N_1  and  C_4
REMARK    2  A    between atoms: C_4  and  C_5
REMARK                            x       y       z     vdW  Elec       q    Type
REMARK                         _______ _______ _______ _____ _____    ______ ____
ROOT
ATOM      1  N   UNL     1      -1.402  -9.417  14.643  0.00  0.00    -0.354 N 
ATOM      2  N   UNL     1       0.110  -9.869  12.948  0.00  0.00    -0.372 N 
ATOM      3  N   UNL     1      -0.487 -11.558  14.382  0.00  0.00    -0.372 N 
ATOM      4  C   UNL     1      -0.603 -10.281  14.003  0.00  0.00    +0.166 C 
ATOM      5  H   UNL     1      -1.422  -8.455  14.325  0.00  0.00    +0.163 HD
ATOM      6  H   UNL     1       0.718 -10.500  12.443  0.00  0.00    +0.159 HD
ATOM      7  H   UNL     1       0.052  -8.918  12.604  0.00  0.00    +0.159 HD
ATOM      8  H   UNL     1      -0.993 -11.930  15.174  0.00  0.00    +0.159 HD
ATOM      9  H   UNL     1       0.126 -12.201  13.896  0.00  0.00    +0.159 HD
ENDROOT
BRANCH   1  10
ATOM     10  C   UNL     1      -2.260  -9.777  15.770  0.00  0.00    +0.151 C 
BRANCH  10  11
ATOM     11  C   UNL     1      -3.677  -9.913  15.285  0.00  0.00    -0.028 A 
ATOM     12  C   UNL     1      -4.553  -8.818  15.330  0.00  0.00    +0.005 A 
ATOM     13  C   UNL     1      -4.148 -11.131  14.773  0.00  0.00    +0.005 A 
ATOM     14  C   UNL     1      -5.860  -8.935  14.852  0.00  0.00    +0.000 A 
ATOM     15  C   UNL     1      -5.455 -11.244  14.297  0.00  0.00    +0.000 A 
ATOM     16  C   UNL     1      -6.309 -10.145  14.335  0.00  0.00    +0.000 A 
ENDBRANCH  10  11
ENDBRANCH   1  10
TORSDOF 2
ENDMDL
MODEL 6
REMARK VINA RESULT:    -4.869      2.544      4.459
REMARK INTER + INTRA:          -5.585
REMARK INTER:                  -5.467
REMARK INTRA:                  -0.117
REMARK UNBOUND:                -0.147
REMARK  Name = 1550473
REMARK  2 active torsions:
REMARK  status: ('A' for Active; 'I' for Inactive)
REMARK    1  A    between atoms: N_1  and  C_4
REMARK    2  A    between atoms: C_4  and  C_5
REMARK                            x       y       z     vdW  Elec       q    Type
REMARK                         _______ _______ _______ _____ _____    ______ ____
ROOT
ATOM      1  N   UNL     1      -2.117  -9.783  14.010  0.00  0.00    -0.354 N 
ATOM      2  N   UNL     1       0.036  -9.904  13.166  0.00  0.00    -0.372 N 
ATOM      3  N   UNL     1      -0.643 -11.471  14.698  0.00  0.00    -0.372 N 
ATOM      4  C   UNL     1      -0.922 -10.387  13.965  0.00  0.00    +0.166 C 
ATOM      5  H   UNL     1      -2.255  -8.948  13.453  0.00  0.00    +0.163 HD
ATOM      6  H   UNL     1       0.947 -10.340  13.108  0.00  0.00    +0.159 HD
ATOM      7  H   UNL     1      -0.120  -9.096  12.575  0.00  0.00    +0.159 HD
ATOM      8  H   UNL     1      -1.321 -11.881  15.326  0.00  0.00    +0.159 HD
ATOM      9  H   UNL     1       0.266 -11.915  14.663  0.00  0.00    +0.159 HD
ENDROOT
BRANCH   1  10
ATOM     10  C   UNL     1      -3.245 -10.261  14.807  0.00  0.00    +0.151 C 
BRANCH  10  11
ATOM     11  C   UNL     1      -3.951  -9.082  15.417  0.00  0.00    -0.028 A 
ATOM     12  C   UNL     1      -5.156  -8.615  14.874  0.00  0.00    +0.005 A 
ATOM     13  C   UNL     1      -3.421  -8.430  16.542  0.00  0.00    +0.005 A 
ATOM     14  C   UNL     1      -5.827  -7.538  15.459  0.00  0.00    +0.000 A 
ATOM     15  C   UNL     1      -4.094  -7.355  17.122  0.00  0.00    +0.000 A 
ATOM     16  C   UNL     1      -5.298  -6.911  16.582  0.00  0.00    +0.000 A 
ENDBRANCH  10  11
ENDBRANCH   1  10
TORSDOF 2
ENDMDL
MODEL 7
REMARK VINA RESULT:    -4.845      4.638      5.327
REMARK INTER + INTRA:          -5.558
REMARK INTER:                  -5.377
REMARK INTRA:                  -0.181
REMARK UNBOUND:                -0.147
REMARK  Name = 1550473
REMARK  2 active torsions:
REMARK  status: ('A' for Active; 'I' for Inactive)
REMARK    1  A    between atoms: N_1  and  C_4
REMARK    2  A    between atoms: C_4  and  C_5
REMARK                            x       y       z     vdW  Elec       q    Type
REMARK                         _______ _______ _______ _____ _____    ______ ____
ROOT
ATOM      1  N   UNL     1      -0.744 -10.057  15.359  0.00  0.00    -0.354 N 
ATOM      2  N   UNL     1      -2.152  -8.322  14.750  0.00  0.00    -0.372 N 
ATOM      3  N   UNL     1      -2.485 -10.397  13.828  0.00  0.00    -0.372 N 
ATOM      4  C   UNL     1      -1.785  -9.606  14.648  0.00  0.00    +0.166 C 
ATOM      5  H   UNL     1      -0.236  -9.400  15.940  0.00  0.00    +0.163 HD
ATOM      6  H   UNL     1      -2.936  -7.954  14.228  0.00  0.00    +0.159 HD
ATOM      7  H   UNL     1      -1.671  -7.678  15.366  0.00  0.00    +0.159 HD
ATOM      8  H   UNL     1      -2.255 -11.374  13.701  0.00  0.00    +0.159 HD
ATOM      9  H   UNL     1      -3.265 -10.043  13.288  0.00  0.00    +0.159 HD
ENDROOT
BRANCH   1  10
ATOM     10  C   UNL     1      -0.297 -11.449  15.361  0.00  0.00    +0.151 C 
BRANCH  10  11
ATOM     11  C   UNL     1       0.919 -11.576  14.485  0.00  0.00    -0.028 A 
ATOM     12  C   UNL     1       2.175 -11.154  14.946  0.00  0.00    +0.005 A 
ATOM     13  C   UNL     1       0.823 -12.121  13.196  0.00  0.00    +0.005 A 
ATOM     14  C   UNL     1       3.310 -11.299  14.144  0.00  0.00    +0.000 A 
ATOM     15  C   UNL     1       1.958 -12.263  12.398  0.00  0.00    +0.000 A 
ATOM     16  C   UNL     1       3.202 -11.854  12.873  0.00  0.00    +0.000 A 
ENDBRANCH  10  11
ENDBRANCH   1  10
TORSDOF 2
ENDMDL
MODEL 8
REMARK VINA RESULT:    -4.806     16.079     17.379
REMARK INTER + INTRA:          -5.515
REMARK INTER:                  -5.354
REMARK INTRA:                  -0.161
REMARK UNBOUND:                -0.147
REMARK  Name = 1550473
REMARK  2 active torsions:
REMARK  status: ('A' for Active; 'I' for Inactive)
REMARK    1  A    between atoms: N_1  and  C_4
REMARK    2  A    between atoms: C_4  and  C_5
REMARK                            x       y       z     vdW  Elec       q    Type
REMARK                         _______ _______ _______ _____ _____    ______ ____
ROOT
ATOM      1  N   UNL     1      11.034  -1.797  15.322  0.00  0.00    -0.354 N 
ATOM      2  N   UNL     1       9.796  -1.874  17.278  0.00  0.00    -0.372 N 
ATOM      3  N   UNL     1       8.892  -2.746  15.357  0.00  0.00    -0.372 N 
ATOM      4  C   UNL     1       9.913  -2.139  15.971  0.00  0.00    +0.166 C 
ATOM      5  H   UNL     1      11.760  -1.312  15.837  0.00  0.00    +0.163 HD
ATOM      6  H   UNL     1       8.963  -2.124  17.795  0.00  0.00    +0.159 HD
ATOM      7  H   UNL     1      10.541  -1.430  17.800  0.00  0.00    +0.159 HD
ATOM      8  H   UNL     1       8.916  -2.969  14.371  0.00  0.00    +0.159 HD
ATOM      9  H   UNL     1       8.046  -2.994  15.855  0.00  0.00    +0.159 HD
ENDROOT
BRANCH   1  10
ATOM     10  C   UNL     1      11.284  -2.089  13.912  0.00  0.00    +0.151 C 
BRANCH  10  11
ATOM     11  C   UNL     1      12.422  -3.067  13.807  0.00  0.00    -0.028 A 
ATOM     12  C   UNL     1      12.173  -4.447  13.758  0.00  0.00    +0.005 A 
ATOM     13  C   UNL     1      13.751  -2.620  13.752  0.00  0.00    +0.005 A 
ATOM     14  C   UNL     1      13.227  -5.354  13.630  0.00  0.00    +0.000 A 
ATOM     15  C   UNL     1      14.801  -3.530  13.625  0.00  0.00    +0.000 A 
ATOM     16  C   UNL     1      14.539  -4.896  13.562  0.00  0.00    +0.000 A 
ENDBRANCH  10  11
ENDBRANCH   1  10
TORSDOF 2
ENDMDL
MODEL 9
REMARK VINA RESULT:    -4.745     15.861     17.027
REMARK INTER + INTRA:          -5.447
REMARK INTER:                  -5.326
REMARK INTRA:                  -0.121
REMARK UNBOUND:                -0.147
REMARK  Name = 1550473
REMARK  2 active torsions:
REMARK  status: ('A' for Active; 'I' for Inactive)
REMARK    1  A    between atoms: N_1  and  C_4
REMARK    2  A    between atoms: C_4  and  C_5
REMARK                            x       y       z     vdW  Elec       q    Type
REMARK                         _______ _______ _______ _____ _____    ______ ____
ROOT
ATOM      1  N   UNL     1     -16.397  -7.127   2.851  0.00  0.00    -0.354 N 
ATOM      2  N   UNL     1     -17.051  -4.907   2.949  0.00  0.00    -0.372 N 
ATOM      3  N   UNL     1     -17.743  -6.190   1.177  0.00  0.00    -0.372 N 
ATOM      4  C   UNL     1     -17.060  -6.090   2.323  0.00  0.00    +0.166 C 
ATOM      5  H   UNL     1     -15.874  -6.978   3.707  0.00  0.00    +0.163 HD
ATOM      6  H   UNL     1     -17.545  -4.108   2.576  0.00  0.00    +0.159 HD
ATOM      7  H   UNL     1     -16.565  -4.774   3.828  0.00  0.00    +0.159 HD
ATOM      8  H   UNL     1     -17.785  -7.054   0.652  0.00  0.00    +0.159 HD
ATOM      9  H   UNL     1     -18.234  -5.399   0.782  0.00  0.00    +0.159 HD
ENDROOT
BRANCH   1  10
ATOM     10  C   UNL     1     -16.388  -8.471   2.276  0.00  0.00    +0.151 C 
BRANCH  10  11
ATOM     11  C   UNL     1     -15.388  -9.315   3.017  0.00  0.00    -0.028 A 
ATOM     12  C   UNL     1     -14.917 -10.513   2.460  0.00  0.00    +0.005 A 
ATOM     13  C   UNL     1     -14.903  -8.920   4.273  0.00  0.00    +0.005 A 
ATOM     14  C   UNL     1     -13.965 -11.283   3.133  0.00  0.00    +0.000 A 
ATOM     15  C   UNL     1     -13.953  -9.691   4.942  0.00  0.00    +0.000 A 
ATOM     16  C   UNL     1     -13.483 -10.871   4.371  0.00  0.00    +0.000 A 
ENDBRANCH  10  11
ENDBRANCH   1  10
TORSDOF 2
ENDMDL
