MODEL 1
REMARK VINA RESULT:    -7.631      0.000      0.000
REMARK INTER + INTRA:          -8.651
REMARK INTER:                  -8.523
REMARK INTRA:                  -0.128
REMARK UNBOUND:                -0.128
REMARK  Name = 1550473
REMARK  2 active torsions:
REMARK  status: ('A' for Active; 'I' for Inactive)
REMARK    1  A    between atoms: N_1  and  C_4
REMARK    2  A    between atoms: C_4  and  C_5
REMARK                            x       y       z     vdW  Elec       q    Type
REMARK                         _______ _______ _______ _____ _____    ______ ____
ROOT
ATOM      1  N   UNL     1       3.314  -0.018   4.230  0.00  0.00    -0.354 N 
ATOM      2  N   UNL     1       2.574  -0.560   2.103  0.00  0.00    -0.372 N 
ATOM      3  N   UNL     1       3.016  -2.253   3.588  0.00  0.00    -0.372 N 
ATOM      4  C   UNL     1       2.973  -0.943   3.322  0.00  0.00    +0.166 C 
ATOM      5  H   UNL     1       3.289   0.957   3.956  0.00  0.00    +0.163 HD
ATOM      6  H   UNL     1       2.307  -1.234   1.398  0.00  0.00    +0.159 HD
ATOM      7  H   UNL     1       2.506   0.418   1.847  0.00  0.00    +0.159 HD
ATOM      8  H   UNL     1       3.315  -2.607   4.486  0.00  0.00    +0.159 HD
ATOM      9  H   UNL     1       2.765  -2.943   2.892  0.00  0.00    +0.159 HD
ENDROOT
BRANCH   1  10
ATOM     10  C   UNL     1       3.711  -0.328   5.602  0.00  0.00    +0.151 C 
BRANCH  10  11
ATOM     11  C   UNL     1       3.478   0.881   6.465  0.00  0.00    -0.028 A 
ATOM     12  C   UNL     1       3.982   0.929   7.774  0.00  0.00    +0.005 A 
ATOM     13  C   UNL     1       2.760   1.984   5.979  0.00  0.00    +0.005 A 
ATOM     14  C   UNL     1       3.791   2.064   8.566  0.00  0.00    +0.000 A 
ATOM     15  C   UNL     1       2.571   3.115   6.773  0.00  0.00    +0.000 A 
ATOM     16  C   UNL     1       3.089   3.156   8.065  0.00  0.00    +0.000 A 
ENDBRANCH  10  11
ENDBRANCH   1  10
TORSDOF 2
ENDMDL
MODEL 2
REMARK VINA RESULT:    -6.119      2.829      4.784
REMARK INTER + INTRA:          -6.962
REMARK INTER:                  -6.955
REMARK INTRA:                  -0.007
REMARK UNBOUND:                -0.128
REMARK  Name = 1550473
REMARK  2 active torsions:
REMARK  status: ('A' for Active; 'I' for Inactive)
REMARK    1  A    between atoms: N_1  and  C_4
REMARK    2  A    between atoms: C_4  and  C_5
REMARK                            x       y       z     vdW  Elec       q    Type
REMARK                         _______ _______ _______ _____ _____    ______ ____
ROOT
ATOM      1  N   UNL     1       4.058   1.176   7.507  0.00  0.00    -0.354 N 
ATOM      2  N   UNL     1       3.386   3.113   8.584  0.00  0.00    -0.372 N 
ATOM      3  N   UNL     1       1.982   1.298   8.588  0.00  0.00    -0.372 N 
ATOM      4  C   UNL     1       3.144   1.848   8.219  0.00  0.00    +0.166 C 
ATOM      5  H   UNL     1       4.905   1.659   7.233  0.00  0.00    +0.163 HD
ATOM      6  H   UNL     1       2.717   3.644   9.125  0.00  0.00    +0.159 HD
ATOM      7  H   UNL     1       4.254   3.579   8.348  0.00  0.00    +0.159 HD
ATOM      8  H   UNL     1       1.736   0.350   8.339  0.00  0.00    +0.159 HD
ATOM      9  H   UNL     1       1.294   1.818   9.119  0.00  0.00    +0.159 HD
ENDROOT
BRANCH   1  10
ATOM     10  C   UNL     1       3.915  -0.222   7.105  0.00  0.00    +0.151 C 
BRANCH  10  11
ATOM     11  C   UNL     1       3.518  -0.279   5.656  0.00  0.00    -0.028 A 
ATOM     12  C   UNL     1       3.718  -1.449   4.909  0.00  0.00    +0.005 A 
ATOM     13  C   UNL     1       2.936   0.831   5.026  0.00  0.00    +0.005 A 
ATOM     14  C   UNL     1       3.322  -1.513   3.570  0.00  0.00    +0.000 A 
ATOM     15  C   UNL     1       2.542   0.764   3.689  0.00  0.00    +0.000 A 
ATOM     16  C   UNL     1       2.733  -0.409   2.963  0.00  0.00    +0.000 A 
ENDBRANCH  10  11
ENDBRANCH   1  10
TORSDOF 2
ENDMDL
MODEL 3
REMARK VINA RESULT:    -4.700     11.885     13.058
REMARK INTER + INTRA:          -5.378
REMARK INTER:                  -5.207
REMARK INTRA:                  -0.171
REMARK UNBOUND:                -0.128
REMARK  Name = 1550473
REMARK  2 active torsions:
REMARK  status: ('A' for Active; 'I' for Inactive)
REMARK    1  A    between atoms: N_1  and  C_4
REMARK    2  A    between atoms: C_4  and  C_5
REMARK                            x       y       z     vdW  Elec       q    Type
REMARK                         _______ _______ _______ _____ _____    ______ ____
ROOT
ATOM      1  N   UNL     1       9.633   2.903  -4.868  0.00  0.00    -0.354 N 
ATOM      2  N   UNL     1       9.137   5.127  -5.287  0.00  0.00    -0.372 N 
ATOM      3  N   UNL     1      10.804   4.115  -6.496  0.00  0.00    -0.372 N 
ATOM      4  C   UNL     1       9.863   4.034  -5.550  0.00  0.00    +0.166 C 
ATOM      5  H   UNL     1       8.926   2.915  -4.142  0.00  0.00    +0.163 HD
ATOM      6  H   UNL     1       9.286   5.993  -5.787  0.00  0.00    +0.159 HD
ATOM      7  H   UNL     1       8.400   5.123  -4.592  0.00  0.00    +0.159 HD
ATOM      8  H   UNL     1      11.391   3.328  -6.738  0.00  0.00    +0.159 HD
ATOM      9  H   UNL     1      10.976   4.977  -7.000  0.00  0.00    +0.159 HD
ENDROOT
BRANCH   1  10
ATOM     10  C   UNL     1      10.331   1.643  -5.115  0.00  0.00    +0.151 C 
BRANCH  10  11
ATOM     11  C   UNL     1      11.206   1.328  -3.933  0.00  0.00    -0.028 A 
ATOM     12  C   UNL     1      10.775   0.427  -2.948  0.00  0.00    +0.005 A 
ATOM     13  C   UNL     1      12.470   1.921  -3.795  0.00  0.00    +0.005 A 
ATOM     14  C   UNL     1      11.600   0.111  -1.866  0.00  0.00    +0.000 A 
ATOM     15  C   UNL     1      13.291   1.604  -2.713  0.00  0.00    +0.000 A 
ATOM     16  C   UNL     1      12.856   0.696  -1.750  0.00  0.00    +0.000 A 
ENDBRANCH  10  11
ENDBRANCH   1  10
TORSDOF 2
ENDMDL
