MODEL 1
REMARK VINA RESULT:    -4.439      0.000      0.000
REMARK INTER + INTRA:          -5.097
REMARK INTER:                  -4.958
REMARK INTRA:                  -0.139
REMARK UNBOUND:                -0.139
REMARK  Name = 1550473
REMARK  2 active torsions:
REMARK  status: ('A' for Active; 'I' for Inactive)
REMARK    1  A    between atoms: N_1  and  C_4
REMARK    2  A    between atoms: C_4  and  C_5
REMARK                            x       y       z     vdW  Elec       q    Type
REMARK                         _______ _______ _______ _____ _____    ______ ____
ROOT
ATOM      1  N   UNL     1      12.910  17.122  20.414  0.00  0.00    -0.354 N 
ATOM      2  N   UNL     1      14.449  18.158  19.028  0.00  0.00    -0.372 N 
ATOM      3  N   UNL     1      15.184  16.563  20.505  0.00  0.00    -0.372 N 
ATOM      4  C   UNL     1      14.173  17.273  19.993  0.00  0.00    +0.166 C 
ATOM      5  H   UNL     1      12.193  17.711  20.006  0.00  0.00    +0.163 HD
ATOM      6  H   UNL     1      15.392  18.292  18.687  0.00  0.00    +0.159 HD
ATOM      7  H   UNL     1      13.724  18.713  18.590  0.00  0.00    +0.159 HD
ATOM      8  H   UNL     1      15.043  15.883  21.240  0.00  0.00    +0.159 HD
ATOM      9  H   UNL     1      16.136  16.691  20.186  0.00  0.00    +0.159 HD
ENDROOT
BRANCH   1  10
ATOM     10  C   UNL     1      12.495  16.147  21.421  0.00  0.00    +0.151 C 
BRANCH  10  11
ATOM     11  C   UNL     1      11.702  16.850  22.488  0.00  0.00    -0.028 A 
ATOM     12  C   UNL     1      11.991  18.179  22.830  0.00  0.00    +0.005 A 
ATOM     13  C   UNL     1      10.656  16.195  23.156  0.00  0.00    +0.005 A 
ATOM     14  C   UNL     1      11.235  18.843  23.799  0.00  0.00    +0.000 A 
ATOM     15  C   UNL     1       9.904  16.861  24.123  0.00  0.00    +0.000 A 
ATOM     16  C   UNL     1      10.192  18.185  24.443  0.00  0.00    +0.000 A 
ENDBRANCH  10  11
ENDBRANCH   1  10
TORSDOF 2
ENDMDL
MODEL 2
REMARK VINA RESULT:    -4.330     39.330     40.607
REMARK INTER + INTRA:          -4.975
REMARK INTER:                  -4.854
REMARK INTRA:                  -0.121
REMARK UNBOUND:                -0.139
REMARK  Name = 1550473
REMARK  2 active torsions:
REMARK  status: ('A' for Active; 'I' for Inactive)
REMARK    1  A    between atoms: N_1  and  C_4
REMARK    2  A    between atoms: C_4  and  C_5
REMARK                            x       y       z     vdW  Elec       q    Type
REMARK                         _______ _______ _______ _____ _____    ______ ____
ROOT
ATOM      1  N   UNL     1       0.228   3.870 -15.945  0.00  0.00    -0.354 N 
ATOM      2  N   UNL     1      -0.814   3.355 -17.948  0.00  0.00    -0.372 N 
ATOM      3  N   UNL     1       0.189   1.671 -16.755  0.00  0.00    -0.372 N 
ATOM      4  C   UNL     1      -0.124   2.966 -16.869  0.00  0.00    +0.166 C 
ATOM      5  H   UNL     1      -0.013   4.841 -16.105  0.00  0.00    +0.163 HD
ATOM      6  H   UNL     1      -1.097   2.695 -18.660  0.00  0.00    +0.159 HD
ATOM      7  H   UNL     1      -1.094   4.319 -18.083  0.00  0.00    +0.159 HD
ATOM      8  H   UNL     1       0.713   1.314 -15.967  0.00  0.00    +0.159 HD
ATOM      9  H   UNL     1      -0.075   0.997 -17.463  0.00  0.00    +0.159 HD
ENDROOT
BRANCH   1  10
ATOM     10  C   UNL     1       0.934   3.541 -14.707  0.00  0.00    +0.151 C 
BRANCH  10  11
ATOM     11  C   UNL     1       0.358   4.357 -13.582  0.00  0.00    -0.028 A 
ATOM     12  C   UNL     1      -0.941   4.110 -13.116  0.00  0.00    +0.005 A 
ATOM     13  C   UNL     1       1.109   5.375 -12.975  0.00  0.00    +0.005 A 
ATOM     14  C   UNL     1      -1.465   4.847 -12.052  0.00  0.00    +0.000 A 
ATOM     15  C   UNL     1       0.582   6.110 -11.913  0.00  0.00    +0.000 A 
ATOM     16  C   UNL     1      -0.704   5.844 -11.450  0.00  0.00    +0.000 A 
ENDBRANCH  10  11
ENDBRANCH   1  10
TORSDOF 2
ENDMDL
MODEL 3
REMARK VINA RESULT:    -4.255      0.824      1.999
REMARK INTER + INTRA:          -4.891
REMARK INTER:                  -4.796
REMARK INTRA:                  -0.095
REMARK UNBOUND:                -0.139
REMARK  Name = 1550473
REMARK  2 active torsions:
REMARK  status: ('A' for Active; 'I' for Inactive)
REMARK    1  A    between atoms: N_1  and  C_4
REMARK    2  A    between atoms: C_4  and  C_5
REMARK                            x       y       z     vdW  Elec       q    Type
REMARK                         _______ _______ _______ _____ _____    ______ ____
ROOT
ATOM      1  N   UNL     1      14.021  17.560  21.661  0.00  0.00    -0.354 N 
ATOM      2  N   UNL     1      15.368  16.379  20.193  0.00  0.00    -0.372 N 
ATOM      3  N   UNL     1      13.653  17.648  19.348  0.00  0.00    -0.372 N 
ATOM      4  C   UNL     1      14.336  17.204  20.409  0.00  0.00    +0.166 C 
ATOM      5  H   UNL     1      14.559  17.165  22.424  0.00  0.00    +0.163 HD
ATOM      6  H   UNL     1      15.632  16.096  19.259  0.00  0.00    +0.159 HD
ATOM      7  H   UNL     1      15.933  16.022  20.954  0.00  0.00    +0.159 HD
ATOM      8  H   UNL     1      12.860  18.269  19.444  0.00  0.00    +0.159 HD
ATOM      9  H   UNL     1      13.895  17.367  18.406  0.00  0.00    +0.159 HD
ENDROOT
BRANCH   1  10
ATOM     10  C   UNL     1      12.950  18.496  22.000  0.00  0.00    +0.151 C 
BRANCH  10  11
ATOM     11  C   UNL     1      11.873  17.759  22.747  0.00  0.00    -0.028 A 
ATOM     12  C   UNL     1      11.696  16.380  22.566  0.00  0.00    +0.005 A 
ATOM     13  C   UNL     1      11.028  18.434  23.642  0.00  0.00    +0.005 A 
ATOM     14  C   UNL     1      10.715  15.690  23.282  0.00  0.00    +0.000 A 
ATOM     15  C   UNL     1      10.049  17.742  24.355  0.00  0.00    +0.000 A 
ATOM     16  C   UNL     1       9.895  16.369  24.176  0.00  0.00    +0.000 A 
ENDBRANCH  10  11
ENDBRANCH   1  10
TORSDOF 2
ENDMDL
MODEL 4
REMARK VINA RESULT:    -4.132     40.680     41.929
REMARK INTER + INTRA:          -4.754
REMARK INTER:                  -4.619
REMARK INTRA:                  -0.134
REMARK UNBOUND:                -0.139
REMARK  Name = 1550473
REMARK  2 active torsions:
REMARK  status: ('A' for Active; 'I' for Inactive)
REMARK    1  A    between atoms: N_1  and  C_4
REMARK    2  A    between atoms: C_4  and  C_5
REMARK                            x       y       z     vdW  Elec       q    Type
REMARK                         _______ _______ _______ _____ _____    ______ ____
ROOT
ATOM      1  N   UNL     1      -0.762   3.281 -16.954  0.00  0.00    -0.354 N 
ATOM      2  N   UNL     1      -1.254   3.180 -19.215  0.00  0.00    -0.372 N 
ATOM      3  N   UNL     1       0.833   3.877 -18.564  0.00  0.00    -0.372 N 
ATOM      4  C   UNL     1      -0.388   3.447 -18.230  0.00  0.00    +0.166 C 
ATOM      5  H   UNL     1      -1.712   2.981 -16.766  0.00  0.00    +0.163 HD
ATOM      6  H   UNL     1      -1.000   3.293 -20.187  0.00  0.00    +0.159 HD
ATOM      7  H   UNL     1      -2.188   2.837 -19.025  0.00  0.00    +0.159 HD
ATOM      8  H   UNL     1       1.531   4.102 -17.868  0.00  0.00    +0.159 HD
ATOM      9  H   UNL     1       1.103   4.007 -19.531  0.00  0.00    +0.159 HD
ENDROOT
BRANCH   1  10
ATOM     10  C   UNL     1       0.122   3.493 -15.809  0.00  0.00    +0.151 C 
BRANCH  10  11
ATOM     11  C   UNL     1      -0.628   4.241 -14.742  0.00  0.00    -0.028 A 
ATOM     12  C   UNL     1      -0.604   3.798 -13.411  0.00  0.00    +0.005 A 
ATOM     13  C   UNL     1      -1.360   5.397 -15.053  0.00  0.00    +0.005 A 
ATOM     14  C   UNL     1      -1.276   4.509 -12.414  0.00  0.00    +0.000 A 
ATOM     15  C   UNL     1      -2.030   6.104 -14.055  0.00  0.00    +0.000 A 
ATOM     16  C   UNL     1      -1.986   5.661 -12.735  0.00  0.00    +0.000 A 
ENDBRANCH  10  11
ENDBRANCH   1  10
TORSDOF 2
ENDMDL
MODEL 5
REMARK VINA RESULT:    -4.091     39.543     40.616
REMARK INTER + INTRA:          -4.708
REMARK INTER:                  -4.555
REMARK INTRA:                  -0.153
REMARK UNBOUND:                -0.139
REMARK  Name = 1550473
REMARK  2 active torsions:
REMARK  status: ('A' for Active; 'I' for Inactive)
REMARK    1  A    between atoms: N_1  and  C_4
REMARK    2  A    between atoms: C_4  and  C_5
REMARK                            x       y       z     vdW  Elec       q    Type
REMARK                         _______ _______ _______ _____ _____    ______ ____
ROOT
ATOM      1  N   UNL     1      -4.062   7.315 -13.363  0.00  0.00    -0.354 N 
ATOM      2  N   UNL     1      -6.143   7.697 -14.304  0.00  0.00    -0.372 N 
ATOM      3  N   UNL     1      -5.950   6.129 -12.640  0.00  0.00    -0.372 N 
ATOM      4  C   UNL     1      -5.372   7.042 -13.428  0.00  0.00    +0.166 C 
ATOM      5  H   UNL     1      -3.679   7.996 -14.008  0.00  0.00    +0.163 HD
ATOM      6  H   UNL     1      -7.135   7.515 -14.374  0.00  0.00    +0.159 HD
ATOM      7  H   UNL     1      -5.767   8.411 -14.916  0.00  0.00    +0.159 HD
ATOM      8  H   UNL     1      -5.422   5.596 -11.962  0.00  0.00    +0.159 HD
ATOM      9  H   UNL     1      -6.939   5.924 -12.703  0.00  0.00    +0.159 HD
ENDROOT
BRANCH   1  10
ATOM     10  C   UNL     1      -3.145   6.696 -12.407  0.00  0.00    +0.151 C 
BRANCH  10  11
ATOM     11  C   UNL     1      -2.180   5.815 -13.151  0.00  0.00    -0.028 A 
ATOM     12  C   UNL     1      -1.512   4.774 -12.491  0.00  0.00    +0.005 A 
ATOM     13  C   UNL     1      -1.934   6.013 -14.518  0.00  0.00    +0.005 A 
ATOM     14  C   UNL     1      -0.639   3.936 -13.188  0.00  0.00    +0.000 A 
ATOM     15  C   UNL     1      -1.060   5.175 -15.211  0.00  0.00    +0.000 A 
ATOM     16  C   UNL     1      -0.415   4.135 -14.547  0.00  0.00    +0.000 A 
ENDBRANCH  10  11
ENDBRANCH   1  10
TORSDOF 2
ENDMDL
MODEL 6
REMARK VINA RESULT:    -4.086      3.284      5.165
REMARK INTER + INTRA:          -4.703
REMARK INTER:                  -4.577
REMARK INTRA:                  -0.126
REMARK UNBOUND:                -0.139
REMARK  Name = 1550473
REMARK  2 active torsions:
REMARK  status: ('A' for Active; 'I' for Inactive)
REMARK    1  A    between atoms: N_1  and  C_4
REMARK    2  A    between atoms: C_4  and  C_5
REMARK                            x       y       z     vdW  Elec       q    Type
REMARK                         _______ _______ _______ _____ _____    ______ ____
ROOT
ATOM      1  N   UNL     1      10.353  15.477  22.853  0.00  0.00    -0.354 N 
ATOM      2  N   UNL     1       9.395  15.617  24.957  0.00  0.00    -0.372 N 
ATOM      3  N   UNL     1       8.036  15.716  23.112  0.00  0.00    -0.372 N 
ATOM      4  C   UNL     1       9.265  15.603  23.625  0.00  0.00    +0.166 C 
ATOM      5  H   UNL     1      11.259  15.426  23.303  0.00  0.00    +0.163 HD
ATOM      6  H   UNL     1       8.593  15.707  25.566  0.00  0.00    +0.159 HD
ATOM      7  H   UNL     1      10.298  15.519  25.405  0.00  0.00    +0.159 HD
ATOM      8  H   UNL     1       7.870  15.719  22.114  0.00  0.00    +0.159 HD
ATOM      9  H   UNL     1       7.221  15.819  23.704  0.00  0.00    +0.159 HD
ENDROOT
BRANCH   1  10
ATOM     10  C   UNL     1      10.314  15.397  21.394  0.00  0.00    +0.151 C 
BRANCH  10  11
ATOM     11  C   UNL     1      11.483  16.157  20.829  0.00  0.00    -0.028 A 
ATOM     12  C   UNL     1      11.401  16.750  19.561  0.00  0.00    +0.005 A 
ATOM     13  C   UNL     1      12.673  16.292  21.560  0.00  0.00    +0.005 A 
ATOM     14  C   UNL     1      12.476  17.481  19.049  0.00  0.00    +0.000 A 
ATOM     15  C   UNL     1      13.744  17.022  21.045  0.00  0.00    +0.000 A 
ATOM     16  C   UNL     1      13.644  17.618  19.790  0.00  0.00    +0.000 A 
ENDBRANCH  10  11
ENDBRANCH   1  10
TORSDOF 2
ENDMDL
MODEL 7
REMARK VINA RESULT:    -4.085     24.995     26.532
REMARK INTER + INTRA:          -4.702
REMARK INTER:                  -4.563
REMARK INTRA:                  -0.139
REMARK UNBOUND:                -0.139
REMARK  Name = 1550473
REMARK  2 active torsions:
REMARK  status: ('A' for Active; 'I' for Inactive)
REMARK    1  A    between atoms: N_1  and  C_4
REMARK    2  A    between atoms: C_4  and  C_5
REMARK                            x       y       z     vdW  Elec       q    Type
REMARK                         _______ _______ _______ _____ _____    ______ ____
ROOT
ATOM      1  N   UNL     1       9.368   6.462  -3.271  0.00  0.00    -0.354 N 
ATOM      2  N   UNL     1       9.684   4.278  -3.973  0.00  0.00    -0.372 N 
ATOM      3  N   UNL     1       7.911   5.468  -4.813  0.00  0.00    -0.372 N 
ATOM      4  C   UNL     1       8.983   5.418  -4.016  0.00  0.00    +0.166 C 
ATOM      5  H   UNL     1      10.172   6.350  -2.664  0.00  0.00    +0.163 HD
ATOM      6  H   UNL     1       9.419   3.474  -4.526  0.00  0.00    +0.159 HD
ATOM      7  H   UNL     1      10.514   4.184  -3.400  0.00  0.00    +0.159 HD
ATOM      8  H   UNL     1       7.336   6.297  -4.886  0.00  0.00    +0.159 HD
ATOM      9  H   UNL     1       7.624   4.670  -5.366  0.00  0.00    +0.159 HD
ENDROOT
BRANCH   1  10
ATOM     10  C   UNL     1       8.706   7.765  -3.285  0.00  0.00    +0.151 C 
BRANCH  10  11
ATOM     11  C   UNL     1       8.192   8.071  -1.906  0.00  0.00    -0.028 A 
ATOM     12  C   UNL     1       7.500   9.264  -1.652  0.00  0.00    +0.005 A 
ATOM     13  C   UNL     1       8.388   7.168  -0.849  0.00  0.00    +0.005 A 
ATOM     14  C   UNL     1       6.996   9.534  -0.377  0.00  0.00    +0.000 A 
ATOM     15  C   UNL     1       7.884   7.442   0.422  0.00  0.00    +0.000 A 
ATOM     16  C   UNL     1       7.186   8.624   0.657  0.00  0.00    +0.000 A 
ENDBRANCH  10  11
ENDBRANCH   1  10
TORSDOF 2
ENDMDL
MODEL 8
REMARK VINA RESULT:    -4.065     32.388     33.734
REMARK INTER + INTRA:          -4.679
REMARK INTER:                  -4.552
REMARK INTRA:                  -0.127
REMARK UNBOUND:                -0.139
REMARK  Name = 1550473
REMARK  2 active torsions:
REMARK  status: ('A' for Active; 'I' for Inactive)
REMARK    1  A    between atoms: N_1  and  C_4
REMARK    2  A    between atoms: C_4  and  C_5
REMARK                            x       y       z     vdW  Elec       q    Type
REMARK                         _______ _______ _______ _____ _____    ______ ____
ROOT
ATOM      1  N   UNL     1       5.475  -4.120  -0.832  0.00  0.00    -0.354 N 
ATOM      2  N   UNL     1       6.273  -2.211   0.209  0.00  0.00    -0.372 N 
ATOM      3  N   UNL     1       4.150  -2.932   0.692  0.00  0.00    -0.372 N 
ATOM      4  C   UNL     1       5.292  -3.100   0.017  0.00  0.00    +0.166 C 
ATOM      5  H   UNL     1       6.353  -4.174  -1.337  0.00  0.00    +0.163 HD
ATOM      6  H   UNL     1       6.165  -1.433   0.846  0.00  0.00    +0.159 HD
ATOM      7  H   UNL     1       7.166  -2.293  -0.262  0.00  0.00    +0.159 HD
ATOM      8  H   UNL     1       3.368  -3.565   0.588  0.00  0.00    +0.159 HD
ATOM      9  H   UNL     1       4.018  -2.154   1.326  0.00  0.00    +0.159 HD
ENDROOT
BRANCH   1  10
ATOM     10  C   UNL     1       4.490  -5.172  -1.072  0.00  0.00    +0.151 C 
BRANCH  10  11
ATOM     11  C   UNL     1       5.185  -6.375  -1.648  0.00  0.00    -0.028 A 
ATOM     12  C   UNL     1       4.453  -7.516  -2.008  0.00  0.00    +0.005 A 
ATOM     13  C   UNL     1       6.575  -6.377  -1.842  0.00  0.00    +0.005 A 
ATOM     14  C   UNL     1       5.095  -8.621  -2.572  0.00  0.00    +0.000 A 
ATOM     15  C   UNL     1       7.212  -7.483  -2.404  0.00  0.00    +0.000 A 
ATOM     16  C   UNL     1       6.471  -8.604  -2.771  0.00  0.00    +0.000 A 
ENDBRANCH  10  11
ENDBRANCH   1  10
TORSDOF 2
ENDMDL
MODEL 9
REMARK VINA RESULT:    -4.026     35.826     37.244
REMARK INTER + INTRA:          -4.635
REMARK INTER:                  -4.534
REMARK INTRA:                  -0.101
REMARK UNBOUND:                -0.139
REMARK  Name = 1550473
REMARK  2 active torsions:
REMARK  status: ('A' for Active; 'I' for Inactive)
REMARK    1  A    between atoms: N_1  and  C_4
REMARK    2  A    between atoms: C_4  and  C_5
REMARK                            x       y       z     vdW  Elec       q    Type
REMARK                         _______ _______ _______ _____ _____    ______ ____
ROOT
ATOM      1  N   UNL     1       0.513   7.103  -9.769  0.00  0.00    -0.354 N 
ATOM      2  N   UNL     1       1.584   7.821  -7.845  0.00  0.00    -0.372 N 
ATOM      3  N   UNL     1       0.512   9.366  -9.160  0.00  0.00    -0.372 N 
ATOM      4  C   UNL     1       0.862   8.095  -8.938  0.00  0.00    +0.166 C 
ATOM      5  H   UNL     1       0.835   6.165  -9.560  0.00  0.00    +0.163 HD
ATOM      6  H   UNL     1       1.859   8.548  -7.198  0.00  0.00    +0.159 HD
ATOM      7  H   UNL     1       1.865   6.876  -7.615  0.00  0.00    +0.159 HD
ATOM      8  H   UNL     1      -0.028   9.640  -9.970  0.00  0.00    +0.159 HD
ATOM      9  H   UNL     1       0.787  10.109  -8.530  0.00  0.00    +0.159 HD
ENDROOT
BRANCH   1  10
ATOM     10  C   UNL     1      -0.318   7.287 -10.958  0.00  0.00    +0.151 C 
BRANCH  10  11
ATOM     11  C   UNL     1      -0.183   6.078 -11.842  0.00  0.00    -0.028 A 
ATOM     12  C   UNL     1      -1.273   5.217 -12.042  0.00  0.00    +0.005 A 
ATOM     13  C   UNL     1       1.029   5.791 -12.488  0.00  0.00    +0.005 A 
ATOM     14  C   UNL     1      -1.157   4.111 -12.887  0.00  0.00    +0.000 A 
ATOM     15  C   UNL     1       1.140   4.684 -13.330  0.00  0.00    +0.000 A 
ATOM     16  C   UNL     1       0.046   3.846 -13.531  0.00  0.00    +0.000 A 
ENDBRANCH  10  11
ENDBRANCH   1  10
TORSDOF 2
ENDMDL
