MODEL 1
REMARK VINA RESULT:    -6.939      0.000      0.000
REMARK INTER + INTRA:          -7.874
REMARK INTER:                  -7.750
REMARK INTRA:                  -0.123
REMARK UNBOUND:                -0.123
REMARK  Name = 1550473
REMARK  2 active torsions:
REMARK  status: ('A' for Active; 'I' for Inactive)
REMARK    1  A    between atoms: N_1  and  C_4
REMARK    2  A    between atoms: C_4  and  C_5
REMARK                            x       y       z     vdW  Elec       q    Type
REMARK                         _______ _______ _______ _____ _____    ______ ____
ROOT
ATOM      1  N   UNL     1      -2.981 -12.471 -15.562  0.00  0.00    -0.354 N 
ATOM      2  N   UNL     1      -3.824 -14.521 -16.236  0.00  0.00    -0.372 N 
ATOM      3  N   UNL     1      -4.958 -12.611 -16.813  0.00  0.00    -0.372 N 
ATOM      4  C   UNL     1      -3.917 -13.186 -16.200  0.00  0.00    +0.166 C 
ATOM      5  H   UNL     1      -2.234 -12.968 -15.092  0.00  0.00    +0.163 HD
ATOM      6  H   UNL     1      -4.513 -15.086 -16.713  0.00  0.00    +0.159 HD
ATOM      7  H   UNL     1      -3.051 -15.012 -15.804  0.00  0.00    +0.159 HD
ATOM      8  H   UNL     1      -5.090 -11.609 -16.818  0.00  0.00    +0.159 HD
ATOM      9  H   UNL     1      -5.665 -13.161 -17.285  0.00  0.00    +0.159 HD
ENDROOT
BRANCH   1  10
ATOM     10  C   UNL     1      -2.962 -11.011 -15.510  0.00  0.00    +0.151 C 
BRANCH  10  11
ATOM     11  C   UNL     1      -1.689 -10.559 -14.849  0.00  0.00    -0.028 A 
ATOM     12  C   UNL     1      -0.652 -11.472 -14.603  0.00  0.00    +0.005 A 
ATOM     13  C   UNL     1      -1.511  -9.220 -14.471  0.00  0.00    +0.005 A 
ATOM     14  C   UNL     1       0.542 -11.047 -14.016  0.00  0.00    +0.000 A 
ATOM     15  C   UNL     1      -0.317  -8.800 -13.884  0.00  0.00    +0.000 A 
ATOM     16  C   UNL     1       0.710  -9.713 -13.659  0.00  0.00    +0.000 A 
ENDBRANCH  10  11
ENDBRANCH   1  10
TORSDOF 2
ENDMDL
MODEL 2
REMARK VINA RESULT:    -5.875      3.071      4.567
REMARK INTER + INTRA:          -6.685
REMARK INTER:                  -6.586
REMARK INTRA:                  -0.100
REMARK UNBOUND:                -0.123
REMARK  Name = 1550473
REMARK  2 active torsions:
REMARK  status: ('A' for Active; 'I' for Inactive)
REMARK    1  A    between atoms: N_1  and  C_4
REMARK    2  A    between atoms: C_4  and  C_5
REMARK                            x       y       z     vdW  Elec       q    Type
REMARK                         _______ _______ _______ _____ _____    ______ ____
ROOT
ATOM      1  N   UNL     1      -4.903 -16.038 -16.729  0.00  0.00    -0.354 N 
ATOM      2  N   UNL     1      -6.181 -17.749 -15.833  0.00  0.00    -0.372 N 
ATOM      3  N   UNL     1      -5.230 -18.041 -17.901  0.00  0.00    -0.372 N 
ATOM      4  C   UNL     1      -5.429 -17.266 -16.829  0.00  0.00    +0.166 C 
ATOM      5  H   UNL     1      -5.116 -15.489 -15.904  0.00  0.00    +0.163 HD
ATOM      6  H   UNL     1      -6.589 -18.673 -15.879  0.00  0.00    +0.159 HD
ATOM      7  H   UNL     1      -6.355 -17.216 -14.990  0.00  0.00    +0.159 HD
ATOM      8  H   UNL     1      -4.677 -17.733 -18.689  0.00  0.00    +0.159 HD
ATOM      9  H   UNL     1      -5.639 -18.965 -17.970  0.00  0.00    +0.159 HD
ENDROOT
BRANCH   1  10
ATOM     10  C   UNL     1      -4.026 -15.440 -17.734  0.00  0.00    +0.151 C 
BRANCH  10  11
ATOM     11  C   UNL     1      -3.110 -14.454 -17.062  0.00  0.00    -0.028 A 
ATOM     12  C   UNL     1      -1.722 -14.657 -17.061  0.00  0.00    +0.005 A 
ATOM     13  C   UNL     1      -3.624 -13.311 -16.429  0.00  0.00    +0.005 A 
ATOM     14  C   UNL     1      -0.869 -13.726 -16.463  0.00  0.00    +0.000 A 
ATOM     15  C   UNL     1      -2.769 -12.385 -15.833  0.00  0.00    +0.000 A 
ATOM     16  C   UNL     1      -1.392 -12.591 -15.852  0.00  0.00    +0.000 A 
ENDBRANCH  10  11
ENDBRANCH   1  10
TORSDOF 2
ENDMDL
MODEL 3
REMARK VINA RESULT:    -5.487     13.825     14.788
REMARK INTER + INTRA:          -6.252
REMARK INTER:                  -6.068
REMARK INTRA:                  -0.184
REMARK UNBOUND:                -0.123
REMARK  Name = 1550473
REMARK  2 active torsions:
REMARK  status: ('A' for Active; 'I' for Inactive)
REMARK    1  A    between atoms: N_1  and  C_4
REMARK    2  A    between atoms: C_4  and  C_5
REMARK                            x       y       z     vdW  Elec       q    Type
REMARK                         _______ _______ _______ _____ _____    ______ ____
ROOT
ATOM      1  N   UNL     1      -8.383  -2.501 -23.795  0.00  0.00    -0.354 N 
ATOM      2  N   UNL     1     -10.562  -2.304 -24.555  0.00  0.00    -0.372 N 
ATOM      3  N   UNL     1      -9.811  -0.847 -22.950  0.00  0.00    -0.372 N 
ATOM      4  C   UNL     1      -9.571  -1.883 -23.759  0.00  0.00    +0.166 C 
ATOM      5  H   UNL     1      -8.274  -3.301 -24.409  0.00  0.00    +0.163 HD
ATOM      6  H   UNL     1     -11.468  -1.856 -24.553  0.00  0.00    +0.159 HD
ATOM      7  H   UNL     1     -10.436  -3.074 -25.201  0.00  0.00    +0.159 HD
ATOM      8  H   UNL     1      -9.108  -0.484 -22.320  0.00  0.00    +0.159 HD
ATOM      9  H   UNL     1     -10.716  -0.392 -22.925  0.00  0.00    +0.159 HD
ENDROOT
BRANCH   1  10
ATOM     10  C   UNL     1      -7.223  -2.087 -23.008  0.00  0.00    +0.151 C 
BRANCH  10  11
ATOM     11  C   UNL     1      -6.321  -1.246 -23.869  0.00  0.00    -0.028 A 
ATOM     12  C   UNL     1      -5.569  -1.832 -24.898  0.00  0.00    +0.005 A 
ATOM     13  C   UNL     1      -6.218   0.138 -23.663  0.00  0.00    +0.005 A 
ATOM     14  C   UNL     1      -4.755  -1.046 -25.717  0.00  0.00    +0.000 A 
ATOM     15  C   UNL     1      -5.402   0.919 -24.482  0.00  0.00    +0.000 A 
ATOM     16  C   UNL     1      -4.673   0.327 -25.510  0.00  0.00    +0.000 A 
ENDBRANCH  10  11
ENDBRANCH   1  10
TORSDOF 2
ENDMDL
MODEL 4
REMARK VINA RESULT:    -5.295     12.421     13.516
REMARK INTER + INTRA:          -6.037
REMARK INTER:                  -5.866
REMARK INTRA:                  -0.171
REMARK UNBOUND:                -0.123
REMARK  Name = 1550473
REMARK  2 active torsions:
REMARK  status: ('A' for Active; 'I' for Inactive)
REMARK    1  A    between atoms: N_1  and  C_4
REMARK    2  A    between atoms: C_4  and  C_5
REMARK                            x       y       z     vdW  Elec       q    Type
REMARK                         _______ _______ _______ _____ _____    ______ ____
ROOT
ATOM      1  N   UNL     1      -9.147  -2.166 -24.058  0.00  0.00    -0.354 N 
ATOM      2  N   UNL     1     -11.301  -2.305 -24.898  0.00  0.00    -0.372 N 
ATOM      3  N   UNL     1     -10.795  -0.628 -23.416  0.00  0.00    -0.372 N 
ATOM      4  C   UNL     1     -10.401  -1.697 -24.117  0.00  0.00    +0.166 C 
ATOM      5  H   UNL     1      -8.919  -2.998 -24.590  0.00  0.00    +0.163 HD
ATOM      6  H   UNL     1     -12.253  -1.972 -24.966  0.00  0.00    +0.159 HD
ATOM      7  H   UNL     1     -11.058  -3.109 -25.465  0.00  0.00    +0.159 HD
ATOM      8  H   UNL     1     -10.166  -0.128 -22.803  0.00  0.00    +0.159 HD
ATOM      9  H   UNL     1     -11.747  -0.286 -23.461  0.00  0.00    +0.159 HD
ENDROOT
BRANCH   1  10
ATOM     10  C   UNL     1      -8.077  -1.544 -23.279  0.00  0.00    +0.151 C 
BRANCH  10  11
ATOM     11  C   UNL     1      -7.868  -2.333 -22.016  0.00  0.00    -0.028 A 
ATOM     12  C   UNL     1      -6.930  -3.375 -21.974  0.00  0.00    +0.005 A 
ATOM     13  C   UNL     1      -8.599  -2.039 -20.855  0.00  0.00    +0.005 A 
ATOM     14  C   UNL     1      -6.713  -4.088 -20.793  0.00  0.00    +0.000 A 
ATOM     15  C   UNL     1      -8.381  -2.753 -19.677  0.00  0.00    +0.000 A 
ATOM     16  C   UNL     1      -7.436  -3.776 -19.646  0.00  0.00    +0.000 A 
ENDBRANCH  10  11
ENDBRANCH   1  10
TORSDOF 2
ENDMDL
MODEL 5
REMARK VINA RESULT:    -5.244     15.349     16.483
REMARK INTER + INTRA:          -5.981
REMARK INTER:                  -5.800
REMARK INTRA:                  -0.180
REMARK UNBOUND:                -0.123
REMARK  Name = 1550473
REMARK  2 active torsions:
REMARK  status: ('A' for Active; 'I' for Inactive)
REMARK    1  A    between atoms: N_1  and  C_4
REMARK    2  A    between atoms: C_4  and  C_5
REMARK                            x       y       z     vdW  Elec       q    Type
REMARK                         _______ _______ _______ _____ _____    ______ ____
ROOT
ATOM      1  N   UNL     1      -8.812   1.983 -23.438  0.00  0.00    -0.354 N 
ATOM      2  N   UNL     1      -9.996   3.224 -24.995  0.00  0.00    -0.372 N 
ATOM      3  N   UNL     1      -7.720   3.486 -24.866  0.00  0.00    -0.372 N 
ATOM      4  C   UNL     1      -8.832   2.891 -24.423  0.00  0.00    +0.166 C 
ATOM      5  H   UNL     1      -9.694   1.590 -23.128  0.00  0.00    +0.163 HD
ATOM      6  H   UNL     1     -10.042   3.903 -25.742  0.00  0.00    +0.159 HD
ATOM      7  H   UNL     1     -10.870   2.797 -24.713  0.00  0.00    +0.159 HD
ATOM      8  H   UNL     1      -6.811   3.282 -24.473  0.00  0.00    +0.159 HD
ATOM      9  H   UNL     1      -7.747   4.177 -25.606  0.00  0.00    +0.159 HD
ENDROOT
BRANCH   1  10
ATOM     10  C   UNL     1      -7.592   1.510 -22.787  0.00  0.00    +0.151 C 
BRANCH  10  11
ATOM     11  C   UNL     1      -7.143   0.237 -23.449  0.00  0.00    -0.028 A 
ATOM     12  C   UNL     1      -5.902   0.172 -24.099  0.00  0.00    +0.005 A 
ATOM     13  C   UNL     1      -7.952  -0.910 -23.426  0.00  0.00    +0.005 A 
ATOM     14  C   UNL     1      -5.471  -1.019 -24.688  0.00  0.00    +0.000 A 
ATOM     15  C   UNL     1      -7.519  -2.097 -24.016  0.00  0.00    +0.000 A 
ATOM     16  C   UNL     1      -6.277  -2.152 -24.645  0.00  0.00    +0.000 A 
ENDBRANCH  10  11
ENDBRANCH   1  10
TORSDOF 2
ENDMDL
MODEL 6
REMARK VINA RESULT:    -5.148     12.687     13.648
REMARK INTER + INTRA:          -5.873
REMARK INTER:                  -5.779
REMARK INTRA:                  -0.094
REMARK UNBOUND:                -0.123
REMARK  Name = 1550473
REMARK  2 active torsions:
REMARK  status: ('A' for Active; 'I' for Inactive)
REMARK    1  A    between atoms: N_1  and  C_4
REMARK    2  A    between atoms: C_4  and  C_5
REMARK                            x       y       z     vdW  Elec       q    Type
REMARK                         _______ _______ _______ _____ _____    ______ ____
ROOT
ATOM      1  N   UNL     1      -8.287  -2.027 -24.156  0.00  0.00    -0.354 N 
ATOM      2  N   UNL     1     -10.540  -2.387 -24.553  0.00  0.00    -0.372 N 
ATOM      3  N   UNL     1      -9.899  -0.474 -23.461  0.00  0.00    -0.372 N 
ATOM      4  C   UNL     1      -9.561  -1.624 -24.053  0.00  0.00    +0.166 C 
ATOM      5  H   UNL     1      -8.100  -2.924 -24.590  0.00  0.00    +0.163 HD
ATOM      6  H   UNL     1     -11.510  -2.108 -24.493  0.00  0.00    +0.159 HD
ATOM      7  H   UNL     1     -10.346  -3.261 -25.027  0.00  0.00    +0.159 HD
ATOM      8  H   UNL     1      -9.207   0.144 -23.057  0.00  0.00    +0.159 HD
ATOM      9  H   UNL     1     -10.865  -0.183 -23.380  0.00  0.00    +0.159 HD
ENDROOT
BRANCH   1  10
ATOM     10  C   UNL     1      -7.142  -1.245 -23.692  0.00  0.00    +0.151 C 
BRANCH  10  11
ATOM     11  C   UNL     1      -5.938  -2.141 -23.608  0.00  0.00    -0.028 A 
ATOM     12  C   UNL     1      -5.449  -2.562 -22.362  0.00  0.00    +0.005 A 
ATOM     13  C   UNL     1      -5.284  -2.578 -24.770  0.00  0.00    +0.005 A 
ATOM     14  C   UNL     1      -4.348  -3.418 -22.284  0.00  0.00    +0.000 A 
ATOM     15  C   UNL     1      -4.184  -3.432 -24.688  0.00  0.00    +0.000 A 
ATOM     16  C   UNL     1      -3.718  -3.854 -23.445  0.00  0.00    +0.000 A 
ENDBRANCH  10  11
ENDBRANCH   1  10
TORSDOF 2
ENDMDL
MODEL 7
REMARK VINA RESULT:    -4.580     10.693     12.213
REMARK INTER + INTRA:          -5.238
REMARK INTER:                  -5.110
REMARK INTRA:                  -0.128
REMARK UNBOUND:                -0.123
REMARK  Name = 1550473
REMARK  2 active torsions:
REMARK  status: ('A' for Active; 'I' for Inactive)
REMARK    1  A    between atoms: N_1  and  C_4
REMARK    2  A    between atoms: C_4  and  C_5
REMARK                            x       y       z     vdW  Elec       q    Type
REMARK                         _______ _______ _______ _____ _____    ______ ____
ROOT
ATOM      1  N   UNL     1       8.375 -10.870 -15.895  0.00  0.00    -0.354 N 
ATOM      2  N   UNL     1       8.125  -8.590 -15.575  0.00  0.00    -0.372 N 
ATOM      3  N   UNL     1       7.473  -9.507 -17.574  0.00  0.00    -0.372 N 
ATOM      4  C   UNL     1       7.992  -9.671 -16.353  0.00  0.00    +0.166 C 
ATOM      5  H   UNL     1       8.789 -10.923 -14.971  0.00  0.00    +0.163 HD
ATOM      6  H   UNL     1       7.842  -7.673 -15.892  0.00  0.00    +0.159 HD
ATOM      7  H   UNL     1       8.497  -8.653 -14.635  0.00  0.00    +0.159 HD
ATOM      8  H   UNL     1       7.352 -10.282 -18.213  0.00  0.00    +0.159 HD
ATOM      9  H   UNL     1       7.195  -8.595 -17.914  0.00  0.00    +0.159 HD
ENDROOT
BRANCH   1  10
ATOM     10  C   UNL     1       8.223 -12.118 -16.642  0.00  0.00    +0.151 C 
BRANCH  10  11
ATOM     11  C   UNL     1       9.426 -12.312 -17.524  0.00  0.00    -0.028 A 
ATOM     12  C   UNL     1       9.270 -12.600 -18.888  0.00  0.00    +0.005 A 
ATOM     13  C   UNL     1      10.724 -12.202 -17.003  0.00  0.00    +0.005 A 
ATOM     14  C   UNL     1      10.386 -12.751 -19.713  0.00  0.00    +0.000 A 
ATOM     15  C   UNL     1      11.837 -12.354 -17.831  0.00  0.00    +0.000 A 
ATOM     16  C   UNL     1      11.667 -12.626 -19.186  0.00  0.00    +0.000 A 
ENDBRANCH  10  11
ENDBRANCH   1  10
TORSDOF 2
ENDMDL
MODEL 8
REMARK VINA RESULT:    -4.463     16.472     17.543
REMARK INTER + INTRA:          -5.108
REMARK INTER:                  -4.986
REMARK INTRA:                  -0.122
REMARK UNBOUND:                -0.123
REMARK  Name = 1550473
REMARK  2 active torsions:
REMARK  status: ('A' for Active; 'I' for Inactive)
REMARK    1  A    between atoms: N_1  and  C_4
REMARK    2  A    between atoms: C_4  and  C_5
REMARK                            x       y       z     vdW  Elec       q    Type
REMARK                         _______ _______ _______ _____ _____    ______ ____
ROOT
ATOM      1  N   UNL     1      -9.206   2.755 -25.029  0.00  0.00    -0.354 N 
ATOM      2  N   UNL     1      -9.570   4.234 -26.775  0.00  0.00    -0.372 N 
ATOM      3  N   UNL     1      -9.262   5.069 -24.660  0.00  0.00    -0.372 N 
ATOM      4  C   UNL     1      -9.344   4.011 -25.474  0.00  0.00    +0.166 C 
ATOM      5  H   UNL     1      -9.309   1.996 -25.692  0.00  0.00    +0.163 HD
ATOM      6  H   UNL     1      -9.675   5.170 -27.140  0.00  0.00    +0.159 HD
ATOM      7  H   UNL     1      -9.627   3.475 -27.443  0.00  0.00    +0.159 HD
ATOM      8  H   UNL     1      -9.098   4.969 -23.667  0.00  0.00    +0.159 HD
ATOM      9  H   UNL     1      -9.375   6.014 -25.005  0.00  0.00    +0.159 HD
ENDROOT
BRANCH   1  10
ATOM     10  C   UNL     1      -8.904   2.408 -23.642  0.00  0.00    +0.151 C 
BRANCH  10  11
ATOM     11  C   UNL     1      -7.836   1.349 -23.622  0.00  0.00    -0.028 A 
ATOM     12  C   UNL     1      -8.173   0.003 -23.415  0.00  0.00    +0.005 A 
ATOM     13  C   UNL     1      -6.487   1.684 -23.815  0.00  0.00    +0.005 A 
ATOM     14  C   UNL     1      -7.185  -0.985 -23.427  0.00  0.00    +0.000 A 
ATOM     15  C   UNL     1      -5.504   0.695 -23.825  0.00  0.00    +0.000 A 
ATOM     16  C   UNL     1      -5.854  -0.640 -23.633  0.00  0.00    +0.000 A 
ENDBRANCH  10  11
ENDBRANCH   1  10
TORSDOF 2
ENDMDL
MODEL 9
REMARK VINA RESULT:    -4.146     20.873     21.204
REMARK INTER + INTRA:          -4.754
REMARK INTER:                  -4.641
REMARK INTRA:                  -0.113
REMARK UNBOUND:                -0.123
REMARK  Name = 1550473
REMARK  2 active torsions:
REMARK  status: ('A' for Active; 'I' for Inactive)
REMARK    1  A    between atoms: N_1  and  C_4
REMARK    2  A    between atoms: C_4  and  C_5
REMARK                            x       y       z     vdW  Elec       q    Type
REMARK                         _______ _______ _______ _____ _____    ______ ____
ROOT
ATOM      1  N   UNL     1      -4.748   6.530  -4.377  0.00  0.00    -0.354 N 
ATOM      2  N   UNL     1      -3.422   5.414  -2.840  0.00  0.00    -0.372 N 
ATOM      3  N   UNL     1      -5.699   5.400  -2.557  0.00  0.00    -0.372 N 
ATOM      4  C   UNL     1      -4.634   5.788  -3.267  0.00  0.00    +0.166 C 
ATOM      5  H   UNL     1      -3.900   6.817  -4.853  0.00  0.00    +0.163 HD
ATOM      6  H   UNL     1      -3.305   4.851  -2.008  0.00  0.00    +0.159 HD
ATOM      7  H   UNL     1      -2.579   5.664  -3.344  0.00  0.00    +0.159 HD
ATOM      8  H   UNL     1      -6.641   5.654  -2.822  0.00  0.00    +0.159 HD
ATOM      9  H   UNL     1      -5.602   4.847  -1.715  0.00  0.00    +0.159 HD
ENDROOT
BRANCH   1  10
ATOM     10  C   UNL     1      -6.025   6.944  -4.956  0.00  0.00    +0.151 C 
BRANCH  10  11
ATOM     11  C   UNL     1      -5.797   7.403  -6.369  0.00  0.00    -0.028 A 
ATOM     12  C   UNL     1      -6.763   7.169  -7.359  0.00  0.00    +0.005 A 
ATOM     13  C   UNL     1      -4.619   8.079  -6.725  0.00  0.00    +0.005 A 
ATOM     14  C   UNL     1      -6.565   7.621  -8.665  0.00  0.00    +0.000 A 
ATOM     15  C   UNL     1      -4.425   8.528  -8.031  0.00  0.00    +0.000 A 
ATOM     16  C   UNL     1      -5.399   8.302  -9.000  0.00  0.00    +0.000 A 
ENDBRANCH  10  11
ENDBRANCH   1  10
TORSDOF 2
ENDMDL
