MODEL 1
REMARK VINA RESULT:    -5.225      0.000      0.000
REMARK INTER + INTRA:          -5.950
REMARK INTER:                  -5.836
REMARK INTRA:                  -0.114
REMARK UNBOUND:                -0.114
REMARK  Name = 1550473
REMARK  2 active torsions:
REMARK  status: ('A' for Active; 'I' for Inactive)
REMARK    1  A    between atoms: N_1  and  C_4
REMARK    2  A    between atoms: C_4  and  C_5
REMARK                            x       y       z     vdW  Elec       q    Type
REMARK                         _______ _______ _______ _____ _____    ______ ____
ROOT
ATOM      1  N   UNL     1       1.060  -1.643  -8.702  0.00  0.00    -0.354 N 
ATOM      2  N   UNL     1       0.562  -3.830  -8.125  0.00  0.00    -0.372 N 
ATOM      3  N   UNL     1      -1.046  -2.217  -7.848  0.00  0.00    -0.372 N 
ATOM      4  C   UNL     1       0.193  -2.548  -8.228  0.00  0.00    +0.166 C 
ATOM      5  H   UNL     1       1.994  -1.953  -8.945  0.00  0.00    +0.163 HD
ATOM      6  H   UNL     1      -0.072  -4.536  -7.774  0.00  0.00    +0.159 HD
ATOM      7  H   UNL     1       1.481  -4.145  -8.412  0.00  0.00    +0.159 HD
ATOM      8  H   UNL     1      -1.384  -1.265  -7.895  0.00  0.00    +0.159 HD
ATOM      9  H   UNL     1      -1.691  -2.907  -7.483  0.00  0.00    +0.159 HD
ENDROOT
BRANCH   1  10
ATOM     10  C   UNL     1       0.739  -0.231  -8.905  0.00  0.00    +0.151 C 
BRANCH  10  11
ATOM     11  C   UNL     1       1.571   0.600  -7.967  0.00  0.00    -0.028 A 
ATOM     12  C   UNL     1       1.606   1.996  -8.094  0.00  0.00    +0.005 A 
ATOM     13  C   UNL     1       2.322  -0.002  -6.946  0.00  0.00    +0.005 A 
ATOM     14  C   UNL     1       2.354   2.771  -7.205  0.00  0.00    +0.000 A 
ATOM     15  C   UNL     1       3.069   0.775  -6.061  0.00  0.00    +0.000 A 
ATOM     16  C   UNL     1       3.083   2.162  -6.189  0.00  0.00    +0.000 A 
ENDBRANCH  10  11
ENDBRANCH   1  10
TORSDOF 2
ENDMDL
MODEL 2
REMARK VINA RESULT:    -4.924     17.087     18.399
REMARK INTER + INTRA:          -5.614
REMARK INTER:                  -5.431
REMARK INTRA:                  -0.182
REMARK UNBOUND:                -0.114
REMARK  Name = 1550473
REMARK  2 active torsions:
REMARK  status: ('A' for Active; 'I' for Inactive)
REMARK    1  A    between atoms: N_1  and  C_4
REMARK    2  A    between atoms: C_4  and  C_5
REMARK                            x       y       z     vdW  Elec       q    Type
REMARK                         _______ _______ _______ _____ _____    ______ ____
ROOT
ATOM      1  N   UNL     1      -6.766  -7.988   6.545  0.00  0.00    -0.354 N 
ATOM      2  N   UNL     1      -5.112  -6.394   6.250  0.00  0.00    -0.372 N 
ATOM      3  N   UNL     1      -4.858  -8.451   5.265  0.00  0.00    -0.372 N 
ATOM      4  C   UNL     1      -5.588  -7.624   6.021  0.00  0.00    +0.166 C 
ATOM      5  H   UNL     1      -7.257  -7.325   7.134  0.00  0.00    +0.163 HD
ATOM      6  H   UNL     1      -4.228  -6.089   5.864  0.00  0.00    +0.159 HD
ATOM      7  H   UNL     1      -5.626  -5.717   6.800  0.00  0.00    +0.159 HD
ATOM      8  H   UNL     1      -5.159  -9.394   5.060  0.00  0.00    +0.159 HD
ATOM      9  H   UNL     1      -3.965  -8.169   4.881  0.00  0.00    +0.159 HD
ENDROOT
BRANCH   1  10
ATOM     10  C   UNL     1      -7.398  -9.285   6.312  0.00  0.00    +0.151 C 
BRANCH  10  11
ATOM     11  C   UNL     1      -8.456  -9.133   5.254  0.00  0.00    -0.028 A 
ATOM     12  C   UNL     1      -9.727  -8.639   5.583  0.00  0.00    +0.005 A 
ATOM     13  C   UNL     1      -8.192  -9.476   3.919  0.00  0.00    +0.005 A 
ATOM     14  C   UNL     1     -10.700  -8.469   4.595  0.00  0.00    +0.000 A 
ATOM     15  C   UNL     1      -9.166  -9.305   2.935  0.00  0.00    +0.000 A 
ATOM     16  C   UNL     1     -10.419  -8.799   3.273  0.00  0.00    +0.000 A 
ENDBRANCH  10  11
ENDBRANCH   1  10
TORSDOF 2
ENDMDL
MODEL 3
REMARK VINA RESULT:    -4.905      2.661      3.295
REMARK INTER + INTRA:          -5.592
REMARK INTER:                  -5.465
REMARK INTRA:                  -0.127
REMARK UNBOUND:                -0.114
REMARK  Name = 1550473
REMARK  2 active torsions:
REMARK  status: ('A' for Active; 'I' for Inactive)
REMARK    1  A    between atoms: N_1  and  C_4
REMARK    2  A    between atoms: C_4  and  C_5
REMARK                            x       y       z     vdW  Elec       q    Type
REMARK                         _______ _______ _______ _____ _____    ______ ____
ROOT
ATOM      1  N   UNL     1       0.213   1.310 -10.321  0.00  0.00    -0.354 N 
ATOM      2  N   UNL     1      -0.689   2.471 -12.111  0.00  0.00    -0.372 N 
ATOM      3  N   UNL     1      -2.060   1.123 -10.859  0.00  0.00    -0.372 N 
ATOM      4  C   UNL     1      -0.842   1.625 -11.085  0.00  0.00    +0.166 C 
ATOM      5  H   UNL     1       1.116   1.701 -10.563  0.00  0.00    +0.163 HD
ATOM      6  H   UNL     1      -1.467   2.730 -12.702  0.00  0.00    +0.159 HD
ATOM      7  H   UNL     1       0.206   2.896 -12.322  0.00  0.00    +0.159 HD
ATOM      8  H   UNL     1      -2.241   0.475 -10.104  0.00  0.00    +0.159 HD
ATOM      9  H   UNL     1      -2.849   1.362 -11.447  0.00  0.00    +0.159 HD
ENDROOT
BRANCH   1  10
ATOM     10  C   UNL     1       0.142   0.441  -9.148  0.00  0.00    +0.151 C 
BRANCH  10  11
ATOM     11  C   UNL     1       1.192   0.865  -8.158  0.00  0.00    -0.028 A 
ATOM     12  C   UNL     1       1.536   2.218  -8.021  0.00  0.00    +0.005 A 
ATOM     13  C   UNL     1       1.843  -0.080  -7.351  0.00  0.00    +0.005 A 
ATOM     14  C   UNL     1       2.490   2.616  -7.081  0.00  0.00    +0.000 A 
ATOM     15  C   UNL     1       2.795   0.321  -6.414  0.00  0.00    +0.000 A 
ATOM     16  C   UNL     1       3.117   1.669  -6.278  0.00  0.00    +0.000 A 
ENDBRANCH  10  11
ENDBRANCH   1  10
TORSDOF 2
ENDMDL
MODEL 4
REMARK VINA RESULT:    -4.876      2.713      5.045
REMARK INTER + INTRA:          -5.560
REMARK INTER:                  -5.430
REMARK INTRA:                  -0.130
REMARK UNBOUND:                -0.114
REMARK  Name = 1550473
REMARK  2 active torsions:
REMARK  status: ('A' for Active; 'I' for Inactive)
REMARK    1  A    between atoms: N_1  and  C_4
REMARK    2  A    between atoms: C_4  and  C_5
REMARK                            x       y       z     vdW  Elec       q    Type
REMARK                         _______ _______ _______ _____ _____    ______ ____
ROOT
ATOM      1  N   UNL     1       1.731   1.251  -7.595  0.00  0.00    -0.354 N 
ATOM      2  N   UNL     1       3.339   2.837  -7.082  0.00  0.00    -0.372 N 
ATOM      3  N   UNL     1       3.308   0.867  -5.905  0.00  0.00    -0.372 N 
ATOM      4  C   UNL     1       2.783   1.640  -6.862  0.00  0.00    +0.166 C 
ATOM      5  H   UNL     1       1.361   1.895  -8.285  0.00  0.00    +0.163 HD
ATOM      6  H   UNL     1       4.135   3.156  -6.547  0.00  0.00    +0.159 HD
ATOM      7  H   UNL     1       2.995   3.460  -7.803  0.00  0.00    +0.159 HD
ATOM      8  H   UNL     1       2.931  -0.045  -5.686  0.00  0.00    +0.159 HD
ATOM      9  H   UNL     1       4.098   1.174  -5.351  0.00  0.00    +0.159 HD
ENDROOT
BRANCH   1  10
ATOM     10  C   UNL     1       1.086  -0.055  -7.472  0.00  0.00    +0.151 C 
BRANCH  10  11
ATOM     11  C   UNL     1       0.944  -0.664  -8.840  0.00  0.00    -0.028 A 
ATOM     12  C   UNL     1       1.100  -2.045  -9.024  0.00  0.00    +0.005 A 
ATOM     13  C   UNL     1       0.648   0.135  -9.955  0.00  0.00    +0.005 A 
ATOM     14  C   UNL     1       0.939  -2.615 -10.289  0.00  0.00    +0.000 A 
ATOM     15  C   UNL     1       0.488  -0.438 -11.217  0.00  0.00    +0.000 A 
ATOM     16  C   UNL     1       0.632  -1.813 -11.383  0.00  0.00    +0.000 A 
ENDBRANCH  10  11
ENDBRANCH   1  10
TORSDOF 2
ENDMDL
MODEL 5
REMARK VINA RESULT:    -4.464      7.925      9.337
REMARK INTER + INTRA:          -5.099
REMARK INTER:                  -4.976
REMARK INTRA:                  -0.123
REMARK UNBOUND:                -0.114
REMARK  Name = 1550473
REMARK  2 active torsions:
REMARK  status: ('A' for Active; 'I' for Inactive)
REMARK    1  A    between atoms: N_1  and  C_4
REMARK    2  A    between atoms: C_4  and  C_5
REMARK                            x       y       z     vdW  Elec       q    Type
REMARK                         _______ _______ _______ _____ _____    ______ ____
ROOT
ATOM      1  N   UNL     1      -6.754  -0.943  -8.034  0.00  0.00    -0.354 N 
ATOM      2  N   UNL     1      -7.105   0.894  -6.668  0.00  0.00    -0.372 N 
ATOM      3  N   UNL     1      -8.870   0.051  -7.868  0.00  0.00    -0.372 N 
ATOM      4  C   UNL     1      -7.577  -0.012  -7.533  0.00  0.00    +0.166 C 
ATOM      5  H   UNL     1      -5.778  -0.919  -7.764  0.00  0.00    +0.163 HD
ATOM      6  H   UNL     1      -7.702   1.606  -6.270  0.00  0.00    +0.159 HD
ATOM      7  H   UNL     1      -6.139   0.888  -6.364  0.00  0.00    +0.159 HD
ATOM      8  H   UNL     1      -9.286  -0.599  -8.521  0.00  0.00    +0.159 HD
ATOM      9  H   UNL     1      -9.481   0.764  -7.490  0.00  0.00    +0.159 HD
ENDROOT
BRANCH   1  10
ATOM     10  C   UNL     1      -7.180  -2.007  -8.942  0.00  0.00    +0.151 C 
BRANCH  10  11
ATOM     11  C   UNL     1      -6.376  -3.246  -8.659  0.00  0.00    -0.028 A 
ATOM     12  C   UNL     1      -5.071  -3.148  -8.154  0.00  0.00    +0.005 A 
ATOM     13  C   UNL     1      -6.915  -4.521  -8.888  0.00  0.00    +0.005 A 
ATOM     14  C   UNL     1      -4.335  -4.298  -7.862  0.00  0.00    +0.000 A 
ATOM     15  C   UNL     1      -6.177  -5.667  -8.597  0.00  0.00    +0.000 A 
ATOM     16  C   UNL     1      -4.888  -5.556  -8.081  0.00  0.00    +0.000 A 
ENDBRANCH  10  11
ENDBRANCH   1  10
TORSDOF 2
ENDMDL
MODEL 6
REMARK VINA RESULT:    -4.404     18.759     19.560
REMARK INTER + INTRA:          -5.032
REMARK INTER:                  -4.869
REMARK INTRA:                  -0.163
REMARK UNBOUND:                -0.114
REMARK  Name = 1550473
REMARK  2 active torsions:
REMARK  status: ('A' for Active; 'I' for Inactive)
REMARK    1  A    between atoms: N_1  and  C_4
REMARK    2  A    between atoms: C_4  and  C_5
REMARK                            x       y       z     vdW  Elec       q    Type
REMARK                         _______ _______ _______ _____ _____    ______ ____
ROOT
ATOM      1  N   UNL     1     -13.237   2.795   5.020  0.00  0.00    -0.354 N 
ATOM      2  N   UNL     1     -14.144   4.206   3.422  0.00  0.00    -0.372 N 
ATOM      3  N   UNL     1     -15.539   2.800   4.580  0.00  0.00    -0.372 N 
ATOM      4  C   UNL     1     -14.303   3.256   4.352  0.00  0.00    +0.166 C 
ATOM      5  H   UNL     1     -12.323   3.160   4.779  0.00  0.00    +0.163 HD
ATOM      6  H   UNL     1     -14.930   4.575   2.905  0.00  0.00    +0.159 HD
ATOM      7  H   UNL     1     -13.235   4.602   3.216  0.00  0.00    +0.159 HD
ATOM      8  H   UNL     1     -15.726   2.079   5.265  0.00  0.00    +0.159 HD
ATOM      9  H   UNL     1     -16.337   3.149   4.064  0.00  0.00    +0.159 HD
ENDROOT
BRANCH   1  10
ATOM     10  C   UNL     1     -13.309   1.800   6.089  0.00  0.00    +0.151 C 
BRANCH  10  11
ATOM     11  C   UNL     1     -12.549   0.573   5.670  0.00  0.00    -0.028 A 
ATOM     12  C   UNL     1     -13.104  -0.329   4.750  0.00  0.00    +0.005 A 
ATOM     13  C   UNL     1     -11.270   0.309   6.184  0.00  0.00    +0.005 A 
ATOM     14  C   UNL     1     -12.385  -1.454   4.338  0.00  0.00    +0.000 A 
ATOM     15  C   UNL     1     -10.557  -0.816   5.771  0.00  0.00    +0.000 A 
ATOM     16  C   UNL     1     -11.113  -1.696   4.846  0.00  0.00    +0.000 A 
ENDBRANCH  10  11
ENDBRANCH   1  10
TORSDOF 2
ENDMDL
MODEL 7
REMARK VINA RESULT:    -4.400     11.343     12.170
REMARK INTER + INTRA:          -5.029
REMARK INTER:                  -4.929
REMARK INTRA:                  -0.100
REMARK UNBOUND:                -0.114
REMARK  Name = 1550473
REMARK  2 active torsions:
REMARK  status: ('A' for Active; 'I' for Inactive)
REMARK    1  A    between atoms: N_1  and  C_4
REMARK    2  A    between atoms: C_4  and  C_5
REMARK                            x       y       z     vdW  Elec       q    Type
REMARK                         _______ _______ _______ _____ _____    ______ ____
ROOT
ATOM      1  N   UNL     1      -6.097   8.532  -3.048  0.00  0.00    -0.354 N 
ATOM      2  N   UNL     1      -6.182   7.689  -0.892  0.00  0.00    -0.372 N 
ATOM      3  N   UNL     1      -7.767   7.017  -2.410  0.00  0.00    -0.372 N 
ATOM      4  C   UNL     1      -6.684   7.751  -2.132  0.00  0.00    +0.166 C 
ATOM      5  H   UNL     1      -5.297   9.087  -2.766  0.00  0.00    +0.163 HD
ATOM      6  H   UNL     1      -6.602   7.105  -0.181  0.00  0.00    +0.159 HD
ATOM      7  H   UNL     1      -5.355   8.208  -0.626  0.00  0.00    +0.159 HD
ATOM      8  H   UNL     1      -8.198   7.024  -3.325  0.00  0.00    +0.159 HD
ATOM      9  H   UNL     1      -8.208   6.436  -1.708  0.00  0.00    +0.159 HD
ENDROOT
BRANCH   1  10
ATOM     10  C   UNL     1      -6.532   8.630  -4.440  0.00  0.00    +0.151 C 
BRANCH  10  11
ATOM     11  C   UNL     1      -5.416   9.209  -5.264  0.00  0.00    -0.028 A 
ATOM     12  C   UNL     1      -4.898  10.479  -4.970  0.00  0.00    +0.005 A 
ATOM     13  C   UNL     1      -4.868   8.491  -6.338  0.00  0.00    +0.005 A 
ATOM     14  C   UNL     1      -3.841  11.004  -5.716  0.00  0.00    +0.000 A 
ATOM     15  C   UNL     1      -3.813   9.020  -7.082  0.00  0.00    +0.000 A 
ATOM     16  C   UNL     1      -3.298  10.275  -6.769  0.00  0.00    +0.000 A 
ENDBRANCH  10  11
ENDBRANCH   1  10
TORSDOF 2
ENDMDL
MODEL 8
REMARK VINA RESULT:    -4.400     19.018     19.876
REMARK INTER + INTRA:          -5.028
REMARK INTER:                  -4.858
REMARK INTRA:                  -0.170
REMARK UNBOUND:                -0.114
REMARK  Name = 1550473
REMARK  2 active torsions:
REMARK  status: ('A' for Active; 'I' for Inactive)
REMARK    1  A    between atoms: N_1  and  C_4
REMARK    2  A    between atoms: C_4  and  C_5
REMARK                            x       y       z     vdW  Elec       q    Type
REMARK                         _______ _______ _______ _____ _____    ______ ____
ROOT
ATOM      1  N   UNL     1     -11.725   0.236   8.463  0.00  0.00    -0.354 N 
ATOM      2  N   UNL     1     -11.129  -0.831  10.430  0.00  0.00    -0.372 N 
ATOM      3  N   UNL     1      -9.477  -0.189   8.973  0.00  0.00    -0.372 N 
ATOM      4  C   UNL     1     -10.778  -0.254   9.274  0.00  0.00    +0.166 C 
ATOM      5  H   UNL     1     -12.695   0.128   8.735  0.00  0.00    +0.163 HD
ATOM      6  H   UNL     1     -10.437  -1.206  11.065  0.00  0.00    +0.159 HD
ATOM      7  H   UNL     1     -12.097  -0.896  10.721  0.00  0.00    +0.159 HD
ATOM      8  H   UNL     1      -9.147   0.228   8.113  0.00  0.00    +0.159 HD
ATOM      9  H   UNL     1      -8.770  -0.570   9.589  0.00  0.00    +0.159 HD
ENDROOT
BRANCH   1  10
ATOM     10  C   UNL     1     -11.446   0.931   7.207  0.00  0.00    +0.151 C 
BRANCH  10  11
ATOM     11  C   UNL     1     -11.775   0.019   6.057  0.00  0.00    -0.028 A 
ATOM     12  C   UNL     1     -10.847  -0.935   5.616  0.00  0.00    +0.005 A 
ATOM     13  C   UNL     1     -13.017   0.100   5.409  0.00  0.00    +0.005 A 
ATOM     14  C   UNL     1     -11.164  -1.802   4.568  0.00  0.00    +0.000 A 
ATOM     15  C   UNL     1     -13.330  -0.767   4.362  0.00  0.00    +0.000 A 
ATOM     16  C   UNL     1     -12.404  -1.719   3.944  0.00  0.00    +0.000 A 
ENDBRANCH  10  11
ENDBRANCH   1  10
TORSDOF 2
ENDMDL
MODEL 9
REMARK VINA RESULT:    -4.332     19.677     20.483
REMARK INTER + INTRA:          -4.952
REMARK INTER:                  -4.835
REMARK INTRA:                  -0.117
REMARK UNBOUND:                -0.114
REMARK  Name = 1550473
REMARK  2 active torsions:
REMARK  status: ('A' for Active; 'I' for Inactive)
REMARK    1  A    between atoms: N_1  and  C_4
REMARK    2  A    between atoms: C_4  and  C_5
REMARK                            x       y       z     vdW  Elec       q    Type
REMARK                         _______ _______ _______ _____ _____    ______ ____
ROOT
ATOM      1  N   UNL     1     -14.107   1.644   6.957  0.00  0.00    -0.354 N 
ATOM      2  N   UNL     1     -15.500   1.760   8.803  0.00  0.00    -0.372 N 
ATOM      3  N   UNL     1     -16.432   1.804   6.707  0.00  0.00    -0.372 N 
ATOM      4  C   UNL     1     -15.339   1.735   7.475  0.00  0.00    +0.166 C 
ATOM      5  H   UNL     1     -13.318   1.626   7.592  0.00  0.00    +0.163 HD
ATOM      6  H   UNL     1     -16.418   1.825   9.224  0.00  0.00    +0.159 HD
ATOM      7  H   UNL     1     -14.712   1.695   9.437  0.00  0.00    +0.159 HD
ATOM      8  H   UNL     1     -16.378   1.796   5.697  0.00  0.00    +0.159 HD
ATOM      9  H   UNL     1     -17.358   1.881   7.109  0.00  0.00    +0.159 HD
ENDROOT
BRANCH   1  10
ATOM     10  C   UNL     1     -13.827   1.556   5.525  0.00  0.00    +0.151 C 
BRANCH  10  11
ATOM     11  C   UNL     1     -12.850   0.438   5.283  0.00  0.00    -0.028 A 
ATOM     12  C   UNL     1     -11.582   0.459   5.881  0.00  0.00    +0.005 A 
ATOM     13  C   UNL     1     -13.190  -0.647   4.461  0.00  0.00    +0.005 A 
ATOM     14  C   UNL     1     -10.686  -0.593   5.681  0.00  0.00    +0.000 A 
ATOM     15  C   UNL     1     -12.291  -1.696   4.263  0.00  0.00    +0.000 A 
ATOM     16  C   UNL     1     -11.041  -1.670   4.875  0.00  0.00    +0.000 A 
ENDBRANCH  10  11
ENDBRANCH   1  10
TORSDOF 2
ENDMDL
