MODEL 1
REMARK VINA RESULT:    -5.305      0.000      0.000
REMARK INTER + INTRA:          -6.077
REMARK INTER:                  -5.926
REMARK INTRA:                  -0.152
REMARK UNBOUND:                -0.152
REMARK  Name = 1550473
REMARK  2 active torsions:
REMARK  status: ('A' for Active; 'I' for Inactive)
REMARK    1  A    between atoms: N_1  and  C_4
REMARK    2  A    between atoms: C_4  and  C_5
REMARK                            x       y       z     vdW  Elec       q    Type
REMARK                         _______ _______ _______ _____ _____    ______ ____
ROOT
ATOM      1  N   UNL     1     -12.673  -2.811   4.183  0.00  0.00    -0.354 N 
ATOM      2  N   UNL     1     -14.398  -4.174   4.910  0.00  0.00    -0.372 N 
ATOM      3  N   UNL     1     -13.954  -4.052   2.663  0.00  0.00    -0.372 N 
ATOM      4  C   UNL     1     -13.664  -3.670   3.911  0.00  0.00    +0.166 C 
ATOM      5  H   UNL     1     -12.524  -2.538   5.148  0.00  0.00    +0.163 HD
ATOM      6  H   UNL     1     -15.150  -4.828   4.736  0.00  0.00    +0.159 HD
ATOM      7  H   UNL     1     -14.217  -3.936   5.878  0.00  0.00    +0.159 HD
ATOM      8  H   UNL     1     -13.441  -3.703   1.864  0.00  0.00    +0.159 HD
ATOM      9  H   UNL     1     -14.710  -4.696   2.467  0.00  0.00    +0.159 HD
ENDROOT
BRANCH   1  10
ATOM     10  C   UNL     1     -11.780  -2.246   3.173  0.00  0.00    +0.151 C 
BRANCH  10  11
ATOM     11  C   UNL     1     -12.233  -0.851   2.842  0.00  0.00    -0.028 A 
ATOM     12  C   UNL     1     -12.888  -0.068   3.804  0.00  0.00    +0.005 A 
ATOM     13  C   UNL     1     -12.005  -0.304   1.570  0.00  0.00    +0.005 A 
ATOM     14  C   UNL     1     -13.283   1.239   3.506  0.00  0.00    +0.000 A 
ATOM     15  C   UNL     1     -12.401   1.001   1.277  0.00  0.00    +0.000 A 
ATOM     16  C   UNL     1     -13.037   1.773   2.246  0.00  0.00    +0.000 A 
ENDBRANCH  10  11
ENDBRANCH   1  10
TORSDOF 2
ENDMDL
MODEL 2
REMARK VINA RESULT:    -4.666      2.833      4.064
REMARK INTER + INTRA:          -5.363
REMARK INTER:                  -5.218
REMARK INTRA:                  -0.145
REMARK UNBOUND:                -0.152
REMARK  Name = 1550473
REMARK  2 active torsions:
REMARK  status: ('A' for Active; 'I' for Inactive)
REMARK    1  A    between atoms: N_1  and  C_4
REMARK    2  A    between atoms: C_4  and  C_5
REMARK                            x       y       z     vdW  Elec       q    Type
REMARK                         _______ _______ _______ _____ _____    ______ ____
ROOT
ATOM      1  N   UNL     1     -10.816  -1.836   3.177  0.00  0.00    -0.354 N 
ATOM      2  N   UNL     1      -9.140  -3.245   3.931  0.00  0.00    -0.372 N 
ATOM      3  N   UNL     1      -8.657  -1.735   2.271  0.00  0.00    -0.372 N 
ATOM      4  C   UNL     1      -9.547  -2.261   3.119  0.00  0.00    +0.166 C 
ATOM      5  H   UNL     1     -11.449  -2.296   3.820  0.00  0.00    +0.163 HD
ATOM      6  H   UNL     1      -8.187  -3.584   3.912  0.00  0.00    +0.159 HD
ATOM      7  H   UNL     1      -9.763  -3.672   4.605  0.00  0.00    +0.159 HD
ATOM      8  H   UNL     1      -8.903  -0.994   1.628  0.00  0.00    +0.159 HD
ATOM      9  H   UNL     1      -7.702  -2.070   2.230  0.00  0.00    +0.159 HD
ENDROOT
BRANCH   1  10
ATOM     10  C   UNL     1     -11.347  -0.735   2.374  0.00  0.00    +0.151 C 
BRANCH  10  11
ATOM     11  C   UNL     1     -11.889  -1.285   1.084  0.00  0.00    -0.028 A 
ATOM     12  C   UNL     1     -12.735  -2.404   1.087  0.00  0.00    +0.005 A 
ATOM     13  C   UNL     1     -11.566  -0.687  -0.144  0.00  0.00    +0.005 A 
ATOM     14  C   UNL     1     -13.263  -2.896  -0.109  0.00  0.00    +0.000 A 
ATOM     15  C   UNL     1     -12.095  -1.183  -1.336  0.00  0.00    +0.000 A 
ATOM     16  C   UNL     1     -12.946  -2.286  -1.318  0.00  0.00    +0.000 A 
ENDBRANCH  10  11
ENDBRANCH   1  10
TORSDOF 2
ENDMDL
MODEL 3
REMARK VINA RESULT:    -4.635     15.217     16.184
REMARK INTER + INTRA:          -5.328
REMARK INTER:                  -5.223
REMARK INTRA:                  -0.106
REMARK UNBOUND:                -0.152
REMARK  Name = 1550473
REMARK  2 active torsions:
REMARK  status: ('A' for Active; 'I' for Inactive)
REMARK    1  A    between atoms: N_1  and  C_4
REMARK    2  A    between atoms: C_4  and  C_5
REMARK                            x       y       z     vdW  Elec       q    Type
REMARK                         _______ _______ _______ _____ _____    ______ ____
ROOT
ATOM      1  N   UNL     1      -3.872   5.196  -7.674  0.00  0.00    -0.354 N 
ATOM      2  N   UNL     1      -4.866   7.089  -6.784  0.00  0.00    -0.372 N 
ATOM      3  N   UNL     1      -3.450   7.318  -8.575  0.00  0.00    -0.372 N 
ATOM      4  C   UNL     1      -4.055   6.523  -7.686  0.00  0.00    +0.166 C 
ATOM      5  H   UNL     1      -4.336   4.653  -6.955  0.00  0.00    +0.163 HD
ATOM      6  H   UNL     1      -5.026   8.088  -6.771  0.00  0.00    +0.159 HD
ATOM      7  H   UNL     1      -5.364   6.539  -6.095  0.00  0.00    +0.159 HD
ATOM      8  H   UNL     1      -2.821   6.953  -9.278  0.00  0.00    +0.159 HD
ATOM      9  H   UNL     1      -3.588   8.320  -8.570  0.00  0.00    +0.159 HD
ENDROOT
BRANCH   1  10
ATOM     10  C   UNL     1      -3.052   4.475  -8.645  0.00  0.00    +0.151 C 
BRANCH  10  11
ATOM     11  C   UNL     1      -3.720   3.170  -8.980  0.00  0.00    -0.028 A 
ATOM     12  C   UNL     1      -3.594   2.066  -8.124  0.00  0.00    +0.005 A 
ATOM     13  C   UNL     1      -4.485   3.032 -10.148  0.00  0.00    +0.005 A 
ATOM     14  C   UNL     1      -4.239   0.862  -8.419  0.00  0.00    +0.000 A 
ATOM     15  C   UNL     1      -5.126   1.829 -10.440  0.00  0.00    +0.000 A 
ATOM     16  C   UNL     1      -5.005   0.745  -9.574  0.00  0.00    +0.000 A 
ENDBRANCH  10  11
ENDBRANCH   1  10
TORSDOF 2
ENDMDL
MODEL 4
REMARK VINA RESULT:    -4.611     14.823     16.110
REMARK INTER + INTRA:          -5.302
REMARK INTER:                  -5.211
REMARK INTRA:                  -0.091
REMARK UNBOUND:                -0.152
REMARK  Name = 1550473
REMARK  2 active torsions:
REMARK  status: ('A' for Active; 'I' for Inactive)
REMARK    1  A    between atoms: N_1  and  C_4
REMARK    2  A    between atoms: C_4  and  C_5
REMARK                            x       y       z     vdW  Elec       q    Type
REMARK                         _______ _______ _______ _____ _____    ______ ____
ROOT
ATOM      1  N   UNL     1      -4.064   2.029  -9.090  0.00  0.00    -0.354 N 
ATOM      2  N   UNL     1      -5.455   0.522 -10.167  0.00  0.00    -0.372 N 
ATOM      3  N   UNL     1      -5.035   0.240  -7.929  0.00  0.00    -0.372 N 
ATOM      4  C   UNL     1      -4.842   0.939  -9.052  0.00  0.00    +0.166 C 
ATOM      5  H   UNL     1      -3.935   2.497  -9.980  0.00  0.00    +0.163 HD
ATOM      6  H   UNL     1      -6.050  -0.295 -10.168  0.00  0.00    +0.159 HD
ATOM      7  H   UNL     1      -5.360   1.018 -11.045  0.00  0.00    +0.159 HD
ATOM      8  H   UNL     1      -4.596   0.499  -7.055  0.00  0.00    +0.159 HD
ATOM      9  H   UNL     1      -5.618  -0.587  -7.913  0.00  0.00    +0.159 HD
ENDROOT
BRANCH   1  10
ATOM     10  C   UNL     1      -3.395   2.597  -7.921  0.00  0.00    +0.151 C 
BRANCH  10  11
ATOM     11  C   UNL     1      -2.723   3.883  -8.317  0.00  0.00    -0.028 A 
ATOM     12  C   UNL     1      -3.325   5.118  -8.035  0.00  0.00    +0.005 A 
ATOM     13  C   UNL     1      -1.480   3.873  -8.969  0.00  0.00    +0.005 A 
ATOM     14  C   UNL     1      -2.686   6.313  -8.376  0.00  0.00    +0.000 A 
ATOM     15  C   UNL     1      -0.846   5.068  -9.308  0.00  0.00    +0.000 A 
ATOM     16  C   UNL     1      -1.449   6.288  -9.009  0.00  0.00    +0.000 A 
ENDBRANCH  10  11
ENDBRANCH   1  10
TORSDOF 2
ENDMDL
MODEL 5
REMARK VINA RESULT:    -4.602     10.506     11.963
REMARK INTER + INTRA:          -5.292
REMARK INTER:                  -5.117
REMARK INTRA:                  -0.175
REMARK UNBOUND:                -0.152
REMARK  Name = 1550473
REMARK  2 active torsions:
REMARK  status: ('A' for Active; 'I' for Inactive)
REMARK    1  A    between atoms: N_1  and  C_4
REMARK    2  A    between atoms: C_4  and  C_5
REMARK                            x       y       z     vdW  Elec       q    Type
REMARK                         _______ _______ _______ _____ _____    ______ ____
ROOT
ATOM      1  N   UNL     1      -8.827   7.950  10.469  0.00  0.00    -0.354 N 
ATOM      2  N   UNL     1      -9.063   9.672   8.938  0.00  0.00    -0.372 N 
ATOM      3  N   UNL     1     -10.887   9.027  10.172  0.00  0.00    -0.372 N 
ATOM      4  C   UNL     1      -9.593   8.871   9.870  0.00  0.00    +0.166 C 
ATOM      5  H   UNL     1      -7.861   7.862  10.174  0.00  0.00    +0.163 HD
ATOM      6  H   UNL     1      -9.615  10.379   8.472  0.00  0.00    +0.159 HD
ATOM      7  H   UNL     1      -8.086   9.613   8.678  0.00  0.00    +0.159 HD
ATOM      8  H   UNL     1     -11.348   8.450  10.862  0.00  0.00    +0.159 HD
ATOM      9  H   UNL     1     -11.459   9.721   9.708  0.00  0.00    +0.159 HD
ENDROOT
BRANCH   1  10
ATOM     10  C   UNL     1      -9.293   7.065  11.534  0.00  0.00    +0.151 C 
BRANCH  10  11
ATOM     11  C   UNL     1      -9.405   5.665  10.997  0.00  0.00    -0.028 A 
ATOM     12  C   UNL     1     -10.597   5.223  10.403  0.00  0.00    +0.005 A 
ATOM     13  C   UNL     1      -8.321   4.777  11.072  0.00  0.00    +0.005 A 
ATOM     14  C   UNL     1     -10.692   3.933   9.877  0.00  0.00    +0.000 A 
ATOM     15  C   UNL     1      -8.420   3.489  10.546  0.00  0.00    +0.000 A 
ATOM     16  C   UNL     1      -9.604   3.068   9.946  0.00  0.00    +0.000 A 
ENDBRANCH  10  11
ENDBRANCH   1  10
TORSDOF 2
ENDMDL
MODEL 6
REMARK VINA RESULT:    -4.589     12.361     13.558
REMARK INTER + INTRA:          -5.277
REMARK INTER:                  -5.182
REMARK INTRA:                  -0.095
REMARK UNBOUND:                -0.152
REMARK  Name = 1550473
REMARK  2 active torsions:
REMARK  status: ('A' for Active; 'I' for Inactive)
REMARK    1  A    between atoms: N_1  and  C_4
REMARK    2  A    between atoms: C_4  and  C_5
REMARK                            x       y       z     vdW  Elec       q    Type
REMARK                         _______ _______ _______ _____ _____    ______ ____
ROOT
ATOM      1  N   UNL     1      -9.109   9.442   9.220  0.00  0.00    -0.354 N 
ATOM      2  N   UNL     1      -8.932  11.202   7.725  0.00  0.00    -0.372 N 
ATOM      3  N   UNL     1     -10.514   9.583   7.350  0.00  0.00    -0.372 N 
ATOM      4  C   UNL     1      -9.521  10.063   8.107  0.00  0.00    +0.166 C 
ATOM      5  H   UNL     1      -8.332   9.841   9.734  0.00  0.00    +0.163 HD
ATOM      6  H   UNL     1      -9.224  11.695   6.891  0.00  0.00    +0.159 HD
ATOM      7  H   UNL     1      -8.186  11.623   8.265  0.00  0.00    +0.159 HD
ATOM      8  H   UNL     1     -10.996   8.725   7.580  0.00  0.00    +0.159 HD
ATOM      9  H   UNL     1     -10.813  10.056   6.505  0.00  0.00    +0.159 HD
ENDROOT
BRANCH   1  10
ATOM     10  C   UNL     1      -9.720   8.225   9.752  0.00  0.00    +0.151 C 
BRANCH  10  11
ATOM     11  C   UNL     1      -8.839   7.666  10.834  0.00  0.00    -0.028 A 
ATOM     12  C   UNL     1      -7.684   6.940  10.508  0.00  0.00    +0.005 A 
ATOM     13  C   UNL     1      -9.149   7.863  12.188  0.00  0.00    +0.005 A 
ATOM     14  C   UNL     1      -6.849   6.445  11.512  0.00  0.00    +0.000 A 
ATOM     15  C   UNL     1      -8.313   7.367  13.189  0.00  0.00    +0.000 A 
ATOM     16  C   UNL     1      -7.162   6.661  12.850  0.00  0.00    +0.000 A 
ENDBRANCH  10  11
ENDBRANCH   1  10
TORSDOF 2
ENDMDL
MODEL 7
REMARK VINA RESULT:    -4.540     15.031     16.255
REMARK INTER + INTRA:          -5.222
REMARK INTER:                  -5.216
REMARK INTRA:                  -0.006
REMARK UNBOUND:                -0.152
REMARK  Name = 1550473
REMARK  2 active torsions:
REMARK  status: ('A' for Active; 'I' for Inactive)
REMARK    1  A    between atoms: N_1  and  C_4
REMARK    2  A    between atoms: C_4  and  C_5
REMARK                            x       y       z     vdW  Elec       q    Type
REMARK                         _______ _______ _______ _____ _____    ______ ____
ROOT
ATOM      1  N   UNL     1      -2.986   3.772  -8.591  0.00  0.00    -0.354 N 
ATOM      2  N   UNL     1      -3.957   1.931  -7.575  0.00  0.00    -0.372 N 
ATOM      3  N   UNL     1      -2.286   3.053  -6.473  0.00  0.00    -0.372 N 
ATOM      4  C   UNL     1      -3.068   2.931  -7.551  0.00  0.00    +0.166 C 
ATOM      5  H   UNL     1      -3.586   3.608  -9.391  0.00  0.00    +0.163 HD
ATOM      6  H   UNL     1      -4.045   1.284  -6.803  0.00  0.00    +0.159 HD
ATOM      7  H   UNL     1      -4.588   1.797  -8.356  0.00  0.00    +0.159 HD
ATOM      8  H   UNL     1      -1.590   3.783  -6.396  0.00  0.00    +0.159 HD
ATOM      9  H   UNL     1      -2.350   2.407  -5.696  0.00  0.00    +0.159 HD
ENDROOT
BRANCH   1  10
ATOM     10  C   UNL     1      -2.088   4.925  -8.642  0.00  0.00    +0.151 C 
BRANCH  10  11
ATOM     11  C   UNL     1      -2.882   6.177  -8.390  0.00  0.00    -0.028 A 
ATOM     12  C   UNL     1      -4.022   6.145  -7.574  0.00  0.00    +0.005 A 
ATOM     13  C   UNL     1      -2.497   7.399  -8.960  0.00  0.00    +0.005 A 
ATOM     14  C   UNL     1      -4.743   7.313  -7.315  0.00  0.00    +0.000 A 
ATOM     15  C   UNL     1      -3.219   8.564  -8.701  0.00  0.00    +0.000 A 
ATOM     16  C   UNL     1      -4.341   8.521  -7.876  0.00  0.00    +0.000 A 
ENDBRANCH  10  11
ENDBRANCH   1  10
TORSDOF 2
ENDMDL
MODEL 8
REMARK VINA RESULT:    -4.522     16.759     18.345
REMARK INTER + INTRA:          -5.203
REMARK INTER:                  -5.100
REMARK INTRA:                  -0.103
REMARK UNBOUND:                -0.152
REMARK  Name = 1550473
REMARK  2 active torsions:
REMARK  status: ('A' for Active; 'I' for Inactive)
REMARK    1  A    between atoms: N_1  and  C_4
REMARK    2  A    between atoms: C_4  and  C_5
REMARK                            x       y       z     vdW  Elec       q    Type
REMARK                         _______ _______ _______ _____ _____    ______ ____
ROOT
ATOM      1  N   UNL     1      -2.346   8.156  -8.814  0.00  0.00    -0.354 N 
ATOM      2  N   UNL     1      -2.624  10.398  -8.306  0.00  0.00    -0.372 N 
ATOM      3  N   UNL     1      -0.813   9.762  -9.563  0.00  0.00    -0.372 N 
ATOM      4  C   UNL     1      -1.923   9.424  -8.899  0.00  0.00    +0.166 C 
ATOM      5  H   UNL     1      -3.179   7.961  -8.271  0.00  0.00    +0.163 HD
ATOM      6  H   UNL     1      -2.332  11.365  -8.355  0.00  0.00    +0.159 HD
ATOM      7  H   UNL     1      -3.482  10.207  -7.802  0.00  0.00    +0.159 HD
ATOM      8  H   UNL     1      -0.236   9.074 -10.027  0.00  0.00    +0.159 HD
ATOM      9  H   UNL     1      -0.497  10.723  -9.614  0.00  0.00    +0.159 HD
ENDROOT
BRANCH   1  10
ATOM     10  C   UNL     1      -1.685   7.028  -9.469  0.00  0.00    +0.151 C 
BRANCH  10  11
ATOM     11  C   UNL     1      -1.959   5.775  -8.685  0.00  0.00    -0.028 A 
ATOM     12  C   UNL     1      -3.277   5.353  -8.454  0.00  0.00    +0.005 A 
ATOM     13  C   UNL     1      -0.906   5.001  -8.174  0.00  0.00    +0.005 A 
ATOM     14  C   UNL     1      -3.532   4.173  -7.752  0.00  0.00    +0.000 A 
ATOM     15  C   UNL     1      -1.165   3.824  -7.472  0.00  0.00    +0.000 A 
ATOM     16  C   UNL     1      -2.478   3.409  -7.263  0.00  0.00    +0.000 A 
ENDBRANCH  10  11
ENDBRANCH   1  10
TORSDOF 2
ENDMDL
MODEL 9
REMARK VINA RESULT:    -4.507     16.109     17.544
REMARK INTER + INTRA:          -5.186
REMARK INTER:                  -5.062
REMARK INTRA:                  -0.124
REMARK UNBOUND:                -0.152
REMARK  Name = 1550473
REMARK  2 active torsions:
REMARK  status: ('A' for Active; 'I' for Inactive)
REMARK    1  A    between atoms: N_1  and  C_4
REMARK    2  A    between atoms: C_4  and  C_5
REMARK                            x       y       z     vdW  Elec       q    Type
REMARK                         _______ _______ _______ _____ _____    ______ ____
ROOT
ATOM      1  N   UNL     1      -1.548   4.957  -7.675  0.00  0.00    -0.354 N 
ATOM      2  N   UNL     1      -2.277   3.126  -6.459  0.00  0.00    -0.372 N 
ATOM      3  N   UNL     1      -2.215   2.983  -8.748  0.00  0.00    -0.372 N 
ATOM      4  C   UNL     1      -2.009   3.700  -7.638  0.00  0.00    +0.166 C 
ATOM      5  H   UNL     1      -1.441   5.456  -6.800  0.00  0.00    +0.163 HD
ATOM      6  H   UNL     1      -2.623   2.177  -6.399  0.00  0.00    +0.159 HD
ATOM      7  H   UNL     1      -2.127   3.612  -5.583  0.00  0.00    +0.159 HD
ATOM      8  H   UNL     1      -2.038   3.361  -9.669  0.00  0.00    +0.159 HD
ATOM      9  H   UNL     1      -2.572   2.037  -8.710  0.00  0.00    +0.159 HD
ENDROOT
BRANCH   1  10
ATOM     10  C   UNL     1      -1.174   5.655  -8.904  0.00  0.00    +0.151 C 
BRANCH  10  11
ATOM     11  C   UNL     1      -2.023   6.888  -9.046  0.00  0.00    -0.028 A 
ATOM     12  C   UNL     1      -1.578   7.973  -9.815  0.00  0.00    +0.005 A 
ATOM     13  C   UNL     1      -3.275   6.974  -8.419  0.00  0.00    +0.005 A 
ATOM     14  C   UNL     1      -2.380   9.107  -9.972  0.00  0.00    +0.000 A 
ATOM     15  C   UNL     1      -4.072   8.108  -8.577  0.00  0.00    +0.000 A 
ATOM     16  C   UNL     1      -3.625   9.173  -9.356  0.00  0.00    +0.000 A 
ENDBRANCH  10  11
ENDBRANCH   1  10
TORSDOF 2
ENDMDL
