MODEL 1
REMARK VINA RESULT:    -4.495      0.000      0.000
REMARK INTER + INTRA:          -5.127
REMARK INTER:                  -5.021
REMARK INTRA:                  -0.106
REMARK UNBOUND:                -0.106
REMARK  Name = 1550473
REMARK  2 active torsions:
REMARK  status: ('A' for Active; 'I' for Inactive)
REMARK    1  A    between atoms: N_1  and  C_4
REMARK    2  A    between atoms: C_4  and  C_5
REMARK                            x       y       z     vdW  Elec       q    Type
REMARK                         _______ _______ _______ _____ _____    ______ ____
ROOT
ATOM      1  N   UNL     1       9.344   5.843  -1.041  0.00  0.00    -0.354 N 
ATOM      2  N   UNL     1       7.651   6.498  -2.479  0.00  0.00    -0.372 N 
ATOM      3  N   UNL     1       8.953   8.109  -1.491  0.00  0.00    -0.372 N 
ATOM      4  C   UNL     1       8.662   6.815  -1.660  0.00  0.00    +0.166 C 
ATOM      5  H   UNL     1       9.054   4.883  -1.188  0.00  0.00    +0.163 HD
ATOM      6  H   UNL     1       7.120   7.210  -2.963  0.00  0.00    +0.159 HD
ATOM      7  H   UNL     1       7.393   5.536  -2.660  0.00  0.00    +0.159 HD
ATOM      8  H   UNL     1       9.700   8.414  -0.882  0.00  0.00    +0.159 HD
ATOM      9  H   UNL     1       8.426   8.837  -1.957  0.00  0.00    +0.159 HD
ENDROOT
BRANCH   1  10
ATOM     10  C   UNL     1      10.496   6.078  -0.172  0.00  0.00    +0.151 C 
BRANCH  10  11
ATOM     11  C   UNL     1      10.797   4.820   0.595  0.00  0.00    -0.028 A 
ATOM     12  C   UNL     1      11.037   4.868   1.976  0.00  0.00    +0.005 A 
ATOM     13  C   UNL     1      10.839   3.576  -0.053  0.00  0.00    +0.005 A 
ATOM     14  C   UNL     1      11.288   3.696   2.694  0.00  0.00    +0.000 A 
ATOM     15  C   UNL     1      11.091   2.408   0.668  0.00  0.00    +0.000 A 
ATOM     16  C   UNL     1      11.312   2.469   2.041  0.00  0.00    +0.000 A 
ENDBRANCH  10  11
ENDBRANCH   1  10
TORSDOF 2
ENDMDL
MODEL 2
REMARK VINA RESULT:    -4.317     20.672     21.693
REMARK INTER + INTRA:          -4.928
REMARK INTER:                  -4.790
REMARK INTRA:                  -0.138
REMARK UNBOUND:                -0.106
REMARK  Name = 1550473
REMARK  2 active torsions:
REMARK  status: ('A' for Active; 'I' for Inactive)
REMARK    1  A    between atoms: N_1  and  C_4
REMARK    2  A    between atoms: C_4  and  C_5
REMARK                            x       y       z     vdW  Elec       q    Type
REMARK                         _______ _______ _______ _____ _____    ______ ____
ROOT
ATOM      1  N   UNL     1      -3.217 -10.553   5.367  0.00  0.00    -0.354 N 
ATOM      2  N   UNL     1      -1.773 -11.996   4.275  0.00  0.00    -0.372 N 
ATOM      3  N   UNL     1      -1.320  -9.747   4.252  0.00  0.00    -0.372 N 
ATOM      4  C   UNL     1      -2.112 -10.753   4.638  0.00  0.00    +0.166 C 
ATOM      5  H   UNL     1      -3.791 -11.354   5.602  0.00  0.00    +0.163 HD
ATOM      6  H   UNL     1      -0.942 -12.179   3.728  0.00  0.00    +0.159 HD
ATOM      7  H   UNL     1      -2.323 -12.801   4.550  0.00  0.00    +0.159 HD
ATOM      8  H   UNL     1      -1.524  -8.785   4.488  0.00  0.00    +0.159 HD
ATOM      9  H   UNL     1      -0.491  -9.908   3.693  0.00  0.00    +0.159 HD
ENDROOT
BRANCH   1  10
ATOM     10  C   UNL     1      -3.646  -9.244   5.859  0.00  0.00    +0.151 C 
BRANCH  10  11
ATOM     11  C   UNL     1      -4.119  -9.385   7.280  0.00  0.00    -0.028 A 
ATOM     12  C   UNL     1      -3.720 -10.482   8.058  0.00  0.00    +0.005 A 
ATOM     13  C   UNL     1      -4.961  -8.421   7.856  0.00  0.00    +0.005 A 
ATOM     14  C   UNL     1      -4.135 -10.597   9.387  0.00  0.00    +0.000 A 
ATOM     15  C   UNL     1      -5.373  -8.540   9.183  0.00  0.00    +0.000 A 
ATOM     16  C   UNL     1      -4.958  -9.627   9.949  0.00  0.00    +0.000 A 
ENDBRANCH  10  11
ENDBRANCH   1  10
TORSDOF 2
ENDMDL
MODEL 3
REMARK VINA RESULT:    -4.282     21.266     22.222
REMARK INTER + INTRA:          -4.890
REMARK INTER:                  -4.758
REMARK INTRA:                  -0.132
REMARK UNBOUND:                -0.106
REMARK  Name = 1550473
REMARK  2 active torsions:
REMARK  status: ('A' for Active; 'I' for Inactive)
REMARK    1  A    between atoms: N_1  and  C_4
REMARK    2  A    between atoms: C_4  and  C_5
REMARK                            x       y       z     vdW  Elec       q    Type
REMARK                         _______ _______ _______ _____ _____    ______ ____
ROOT
ATOM      1  N   UNL     1      -3.811  -9.012   6.847  0.00  0.00    -0.354 N 
ATOM      2  N   UNL     1      -2.745  -8.624   4.828  0.00  0.00    -0.372 N 
ATOM      3  N   UNL     1      -3.752 -10.656   5.178  0.00  0.00    -0.372 N 
ATOM      4  C   UNL     1      -3.444  -9.436   5.631  0.00  0.00    +0.166 C 
ATOM      5  H   UNL     1      -3.520  -8.087   7.143  0.00  0.00    +0.163 HD
ATOM      6  H   UNL     1      -2.457  -8.915   3.904  0.00  0.00    +0.159 HD
ATOM      7  H   UNL     1      -2.495  -7.683   5.108  0.00  0.00    +0.159 HD
ATOM      8  H   UNL     1      -4.272 -11.319   5.737  0.00  0.00    +0.159 HD
ATOM      9  H   UNL     1      -3.462 -10.970   4.260  0.00  0.00    +0.159 HD
ENDROOT
BRANCH   1  10
ATOM     10  C   UNL     1      -4.619  -9.798   7.778  0.00  0.00    +0.151 C 
BRANCH  10  11
ATOM     11  C   UNL     1      -5.451  -8.866   8.615  0.00  0.00    -0.028 A 
ATOM     12  C   UNL     1      -6.062  -9.320   9.793  0.00  0.00    +0.005 A 
ATOM     13  C   UNL     1      -5.627  -7.525   8.239  0.00  0.00    +0.005 A 
ATOM     14  C   UNL     1      -6.810  -8.447  10.586  0.00  0.00    +0.000 A 
ATOM     15  C   UNL     1      -6.374  -6.657   9.033  0.00  0.00    +0.000 A 
ATOM     16  C   UNL     1      -6.964  -7.117  10.208  0.00  0.00    +0.000 A 
ENDBRANCH  10  11
ENDBRANCH   1  10
TORSDOF 2
ENDMDL
MODEL 4
REMARK VINA RESULT:    -4.182      2.691      4.974
REMARK INTER + INTRA:          -4.778
REMARK INTER:                  -4.657
REMARK INTRA:                  -0.120
REMARK UNBOUND:                -0.106
REMARK  Name = 1550473
REMARK  2 active torsions:
REMARK  status: ('A' for Active; 'I' for Inactive)
REMARK    1  A    between atoms: N_1  and  C_4
REMARK    2  A    between atoms: C_4  and  C_5
REMARK                            x       y       z     vdW  Elec       q    Type
REMARK                         _______ _______ _______ _____ _____    ______ ____
ROOT
ATOM      1  N   UNL     1      10.619   4.440   1.510  0.00  0.00    -0.354 N 
ATOM      2  N   UNL     1      10.958   2.521   2.760  0.00  0.00    -0.372 N 
ATOM      3  N   UNL     1      12.203   4.389   3.236  0.00  0.00    -0.372 N 
ATOM      4  C   UNL     1      11.259   3.797   2.495  0.00  0.00    +0.166 C 
ATOM      5  H   UNL     1       9.935   3.927   0.965  0.00  0.00    +0.163 HD
ATOM      6  H   UNL     1      11.422   2.011   3.500  0.00  0.00    +0.159 HD
ATOM      7  H   UNL     1      10.242   2.024   2.244  0.00  0.00    +0.159 HD
ATOM      8  H   UNL     1      12.481   5.348   3.082  0.00  0.00    +0.159 HD
ATOM      9  H   UNL     1      12.687   3.891   3.973  0.00  0.00    +0.159 HD
ENDROOT
BRANCH   1  10
ATOM     10  C   UNL     1      10.835   5.847   1.175  0.00  0.00    +0.151 C 
BRANCH  10  11
ATOM     11  C   UNL     1      10.248   6.125  -0.182  0.00  0.00    -0.028 A 
ATOM     12  C   UNL     1       9.762   7.401  -0.499  0.00  0.00    +0.005 A 
ATOM     13  C   UNL     1      10.181   5.117  -1.156  0.00  0.00    +0.005 A 
ATOM     14  C   UNL     1       9.244   7.668  -1.769  0.00  0.00    +0.000 A 
ATOM     15  C   UNL     1       9.663   5.387  -2.422  0.00  0.00    +0.000 A 
ATOM     16  C   UNL     1       9.197   6.663  -2.729  0.00  0.00    +0.000 A 
ENDBRANCH  10  11
ENDBRANCH   1  10
TORSDOF 2
ENDMDL
MODEL 5
REMARK VINA RESULT:    -4.179     23.406     24.247
REMARK INTER + INTRA:          -4.774
REMARK INTER:                  -4.675
REMARK INTRA:                  -0.099
REMARK UNBOUND:                -0.106
REMARK  Name = 1550473
REMARK  2 active torsions:
REMARK  status: ('A' for Active; 'I' for Inactive)
REMARK    1  A    between atoms: N_1  and  C_4
REMARK    2  A    between atoms: C_4  and  C_5
REMARK                            x       y       z     vdW  Elec       q    Type
REMARK                         _______ _______ _______ _____ _____    ______ ____
ROOT
ATOM      1  N   UNL     1      -7.110  -6.540  10.156  0.00  0.00    -0.354 N 
ATOM      2  N   UNL     1      -6.047  -6.478   8.099  0.00  0.00    -0.372 N 
ATOM      3  N   UNL     1      -8.073  -7.541   8.269  0.00  0.00    -0.372 N 
ATOM      4  C   UNL     1      -7.086  -6.855   8.854  0.00  0.00    +0.166 C 
ATOM      5  H   UNL     1      -6.317  -6.044  10.546  0.00  0.00    +0.163 HD
ATOM      6  H   UNL     1      -6.003  -6.698   7.113  0.00  0.00    +0.159 HD
ATOM      7  H   UNL     1      -5.277  -5.943   8.481  0.00  0.00    +0.159 HD
ATOM      8  H   UNL     1      -8.883  -7.860   8.785  0.00  0.00    +0.159 HD
ATOM      9  H   UNL     1      -8.042  -7.782   7.286  0.00  0.00    +0.159 HD
ENDROOT
BRANCH   1  10
ATOM     10  C   UNL     1      -8.219  -6.856  11.054  0.00  0.00    +0.151 C 
BRANCH  10  11
ATOM     11  C   UNL     1      -7.710  -6.899  12.468  0.00  0.00    -0.028 A 
ATOM     12  C   UNL     1      -7.126  -8.067  12.980  0.00  0.00    +0.005 A 
ATOM     13  C   UNL     1      -7.804  -5.772  13.300  0.00  0.00    +0.005 A 
ATOM     14  C   UNL     1      -6.626  -8.097  14.284  0.00  0.00    +0.000 A 
ATOM     15  C   UNL     1      -7.304  -5.807  14.601  0.00  0.00    +0.000 A 
ATOM     16  C   UNL     1      -6.712  -6.969  15.092  0.00  0.00    +0.000 A 
ENDBRANCH  10  11
ENDBRANCH   1  10
TORSDOF 2
ENDMDL
MODEL 6
REMARK VINA RESULT:    -4.167      2.544      5.239
REMARK INTER + INTRA:          -4.760
REMARK INTER:                  -4.646
REMARK INTRA:                  -0.114
REMARK UNBOUND:                -0.106
REMARK  Name = 1550473
REMARK  2 active torsions:
REMARK  status: ('A' for Active; 'I' for Inactive)
REMARK    1  A    between atoms: N_1  and  C_4
REMARK    2  A    between atoms: C_4  and  C_5
REMARK                            x       y       z     vdW  Elec       q    Type
REMARK                         _______ _______ _______ _____ _____    ______ ____
ROOT
ATOM      1  N   UNL     1      10.870   4.149   0.579  0.00  0.00    -0.354 N 
ATOM      2  N   UNL     1      10.822   2.868   2.508  0.00  0.00    -0.372 N 
ATOM      3  N   UNL     1      10.684   1.815   0.474  0.00  0.00    -0.372 N 
ATOM      4  C   UNL     1      10.792   2.951   1.173  0.00  0.00    +0.166 C 
ATOM      5  H   UNL     1      10.919   4.974   1.166  0.00  0.00    +0.163 HD
ATOM      6  H   UNL     1      10.768   1.978   2.984  0.00  0.00    +0.159 HD
ATOM      7  H   UNL     1      10.917   3.691   3.091  0.00  0.00    +0.159 HD
ATOM      8  H   UNL     1      10.650   1.809  -0.536  0.00  0.00    +0.159 HD
ATOM      9  H   UNL     1      10.618   0.915   0.933  0.00  0.00    +0.159 HD
ENDROOT
BRANCH   1  10
ATOM     10  C   UNL     1      10.900   4.344  -0.869  0.00  0.00    +0.151 C 
BRANCH  10  11
ATOM     11  C   UNL     1      10.211   5.638  -1.205  0.00  0.00    -0.028 A 
ATOM     12  C   UNL     1       9.330   5.713  -2.294  0.00  0.00    +0.005 A 
ATOM     13  C   UNL     1      10.431   6.790  -0.436  0.00  0.00    +0.005 A 
ATOM     14  C   UNL     1       8.666   6.907  -2.589  0.00  0.00    +0.000 A 
ATOM     15  C   UNL     1       9.767   7.980  -0.734  0.00  0.00    +0.000 A 
ATOM     16  C   UNL     1       8.883   8.038  -1.808  0.00  0.00    +0.000 A 
ENDBRANCH  10  11
ENDBRANCH   1  10
TORSDOF 2
ENDMDL
MODEL 7
REMARK VINA RESULT:    -4.145     15.751     17.343
REMARK INTER + INTRA:          -4.736
REMARK INTER:                  -4.615
REMARK INTRA:                  -0.122
REMARK UNBOUND:                -0.106
REMARK  Name = 1550473
REMARK  2 active torsions:
REMARK  status: ('A' for Active; 'I' for Inactive)
REMARK    1  A    between atoms: N_1  and  C_4
REMARK    2  A    between atoms: C_4  and  C_5
REMARK                            x       y       z     vdW  Elec       q    Type
REMARK                         _______ _______ _______ _____ _____    ______ ____
ROOT
ATOM      1  N   UNL     1       5.576  -8.019   7.765  0.00  0.00    -0.354 N 
ATOM      2  N   UNL     1       7.611  -6.918   7.681  0.00  0.00    -0.372 N 
ATOM      3  N   UNL     1       6.065  -6.273   9.249  0.00  0.00    -0.372 N 
ATOM      4  C   UNL     1       6.403  -7.076   8.234  0.00  0.00    +0.166 C 
ATOM      5  H   UNL     1       5.879  -8.575   6.974  0.00  0.00    +0.163 HD
ATOM      6  H   UNL     1       8.258  -6.217   8.017  0.00  0.00    +0.159 HD
ATOM      7  H   UNL     1       7.930  -7.506   6.921  0.00  0.00    +0.159 HD
ATOM      8  H   UNL     1       5.165  -6.337   9.706  0.00  0.00    +0.159 HD
ATOM      9  H   UNL     1       6.694  -5.558   9.591  0.00  0.00    +0.159 HD
ENDROOT
BRANCH   1  10
ATOM     10  C   UNL     1       4.259  -8.308   8.331  0.00  0.00    +0.151 C 
BRANCH  10  11
ATOM     11  C   UNL     1       3.662  -9.486   7.611  0.00  0.00    -0.028 A 
ATOM     12  C   UNL     1       2.299  -9.785   7.744  0.00  0.00    +0.005 A 
ATOM     13  C   UNL     1       4.454 -10.302   6.788  0.00  0.00    +0.005 A 
ATOM     14  C   UNL     1       1.737 -10.860   7.051  0.00  0.00    +0.000 A 
ATOM     15  C   UNL     1       3.890 -11.375   6.099  0.00  0.00    +0.000 A 
ATOM     16  C   UNL     1       2.531 -11.652   6.228  0.00  0.00    +0.000 A 
ENDBRANCH  10  11
ENDBRANCH   1  10
TORSDOF 2
ENDMDL
MODEL 8
REMARK VINA RESULT:    -4.118      4.501      6.055
REMARK INTER + INTRA:          -4.706
REMARK INTER:                  -4.582
REMARK INTRA:                  -0.124
REMARK UNBOUND:                -0.106
REMARK  Name = 1550473
REMARK  2 active torsions:
REMARK  status: ('A' for Active; 'I' for Inactive)
REMARK    1  A    between atoms: N_1  and  C_4
REMARK    2  A    between atoms: C_4  and  C_5
REMARK                            x       y       z     vdW  Elec       q    Type
REMARK                         _______ _______ _______ _____ _____    ______ ____
ROOT
ATOM      1  N   UNL     1       6.024   8.911  -4.685  0.00  0.00    -0.354 N 
ATOM      2  N   UNL     1       3.712   8.776  -4.655  0.00  0.00    -0.372 N 
ATOM      3  N   UNL     1       4.885   7.397  -6.064  0.00  0.00    -0.372 N 
ATOM      4  C   UNL     1       4.889   8.360  -5.137  0.00  0.00    +0.166 C 
ATOM      5  H   UNL     1       5.958   9.658  -4.003  0.00  0.00    +0.163 HD
ATOM      6  H   UNL     1       2.840   8.377  -4.974  0.00  0.00    +0.159 HD
ATOM      7  H   UNL     1       3.652   9.491  -3.940  0.00  0.00    +0.159 HD
ATOM      8  H   UNL     1       5.740   7.043  -6.473  0.00  0.00    +0.159 HD
ATOM      9  H   UNL     1       4.022   6.993  -6.405  0.00  0.00    +0.159 HD
ENDROOT
BRANCH   1  10
ATOM     10  C   UNL     1       7.360   8.493  -5.106  0.00  0.00    +0.151 C 
BRANCH  10  11
ATOM     11  C   UNL     1       8.135   8.037  -3.900  0.00  0.00    -0.028 A 
ATOM     12  C   UNL     1       7.501   7.317  -2.877  0.00  0.00    +0.005 A 
ATOM     13  C   UNL     1       9.504   8.318  -3.777  0.00  0.00    +0.005 A 
ATOM     14  C   UNL     1       8.227   6.868  -1.771  0.00  0.00    +0.000 A 
ATOM     15  C   UNL     1      10.225   7.869  -2.671  0.00  0.00    +0.000 A 
ATOM     16  C   UNL     1       9.586   7.141  -1.669  0.00  0.00    +0.000 A 
ENDBRANCH  10  11
ENDBRANCH   1  10
TORSDOF 2
ENDMDL
MODEL 9
REMARK VINA RESULT:    -4.086      1.097      2.176
REMARK INTER + INTRA:          -4.670
REMARK INTER:                  -4.552
REMARK INTRA:                  -0.118
REMARK UNBOUND:                -0.106
REMARK  Name = 1550473
REMARK  2 active torsions:
REMARK  status: ('A' for Active; 'I' for Inactive)
REMARK    1  A    between atoms: N_1  and  C_4
REMARK    2  A    between atoms: C_4  and  C_5
REMARK                            x       y       z     vdW  Elec       q    Type
REMARK                         _______ _______ _______ _____ _____    ______ ____
ROOT
ATOM      1  N   UNL     1      10.308   5.882  -0.178  0.00  0.00    -0.354 N 
ATOM      2  N   UNL     1       9.366   7.754  -1.163  0.00  0.00    -0.372 N 
ATOM      3  N   UNL     1       9.058   5.707  -2.152  0.00  0.00    -0.372 N 
ATOM      4  C   UNL     1       9.583   6.434  -1.160  0.00  0.00    +0.166 C 
ATOM      5  H   UNL     1      10.704   6.491   0.529  0.00  0.00    +0.163 HD
ATOM      6  H   UNL     1       8.819   8.199  -1.888  0.00  0.00    +0.159 HD
ATOM      7  H   UNL     1       9.724   8.355  -0.430  0.00  0.00    +0.159 HD
ATOM      8  H   UNL     1       9.190   4.706  -2.211  0.00  0.00    +0.159 HD
ATOM      9  H   UNL     1       8.518   6.135  -2.894  0.00  0.00    +0.159 HD
ENDROOT
BRANCH   1  10
ATOM     10  C   UNL     1      10.558   4.447  -0.053  0.00  0.00    +0.151 C 
BRANCH  10  11
ATOM     11  C   UNL     1      11.059   4.155   1.335  0.00  0.00    -0.028 A 
ATOM     12  C   UNL     1      10.882   2.884   1.902  0.00  0.00    +0.005 A 
ATOM     13  C   UNL     1      11.716   5.142   2.085  0.00  0.00    +0.005 A 
ATOM     14  C   UNL     1      11.374   2.603   3.180  0.00  0.00    +0.000 A 
ATOM     15  C   UNL     1      12.204   4.858   3.360  0.00  0.00    +0.000 A 
ATOM     16  C   UNL     1      12.035   3.588   3.906  0.00  0.00    +0.000 A 
ENDBRANCH  10  11
ENDBRANCH   1  10
TORSDOF 2
ENDMDL
