MODEL 1
REMARK VINA RESULT:    -5.402      0.000      0.000
REMARK INTER + INTRA:          -6.176
REMARK INTER:                  -6.034
REMARK INTRA:                  -0.142
REMARK UNBOUND:                -0.142
REMARK  Name = 1550473
REMARK  2 active torsions:
REMARK  status: ('A' for Active; 'I' for Inactive)
REMARK    1  A    between atoms: N_1  and  C_4
REMARK    2  A    between atoms: C_4  and  C_5
REMARK                            x       y       z     vdW  Elec       q    Type
REMARK                         _______ _______ _______ _____ _____    ______ ____
ROOT
ATOM      1  N   UNL     1      -4.251  -6.856 -10.701  0.00  0.00    -0.354 N 
ATOM      2  N   UNL     1      -2.561  -5.464 -11.457  0.00  0.00    -0.372 N 
ATOM      3  N   UNL     1      -4.301  -4.553 -10.271  0.00  0.00    -0.372 N 
ATOM      4  C   UNL     1      -3.717  -5.631 -10.804  0.00  0.00    +0.166 C 
ATOM      5  H   UNL     1      -3.775  -7.628 -11.153  0.00  0.00    +0.163 HD
ATOM      6  H   UNL     1      -2.132  -4.553 -11.547  0.00  0.00    +0.159 HD
ATOM      7  H   UNL     1      -2.064  -6.245 -11.868  0.00  0.00    +0.159 HD
ATOM      8  H   UNL     1      -5.178  -4.611  -9.770  0.00  0.00    +0.159 HD
ATOM      9  H   UNL     1      -3.893  -3.631 -10.361  0.00  0.00    +0.159 HD
ENDROOT
BRANCH   1  10
ATOM     10  C   UNL     1      -5.479  -7.154  -9.966  0.00  0.00    +0.151 C 
BRANCH  10  11
ATOM     11  C   UNL     1      -6.402  -7.945 -10.850  0.00  0.00    -0.028 A 
ATOM     12  C   UNL     1      -6.097  -8.140 -12.205  0.00  0.00    +0.005 A 
ATOM     13  C   UNL     1      -7.581  -8.509 -10.338  0.00  0.00    +0.005 A 
ATOM     14  C   UNL     1      -6.939  -8.900 -13.020  0.00  0.00    +0.000 A 
ATOM     15  C   UNL     1      -8.419  -9.267 -11.155  0.00  0.00    +0.000 A 
ATOM     16  C   UNL     1      -8.097  -9.464 -12.495  0.00  0.00    +0.000 A 
ENDBRANCH  10  11
ENDBRANCH   1  10
TORSDOF 2
ENDMDL
MODEL 2
REMARK VINA RESULT:    -5.111      1.425      2.187
REMARK INTER + INTRA:          -5.850
REMARK INTER:                  -5.712
REMARK INTRA:                  -0.138
REMARK UNBOUND:                -0.142
REMARK  Name = 1550473
REMARK  2 active torsions:
REMARK  status: ('A' for Active; 'I' for Inactive)
REMARK    1  A    between atoms: N_1  and  C_4
REMARK    2  A    between atoms: C_4  and  C_5
REMARK                            x       y       z     vdW  Elec       q    Type
REMARK                         _______ _______ _______ _____ _____    ______ ____
ROOT
ATOM      1  N   UNL     1      -4.436  -5.924 -13.145  0.00  0.00    -0.354 N 
ATOM      2  N   UNL     1      -3.598  -3.808 -12.718  0.00  0.00    -0.372 N 
ATOM      3  N   UNL     1      -2.580  -5.621 -11.748  0.00  0.00    -0.372 N 
ATOM      4  C   UNL     1      -3.542  -5.133 -12.538  0.00  0.00    +0.166 C 
ATOM      5  H   UNL     1      -5.160  -5.490 -13.707  0.00  0.00    +0.163 HD
ATOM      6  H   UNL     1      -2.934  -3.186 -12.275  0.00  0.00    +0.159 HD
ATOM      7  H   UNL     1      -4.293  -3.380 -13.317  0.00  0.00    +0.159 HD
ATOM      8  H   UNL     1      -2.487  -6.612 -11.567  0.00  0.00    +0.159 HD
ATOM      9  H   UNL     1      -1.914  -5.014 -11.287  0.00  0.00    +0.159 HD
ENDROOT
BRANCH   1  10
ATOM     10  C   UNL     1      -4.430  -7.383 -13.058  0.00  0.00    +0.151 C 
BRANCH  10  11
ATOM     11  C   UNL     1      -5.590  -7.830 -12.212  0.00  0.00    -0.028 A 
ATOM     12  C   UNL     1      -6.638  -8.572 -12.776  0.00  0.00    +0.005 A 
ATOM     13  C   UNL     1      -5.644  -7.520 -10.845  0.00  0.00    +0.005 A 
ATOM     14  C   UNL     1      -7.701  -9.013 -11.984  0.00  0.00    +0.000 A 
ATOM     15  C   UNL     1      -6.707  -7.962 -10.058  0.00  0.00    +0.000 A 
ATOM     16  C   UNL     1      -7.735  -8.710 -10.627  0.00  0.00    +0.000 A 
ENDBRANCH  10  11
ENDBRANCH   1  10
TORSDOF 2
ENDMDL
MODEL 3
REMARK VINA RESULT:    -4.983      1.206      1.660
REMARK INTER + INTRA:          -5.708
REMARK INTER:                  -5.540
REMARK INTRA:                  -0.168
REMARK UNBOUND:                -0.142
REMARK  Name = 1550473
REMARK  2 active torsions:
REMARK  status: ('A' for Active; 'I' for Inactive)
REMARK    1  A    between atoms: N_1  and  C_4
REMARK    2  A    between atoms: C_4  and  C_5
REMARK                            x       y       z     vdW  Elec       q    Type
REMARK                         _______ _______ _______ _____ _____    ______ ____
ROOT
ATOM      1  N   UNL     1      -5.726  -5.638  -9.932  0.00  0.00    -0.354 N 
ATOM      2  N   UNL     1      -6.138  -3.369 -10.142  0.00  0.00    -0.372 N 
ATOM      3  N   UNL     1      -4.594  -4.349 -11.528  0.00  0.00    -0.372 N 
ATOM      4  C   UNL     1      -5.481  -4.467 -10.534  0.00  0.00    +0.166 C 
ATOM      5  H   UNL     1      -6.388  -5.655  -9.165  0.00  0.00    +0.163 HD
ATOM      6  H   UNL     1      -5.977  -2.472 -10.580  0.00  0.00    +0.159 HD
ATOM      7  H   UNL     1      -6.833  -3.398  -9.406  0.00  0.00    +0.159 HD
ATOM      8  H   UNL     1      -4.062  -5.138 -11.867  0.00  0.00    +0.159 HD
ATOM      9  H   UNL     1      -4.411  -3.457 -11.971  0.00  0.00    +0.159 HD
ENDROOT
BRANCH   1  10
ATOM     10  C   UNL     1      -5.105  -6.903 -10.320  0.00  0.00    +0.151 C 
BRANCH  10  11
ATOM     11  C   UNL     1      -6.128  -7.762 -11.010  0.00  0.00    -0.028 A 
ATOM     12  C   UNL     1      -6.001  -8.062 -12.375  0.00  0.00    +0.005 A 
ATOM     13  C   UNL     1      -7.223  -8.283 -10.305  0.00  0.00    +0.005 A 
ATOM     14  C   UNL     1      -6.935  -8.885 -13.010  0.00  0.00    +0.000 A 
ATOM     15  C   UNL     1      -8.154  -9.103 -10.943  0.00  0.00    +0.000 A 
ATOM     16  C   UNL     1      -8.008  -9.405 -12.294  0.00  0.00    +0.000 A 
ENDBRANCH  10  11
ENDBRANCH   1  10
TORSDOF 2
ENDMDL
MODEL 4
REMARK VINA RESULT:    -4.794      0.875      1.852
REMARK INTER + INTRA:          -5.497
REMARK INTER:                  -5.360
REMARK INTRA:                  -0.137
REMARK UNBOUND:                -0.142
REMARK  Name = 1550473
REMARK  2 active torsions:
REMARK  status: ('A' for Active; 'I' for Inactive)
REMARK    1  A    between atoms: N_1  and  C_4
REMARK    2  A    between atoms: C_4  and  C_5
REMARK                            x       y       z     vdW  Elec       q    Type
REMARK                         _______ _______ _______ _____ _____    ______ ____
ROOT
ATOM      1  N   UNL     1      -5.404  -5.959 -10.901  0.00  0.00    -0.354 N 
ATOM      2  N   UNL     1      -4.502  -4.110 -11.964  0.00  0.00    -0.372 N 
ATOM      3  N   UNL     1      -3.127  -5.874 -11.450  0.00  0.00    -0.372 N 
ATOM      4  C   UNL     1      -4.348  -5.328 -11.431  0.00  0.00    +0.166 C 
ATOM      5  H   UNL     1      -6.296  -5.479 -10.890  0.00  0.00    +0.163 HD
ATOM      6  H   UNL     1      -3.724  -3.611 -12.374  0.00  0.00    +0.159 HD
ATOM      7  H   UNL     1      -5.404  -3.652 -11.994  0.00  0.00    +0.159 HD
ATOM      8  H   UNL     1      -2.943  -6.788 -11.058  0.00  0.00    +0.159 HD
ATOM      9  H   UNL     1      -2.334  -5.385 -11.845  0.00  0.00    +0.159 HD
ENDROOT
BRANCH   1  10
ATOM     10  C   UNL     1      -5.354  -7.310 -10.343  0.00  0.00    +0.151 C 
BRANCH  10  11
ATOM     11  C   UNL     1      -6.472  -8.125 -10.931  0.00  0.00    -0.028 A 
ATOM     12  C   UNL     1      -7.500  -8.617 -10.113  0.00  0.00    +0.005 A 
ATOM     13  C   UNL     1      -6.513  -8.405 -12.305  0.00  0.00    +0.005 A 
ATOM     14  C   UNL     1      -8.555  -9.349 -10.663  0.00  0.00    +0.000 A 
ATOM     15  C   UNL     1      -7.568  -9.137 -12.850  0.00  0.00    +0.000 A 
ATOM     16  C   UNL     1      -8.590  -9.607 -12.029  0.00  0.00    +0.000 A 
ENDBRANCH  10  11
ENDBRANCH   1  10
TORSDOF 2
ENDMDL
MODEL 5
REMARK VINA RESULT:    -4.618      1.673      2.397
REMARK INTER + INTRA:          -5.301
REMARK INTER:                  -5.136
REMARK INTRA:                  -0.164
REMARK UNBOUND:                -0.142
REMARK  Name = 1550473
REMARK  2 active torsions:
REMARK  status: ('A' for Active; 'I' for Inactive)
REMARK    1  A    between atoms: N_1  and  C_4
REMARK    2  A    between atoms: C_4  and  C_5
REMARK                            x       y       z     vdW  Elec       q    Type
REMARK                         _______ _______ _______ _____ _____    ______ ____
ROOT
ATOM      1  N   UNL     1      -6.239  -5.635 -10.529  0.00  0.00    -0.354 N 
ATOM      2  N   UNL     1      -6.157  -3.323 -10.415  0.00  0.00    -0.372 N 
ATOM      3  N   UNL     1      -4.240  -4.522 -10.023  0.00  0.00    -0.372 N 
ATOM      4  C   UNL     1      -5.544  -4.509 -10.322  0.00  0.00    +0.166 C 
ATOM      5  H   UNL     1      -7.231  -5.559 -10.723  0.00  0.00    +0.163 HD
ATOM      6  H   UNL     1      -5.657  -2.457 -10.268  0.00  0.00    +0.159 HD
ATOM      7  H   UNL     1      -7.139  -3.248 -10.655  0.00  0.00    +0.159 HD
ATOM      8  H   UNL     1      -3.720  -5.384  -9.932  0.00  0.00    +0.159 HD
ATOM      9  H   UNL     1      -3.725  -3.665  -9.861  0.00  0.00    +0.159 HD
ENDROOT
BRANCH   1  10
ATOM     10  C   UNL     1      -5.654  -6.974 -10.504  0.00  0.00    +0.151 C 
BRANCH  10  11
ATOM     11  C   UNL     1      -5.721  -7.565 -11.886  0.00  0.00    -0.028 A 
ATOM     12  C   UNL     1      -4.725  -7.280 -12.831  0.00  0.00    +0.005 A 
ATOM     13  C   UNL     1      -6.775  -8.416 -12.253  0.00  0.00    +0.005 A 
ATOM     14  C   UNL     1      -4.771  -7.852 -14.105  0.00  0.00    +0.000 A 
ATOM     15  C   UNL     1      -6.817  -8.985 -13.526  0.00  0.00    +0.000 A 
ATOM     16  C   UNL     1      -5.814  -8.705 -14.450  0.00  0.00    +0.000 A 
ENDBRANCH  10  11
ENDBRANCH   1  10
TORSDOF 2
ENDMDL
MODEL 6
REMARK VINA RESULT:    -4.254      3.281      4.129
REMARK INTER + INTRA:          -4.894
REMARK INTER:                  -4.715
REMARK INTRA:                  -0.179
REMARK UNBOUND:                -0.142
REMARK  Name = 1550473
REMARK  2 active torsions:
REMARK  status: ('A' for Active; 'I' for Inactive)
REMARK    1  A    between atoms: N_1  and  C_4
REMARK    2  A    between atoms: C_4  and  C_5
REMARK                            x       y       z     vdW  Elec       q    Type
REMARK                         _______ _______ _______ _____ _____    ______ ____
ROOT
ATOM      1  N   UNL     1      -4.113  -4.346 -11.613  0.00  0.00    -0.354 N 
ATOM      2  N   UNL     1      -5.912  -3.577 -10.373  0.00  0.00    -0.372 N 
ATOM      3  N   UNL     1      -5.244  -5.757 -10.123  0.00  0.00    -0.372 N 
ATOM      4  C   UNL     1      -5.078  -4.568 -10.710  0.00  0.00    +0.166 C 
ATOM      5  H   UNL     1      -4.059  -3.430 -12.044  0.00  0.00    +0.163 HD
ATOM      6  H   UNL     1      -6.648  -3.713  -9.693  0.00  0.00    +0.159 HD
ATOM      7  H   UNL     1      -5.827  -2.650 -10.772  0.00  0.00    +0.159 HD
ATOM      8  H   UNL     1      -4.652  -6.548 -10.338  0.00  0.00    +0.159 HD
ATOM      9  H   UNL     1      -5.982  -5.917  -9.448  0.00  0.00    +0.159 HD
ENDROOT
BRANCH   1  10
ATOM     10  C   UNL     1      -3.120  -5.342 -12.010  0.00  0.00    +0.151 C 
BRANCH  10  11
ATOM     11  C   UNL     1      -3.559  -5.989 -13.294  0.00  0.00    -0.028 A 
ATOM     12  C   UNL     1      -3.615  -5.247 -14.483  0.00  0.00    +0.005 A 
ATOM     13  C   UNL     1      -3.916  -7.346 -13.329  0.00  0.00    +0.005 A 
ATOM     14  C   UNL     1      -3.994  -5.856 -15.682  0.00  0.00    +0.000 A 
ATOM     15  C   UNL     1      -4.295  -7.950 -14.528  0.00  0.00    +0.000 A 
ATOM     16  C   UNL     1      -4.332  -7.205 -15.705  0.00  0.00    +0.000 A 
ENDBRANCH  10  11
ENDBRANCH   1  10
TORSDOF 2
ENDMDL
MODEL 7
REMARK VINA RESULT:    -4.207      2.523      3.051
REMARK INTER + INTRA:          -4.841
REMARK INTER:                  -4.715
REMARK INTRA:                  -0.126
REMARK UNBOUND:                -0.142
REMARK  Name = 1550473
REMARK  2 active torsions:
REMARK  status: ('A' for Active; 'I' for Inactive)
REMARK    1  A    between atoms: N_1  and  C_4
REMARK    2  A    between atoms: C_4  and  C_5
REMARK                            x       y       z     vdW  Elec       q    Type
REMARK                         _______ _______ _______ _____ _____    ______ ____
ROOT
ATOM      1  N   UNL     1      -6.434  -4.585 -12.490  0.00  0.00    -0.354 N 
ATOM      2  N   UNL     1      -6.158  -3.596 -14.566  0.00  0.00    -0.372 N 
ATOM      3  N   UNL     1      -4.495  -3.373 -13.001  0.00  0.00    -0.372 N 
ATOM      4  C   UNL     1      -5.695  -3.857 -13.337  0.00  0.00    +0.166 C 
ATOM      5  H   UNL     1      -7.349  -4.897 -12.795  0.00  0.00    +0.163 HD
ATOM      6  H   UNL     1      -5.621  -3.052 -15.228  0.00  0.00    +0.159 HD
ATOM      7  H   UNL     1      -7.052  -3.948 -14.884  0.00  0.00    +0.159 HD
ATOM      8  H   UNL     1      -4.091  -3.529 -12.086  0.00  0.00    +0.159 HD
ATOM      9  H   UNL     1      -3.948  -2.817 -13.646  0.00  0.00    +0.159 HD
ENDROOT
BRANCH   1  10
ATOM     10  C   UNL     1      -5.999  -4.970 -11.149  0.00  0.00    +0.151 C 
BRANCH  10  11
ATOM     11  C   UNL     1      -6.578  -6.317 -10.813  0.00  0.00    -0.028 A 
ATOM     12  C   UNL     1      -6.002  -7.109  -9.808  0.00  0.00    +0.005 A 
ATOM     13  C   UNL     1      -7.706  -6.804 -11.491  0.00  0.00    +0.005 A 
ATOM     14  C   UNL     1      -6.557  -8.347  -9.475  0.00  0.00    +0.000 A 
ATOM     15  C   UNL     1      -8.256  -8.041 -11.156  0.00  0.00    +0.000 A 
ATOM     16  C   UNL     1      -7.683  -8.811 -10.146  0.00  0.00    +0.000 A 
ENDBRANCH  10  11
ENDBRANCH   1  10
TORSDOF 2
ENDMDL
MODEL 8
REMARK VINA RESULT:    -4.201      3.816      4.264
REMARK INTER + INTRA:          -4.835
REMARK INTER:                  -4.695
REMARK INTRA:                  -0.139
REMARK UNBOUND:                -0.142
REMARK  Name = 1550473
REMARK  2 active torsions:
REMARK  status: ('A' for Active; 'I' for Inactive)
REMARK    1  A    between atoms: N_1  and  C_4
REMARK    2  A    between atoms: C_4  and  C_5
REMARK                            x       y       z     vdW  Elec       q    Type
REMARK                         _______ _______ _______ _____ _____    ______ ____
ROOT
ATOM      1  N   UNL     1      -7.857  -3.666 -12.493  0.00  0.00    -0.354 N 
ATOM      2  N   UNL     1      -8.841  -1.804 -13.456  0.00  0.00    -0.372 N 
ATOM      3  N   UNL     1      -7.200  -2.915 -14.613  0.00  0.00    -0.372 N 
ATOM      4  C   UNL     1      -7.957  -2.808 -13.517  0.00  0.00    +0.166 C 
ATOM      5  H   UNL     1      -8.438  -3.513 -11.678  0.00  0.00    +0.163 HD
ATOM      6  H   UNL     1      -8.942  -1.143 -14.215  0.00  0.00    +0.159 HD
ATOM      7  H   UNL     1      -9.453  -1.680 -12.659  0.00  0.00    +0.159 HD
ATOM      8  H   UNL     1      -6.510  -3.646 -14.718  0.00  0.00    +0.159 HD
ATOM      9  H   UNL     1      -7.278  -2.255 -15.378  0.00  0.00    +0.159 HD
ENDROOT
BRANCH   1  10
ATOM     10  C   UNL     1      -6.965  -4.824 -12.482  0.00  0.00    +0.151 C 
BRANCH  10  11
ATOM     11  C   UNL     1      -7.746  -6.043 -12.076  0.00  0.00    -0.028 A 
ATOM     12  C   UNL     1      -7.183  -6.996 -11.215  0.00  0.00    +0.005 A 
ATOM     13  C   UNL     1      -9.054  -6.247 -12.543  0.00  0.00    +0.005 A 
ATOM     14  C   UNL     1      -7.919  -8.113 -10.813  0.00  0.00    +0.000 A 
ATOM     15  C   UNL     1      -9.786  -7.364 -12.140  0.00  0.00    +0.000 A 
ATOM     16  C   UNL     1      -9.219  -8.295 -11.273  0.00  0.00    +0.000 A 
ENDBRANCH  10  11
ENDBRANCH   1  10
TORSDOF 2
ENDMDL
MODEL 9
REMARK VINA RESULT:    -4.084     15.230     16.637
REMARK INTER + INTRA:          -4.703
REMARK INTER:                  -4.547
REMARK INTRA:                  -0.156
REMARK UNBOUND:                -0.142
REMARK  Name = 1550473
REMARK  2 active torsions:
REMARK  status: ('A' for Active; 'I' for Inactive)
REMARK    1  A    between atoms: N_1  and  C_4
REMARK    2  A    between atoms: C_4  and  C_5
REMARK                            x       y       z     vdW  Elec       q    Type
REMARK                         _______ _______ _______ _____ _____    ______ ____
ROOT
ATOM      1  N   UNL     1     -14.000   5.281  -6.355  0.00  0.00    -0.354 N 
ATOM      2  N   UNL     1     -15.588   4.476  -7.837  0.00  0.00    -0.372 N 
ATOM      3  N   UNL     1     -13.566   3.401  -7.685  0.00  0.00    -0.372 N 
ATOM      4  C   UNL     1     -14.372   4.389  -7.283  0.00  0.00    +0.166 C 
ATOM      5  H   UNL     1     -14.646   6.024  -6.116  0.00  0.00    +0.163 HD
ATOM      6  H   UNL     1     -15.897   3.815  -8.537  0.00  0.00    +0.159 HD
ATOM      7  H   UNL     1     -16.248   5.192  -7.563  0.00  0.00    +0.159 HD
ATOM      8  H   UNL     1     -12.634   3.284  -7.310  0.00  0.00    +0.159 HD
ATOM      9  H   UNL     1     -13.854   2.737  -8.393  0.00  0.00    +0.159 HD
ENDROOT
BRANCH   1  10
ATOM     10  C   UNL     1     -12.719   5.243  -5.651  0.00  0.00    +0.151 C 
BRANCH  10  11
ATOM     11  C   UNL     1     -11.941   6.486  -5.982  0.00  0.00    -0.028 A 
ATOM     12  C   UNL     1     -10.998   6.481  -7.020  0.00  0.00    +0.005 A 
ATOM     13  C   UNL     1     -12.146   7.675  -5.264  0.00  0.00    +0.005 A 
ATOM     14  C   UNL     1     -10.296   7.644  -7.347  0.00  0.00    +0.000 A 
ATOM     15  C   UNL     1     -11.442   8.833  -5.593  0.00  0.00    +0.000 A 
ATOM     16  C   UNL     1     -10.519   8.818  -6.636  0.00  0.00    +0.000 A 
ENDBRANCH  10  11
ENDBRANCH   1  10
TORSDOF 2
ENDMDL
