MODEL 1
REMARK VINA RESULT:    -5.657      0.000      0.000
REMARK INTER + INTRA:          -6.496
REMARK INTER:                  -6.318
REMARK INTRA:                  -0.178
REMARK UNBOUND:                -0.178
REMARK  Name = 1550473
REMARK  2 active torsions:
REMARK  status: ('A' for Active; 'I' for Inactive)
REMARK    1  A    between atoms: N_1  and  C_4
REMARK    2  A    between atoms: C_4  and  C_5
REMARK                            x       y       z     vdW  Elec       q    Type
REMARK                         _______ _______ _______ _____ _____    ______ ____
ROOT
ATOM      1  N   UNL     1      -7.286   4.194   3.452  0.00  0.00    -0.354 N 
ATOM      2  N   UNL     1      -6.460   4.972   5.471  0.00  0.00    -0.372 N 
ATOM      3  N   UNL     1      -5.766   2.924   4.704  0.00  0.00    -0.372 N 
ATOM      4  C   UNL     1      -6.508   4.022   4.529  0.00  0.00    +0.166 C 
ATOM      5  H   UNL     1      -7.848   5.036   3.393  0.00  0.00    +0.163 HD
ATOM      6  H   UNL     1      -5.880   4.872   6.293  0.00  0.00    +0.159 HD
ATOM      7  H   UNL     1      -6.988   5.833   5.387  0.00  0.00    +0.159 HD
ATOM      8  H   UNL     1      -5.762   2.168   4.033  0.00  0.00    +0.159 HD
ATOM      9  H   UNL     1      -5.188   2.800   5.526  0.00  0.00    +0.159 HD
ENDROOT
BRANCH   1  10
ATOM     10  C   UNL     1      -7.369   3.245   2.343  0.00  0.00    +0.151 C 
BRANCH  10  11
ATOM     11  C   UNL     1      -6.582   3.780   1.179  0.00  0.00    -0.028 A 
ATOM     12  C   UNL     1      -7.194   4.609   0.227  0.00  0.00    +0.005 A 
ATOM     13  C   UNL     1      -5.223   3.467   1.024  0.00  0.00    +0.005 A 
ATOM     14  C   UNL     1      -6.456   5.131  -0.839  0.00  0.00    +0.000 A 
ATOM     15  C   UNL     1      -4.490   3.989  -0.041  0.00  0.00    +0.000 A 
ATOM     16  C   UNL     1      -5.107   4.823  -0.971  0.00  0.00    +0.000 A 
ENDBRANCH  10  11
ENDBRANCH   1  10
TORSDOF 2
ENDMDL
MODEL 2
REMARK VINA RESULT:    -5.596      2.844      4.708
REMARK INTER + INTRA:          -6.429
REMARK INTER:                  -6.293
REMARK INTRA:                  -0.136
REMARK UNBOUND:                -0.178
REMARK  Name = 1550473
REMARK  2 active torsions:
REMARK  status: ('A' for Active; 'I' for Inactive)
REMARK    1  A    between atoms: N_1  and  C_4
REMARK    2  A    between atoms: C_4  and  C_5
REMARK                            x       y       z     vdW  Elec       q    Type
REMARK                         _______ _______ _______ _____ _____    ______ ____
ROOT
ATOM      1  N   UNL     1      -5.444   4.737   0.435  0.00  0.00    -0.354 N 
ATOM      2  N   UNL     1      -5.983   5.826  -1.537  0.00  0.00    -0.372 N 
ATOM      3  N   UNL     1      -4.996   3.758  -1.647  0.00  0.00    -0.372 N 
ATOM      4  C   UNL     1      -5.469   4.764  -0.904  0.00  0.00    +0.166 C 
ATOM      5  H   UNL     1      -5.791   5.544   0.940  0.00  0.00    +0.163 HD
ATOM      6  H   UNL     1      -6.019   5.874  -2.546  0.00  0.00    +0.159 HD
ATOM      7  H   UNL     1      -6.371   6.612  -1.029  0.00  0.00    +0.159 HD
ATOM      8  H   UNL     1      -4.590   2.930  -1.230  0.00  0.00    +0.159 HD
ATOM      9  H   UNL     1      -5.012   3.792  -2.658  0.00  0.00    +0.159 HD
ENDROOT
BRANCH   1  10
ATOM     10  C   UNL     1      -4.955   3.605   1.221  0.00  0.00    +0.151 C 
BRANCH  10  11
ATOM     11  C   UNL     1      -5.994   3.231   2.242  0.00  0.00    -0.028 A 
ATOM     12  C   UNL     1      -7.336   3.593   2.057  0.00  0.00    +0.005 A 
ATOM     13  C   UNL     1      -5.643   2.510   3.394  0.00  0.00    +0.005 A 
ATOM     14  C   UNL     1      -8.306   3.220   2.991  0.00  0.00    +0.000 A 
ATOM     15  C   UNL     1      -6.614   2.141   4.324  0.00  0.00    +0.000 A 
ATOM     16  C   UNL     1      -7.946   2.493   4.121  0.00  0.00    +0.000 A 
ENDBRANCH  10  11
ENDBRANCH   1  10
TORSDOF 2
ENDMDL
MODEL 3
REMARK VINA RESULT:    -5.579     14.009     15.384
REMARK INTER + INTRA:          -6.409
REMARK INTER:                  -6.273
REMARK INTRA:                  -0.136
REMARK UNBOUND:                -0.178
REMARK  Name = 1550473
REMARK  2 active torsions:
REMARK  status: ('A' for Active; 'I' for Inactive)
REMARK    1  A    between atoms: N_1  and  C_4
REMARK    2  A    between atoms: C_4  and  C_5
REMARK                            x       y       z     vdW  Elec       q    Type
REMARK                         _______ _______ _______ _____ _____    ______ ____
ROOT
ATOM      1  N   UNL     1       6.596  -2.562   2.216  0.00  0.00    -0.354 N 
ATOM      2  N   UNL     1       5.848  -0.682   1.090  0.00  0.00    -0.372 N 
ATOM      3  N   UNL     1       6.503  -0.476   3.279  0.00  0.00    -0.372 N 
ATOM      4  C   UNL     1       6.321  -1.251   2.205  0.00  0.00    +0.166 C 
ATOM      5  H   UNL     1       6.408  -3.100   1.378  0.00  0.00    +0.163 HD
ATOM      6  H   UNL     1       5.634   0.306   1.050  0.00  0.00    +0.159 HD
ATOM      7  H   UNL     1       5.704  -1.213   0.240  0.00  0.00    +0.159 HD
ATOM      8  H   UNL     1       6.851  -0.845   4.153  0.00  0.00    +0.159 HD
ATOM      9  H   UNL     1       6.284   0.513   3.263  0.00  0.00    +0.159 HD
ENDROOT
BRANCH   1  10
ATOM     10  C   UNL     1       7.166  -3.268   3.362  0.00  0.00    +0.151 C 
BRANCH  10  11
ATOM     11  C   UNL     1       6.448  -4.578   3.538  0.00  0.00    -0.028 A 
ATOM     12  C   UNL     1       7.155  -5.734   3.901  0.00  0.00    +0.005 A 
ATOM     13  C   UNL     1       5.061  -4.669   3.348  0.00  0.00    +0.005 A 
ATOM     14  C   UNL     1       6.485  -6.944   4.094  0.00  0.00    +0.000 A 
ATOM     15  C   UNL     1       4.396  -5.880   3.540  0.00  0.00    +0.000 A 
ATOM     16  C   UNL     1       5.108  -7.017   3.915  0.00  0.00    +0.000 A 
ENDBRANCH  10  11
ENDBRANCH   1  10
TORSDOF 2
ENDMDL
MODEL 4
REMARK VINA RESULT:    -5.280     10.922     12.517
REMARK INTER + INTRA:          -6.076
REMARK INTER:                  -5.944
REMARK INTRA:                  -0.131
REMARK UNBOUND:                -0.178
REMARK  Name = 1550473
REMARK  2 active torsions:
REMARK  status: ('A' for Active; 'I' for Inactive)
REMARK    1  A    between atoms: N_1  and  C_4
REMARK    2  A    between atoms: C_4  and  C_5
REMARK                            x       y       z     vdW  Elec       q    Type
REMARK                         _______ _______ _______ _____ _____    ______ ____
ROOT
ATOM      1  N   UNL     1     -12.131  -4.181   1.672  0.00  0.00    -0.354 N 
ATOM      2  N   UNL     1     -11.429  -2.406   0.361  0.00  0.00    -0.372 N 
ATOM      3  N   UNL     1     -10.689  -4.518  -0.144  0.00  0.00    -0.372 N 
ATOM      4  C   UNL     1     -11.419  -3.715   0.637  0.00  0.00    +0.166 C 
ATOM      5  H   UNL     1     -12.639  -3.517   2.244  0.00  0.00    +0.163 HD
ATOM      6  H   UNL     1     -10.904  -2.026  -0.416  0.00  0.00    +0.159 HD
ATOM      7  H   UNL     1     -11.975  -1.750   0.906  0.00  0.00    +0.159 HD
ATOM      8  H   UNL     1     -10.634  -5.515   0.015  0.00  0.00    +0.159 HD
ATOM      9  H   UNL     1     -10.148  -4.155  -0.919  0.00  0.00    +0.159 HD
ENDROOT
BRANCH   1  10
ATOM     10  C   UNL     1     -12.230  -5.596   2.025  0.00  0.00    +0.151 C 
BRANCH  10  11
ATOM     11  C   UNL     1     -13.573  -5.852   2.653  0.00  0.00    -0.028 A 
ATOM     12  C   UNL     1     -14.608  -4.914   2.528  0.00  0.00    +0.005 A 
ATOM     13  C   UNL     1     -13.818  -7.034   3.369  0.00  0.00    +0.005 A 
ATOM     14  C   UNL     1     -15.864  -5.165   3.085  0.00  0.00    +0.000 A 
ATOM     15  C   UNL     1     -15.073  -7.281   3.924  0.00  0.00    +0.000 A 
ATOM     16  C   UNL     1     -16.097  -6.347   3.780  0.00  0.00    +0.000 A 
ENDBRANCH  10  11
ENDBRANCH   1  10
TORSDOF 2
ENDMDL
MODEL 5
REMARK VINA RESULT:    -5.232     19.687     20.688
REMARK INTER + INTRA:          -6.021
REMARK INTER:                  -5.888
REMARK INTRA:                  -0.133
REMARK UNBOUND:                -0.178
REMARK  Name = 1550473
REMARK  2 active torsions:
REMARK  status: ('A' for Active; 'I' for Inactive)
REMARK    1  A    between atoms: N_1  and  C_4
REMARK    2  A    between atoms: C_4  and  C_5
REMARK                            x       y       z     vdW  Elec       q    Type
REMARK                         _______ _______ _______ _____ _____    ______ ____
ROOT
ATOM      1  N   UNL     1      11.338  11.331   4.677  0.00  0.00    -0.354 N 
ATOM      2  N   UNL     1      12.558  10.376   2.955  0.00  0.00    -0.372 N 
ATOM      3  N   UNL     1      11.114  12.092   2.472  0.00  0.00    -0.372 N 
ATOM      4  C   UNL     1      11.660  11.274   3.378  0.00  0.00    +0.166 C 
ATOM      5  H   UNL     1      11.765  10.663   5.308  0.00  0.00    +0.163 HD
ATOM      6  H   UNL     1      12.823  10.312   1.981  0.00  0.00    +0.159 HD
ATOM      7  H   UNL     1      13.017   9.740   3.595  0.00  0.00    +0.159 HD
ATOM      8  H   UNL     1      10.426  12.789   2.725  0.00  0.00    +0.159 HD
ATOM      9  H   UNL     1      11.358  12.036   1.491  0.00  0.00    +0.159 HD
ENDROOT
BRANCH   1  10
ATOM     10  C   UNL     1      10.413  12.308   5.248  0.00  0.00    +0.151 C 
BRANCH  10  11
ATOM     11  C   UNL     1      11.101  13.041   6.366  0.00  0.00    -0.028 A 
ATOM     12  C   UNL     1      12.492  12.955   6.524  0.00  0.00    +0.005 A 
ATOM     13  C   UNL     1      10.368  13.827   7.268  0.00  0.00    +0.005 A 
ATOM     14  C   UNL     1      13.135  13.660   7.544  0.00  0.00    +0.000 A 
ATOM     15  C   UNL     1      11.014  14.529   8.286  0.00  0.00    +0.000 A 
ATOM     16  C   UNL     1      12.398  14.447   8.422  0.00  0.00    +0.000 A 
ENDBRANCH  10  11
ENDBRANCH   1  10
TORSDOF 2
ENDMDL
MODEL 6
REMARK VINA RESULT:    -5.210     15.457     16.771
REMARK INTER + INTRA:          -5.997
REMARK INTER:                  -5.863
REMARK INTRA:                  -0.134
REMARK UNBOUND:                -0.178
REMARK  Name = 1550473
REMARK  2 active torsions:
REMARK  status: ('A' for Active; 'I' for Inactive)
REMARK    1  A    between atoms: N_1  and  C_4
REMARK    2  A    between atoms: C_4  and  C_5
REMARK                            x       y       z     vdW  Elec       q    Type
REMARK                         _______ _______ _______ _____ _____    ______ ____
ROOT
ATOM      1  N   UNL     1       6.200  -4.193   2.680  0.00  0.00    -0.354 N 
ATOM      2  N   UNL     1       4.148  -3.693   1.728  0.00  0.00    -0.372 N 
ATOM      3  N   UNL     1       4.845  -2.492   3.554  0.00  0.00    -0.372 N 
ATOM      4  C   UNL     1       5.078  -3.461   2.663  0.00  0.00    +0.166 C 
ATOM      5  H   UNL     1       6.302  -4.933   1.995  0.00  0.00    +0.163 HD
ATOM      6  H   UNL     1       3.293  -3.155   1.688  0.00  0.00    +0.159 HD
ATOM      7  H   UNL     1       4.274  -4.403   1.016  0.00  0.00    +0.159 HD
ATOM      8  H   UNL     1       5.504  -2.270   4.289  0.00  0.00    +0.159 HD
ATOM      9  H   UNL     1       3.990  -1.950   3.537  0.00  0.00    +0.159 HD
ENDROOT
BRANCH   1  10
ATOM     10  C   UNL     1       7.298  -3.984   3.622  0.00  0.00    +0.151 C 
BRANCH  10  11
ATOM     11  C   UNL     1       7.754  -5.317   4.148  0.00  0.00    -0.028 A 
ATOM     12  C   UNL     1       6.858  -6.163   4.818  0.00  0.00    +0.005 A 
ATOM     13  C   UNL     1       9.080  -5.742   3.974  0.00  0.00    +0.005 A 
ATOM     14  C   UNL     1       7.274  -7.414   5.280  0.00  0.00    +0.000 A 
ATOM     15  C   UNL     1       9.492  -6.992   4.437  0.00  0.00    +0.000 A 
ATOM     16  C   UNL     1       8.588  -7.828   5.088  0.00  0.00    +0.000 A 
ENDBRANCH  10  11
ENDBRANCH   1  10
TORSDOF 2
ENDMDL
MODEL 7
REMARK VINA RESULT:    -5.033     19.558     20.535
REMARK INTER + INTRA:          -5.800
REMARK INTER:                  -5.684
REMARK INTRA:                  -0.115
REMARK UNBOUND:                -0.178
REMARK  Name = 1550473
REMARK  2 active torsions:
REMARK  status: ('A' for Active; 'I' for Inactive)
REMARK    1  A    between atoms: N_1  and  C_4
REMARK    2  A    between atoms: C_4  and  C_5
REMARK                            x       y       z     vdW  Elec       q    Type
REMARK                         _______ _______ _______ _____ _____    ______ ____
ROOT
ATOM      1  N   UNL     1      10.457  12.707   5.837  0.00  0.00    -0.354 N 
ATOM      2  N   UNL     1       9.558  11.531   4.056  0.00  0.00    -0.372 N 
ATOM      3  N   UNL     1      11.826  11.874   4.127  0.00  0.00    -0.372 N 
ATOM      4  C   UNL     1      10.622  12.045   4.684  0.00  0.00    +0.166 C 
ATOM      5  H   UNL     1       9.516  12.829   6.192  0.00  0.00    +0.163 HD
ATOM      6  H   UNL     1       9.652  11.023   3.187  0.00  0.00    +0.159 HD
ATOM      7  H   UNL     1       8.623  11.614   4.437  0.00  0.00    +0.159 HD
ATOM      8  H   UNL     1      12.668  12.243   4.547  0.00  0.00    +0.159 HD
ATOM      9  H   UNL     1      11.939  11.379   3.251  0.00  0.00    +0.159 HD
ENDROOT
BRANCH   1  10
ATOM     10  C   UNL     1      11.556  13.259   6.628  0.00  0.00    +0.151 C 
BRANCH  10  11
ATOM     11  C   UNL     1      11.023  13.722   7.955  0.00  0.00    -0.028 A 
ATOM     12  C   UNL     1      10.010  13.002   8.606  0.00  0.00    +0.005 A 
ATOM     13  C   UNL     1      11.529  14.878   8.570  0.00  0.00    +0.005 A 
ATOM     14  C   UNL     1       9.535  13.415   9.853  0.00  0.00    +0.000 A 
ATOM     15  C   UNL     1      11.051  15.287   9.814  0.00  0.00    +0.000 A 
ATOM     16  C   UNL     1      10.056  14.554  10.457  0.00  0.00    +0.000 A 
ENDBRANCH  10  11
ENDBRANCH   1  10
TORSDOF 2
ENDMDL
MODEL 8
REMARK VINA RESULT:    -4.867     31.375     32.589
REMARK INTER + INTRA:          -5.614
REMARK INTER:                  -5.484
REMARK INTRA:                  -0.130
REMARK UNBOUND:                -0.178
REMARK  Name = 1550473
REMARK  2 active torsions:
REMARK  status: ('A' for Active; 'I' for Inactive)
REMARK    1  A    between atoms: N_1  and  C_4
REMARK    2  A    between atoms: C_4  and  C_5
REMARK                            x       y       z     vdW  Elec       q    Type
REMARK                         _______ _______ _______ _____ _____    ______ ____
ROOT
ATOM      1  N   UNL     1       8.877  15.841  27.978  0.00  0.00    -0.354 N 
ATOM      2  N   UNL     1      10.527  17.443  27.701  0.00  0.00    -0.372 N 
ATOM      3  N   UNL     1       8.743  17.426  26.257  0.00  0.00    -0.372 N 
ATOM      4  C   UNL     1       9.370  16.893  27.311  0.00  0.00    +0.166 C 
ATOM      5  H   UNL     1       9.416  15.465  28.750  0.00  0.00    +0.163 HD
ATOM      6  H   UNL     1      10.921  18.239  27.219  0.00  0.00    +0.159 HD
ATOM      7  H   UNL     1      11.040  17.094  28.501  0.00  0.00    +0.159 HD
ATOM      8  H   UNL     1       7.870  17.054  25.909  0.00  0.00    +0.159 HD
ATOM      9  H   UNL     1       9.128  18.216  25.755  0.00  0.00    +0.159 HD
ENDROOT
BRANCH   1  10
ATOM     10  C   UNL     1       7.599  15.202  27.668  0.00  0.00    +0.151 C 
BRANCH  10  11
ATOM     11  C   UNL     1       7.033  14.601  28.925  0.00  0.00    -0.028 A 
ATOM     12  C   UNL     1       6.048  13.605  28.857  0.00  0.00    +0.005 A 
ATOM     13  C   UNL     1       7.483  15.018  30.187  0.00  0.00    +0.005 A 
ATOM     14  C   UNL     1       5.543  13.025  30.024  0.00  0.00    +0.000 A 
ATOM     15  C   UNL     1       6.976  14.437  31.350  0.00  0.00    +0.000 A 
ATOM     16  C   UNL     1       6.008  13.439  31.267  0.00  0.00    +0.000 A 
ENDBRANCH  10  11
ENDBRANCH   1  10
TORSDOF 2
ENDMDL
MODEL 9
REMARK VINA RESULT:    -4.844      8.170      9.655
REMARK INTER + INTRA:          -5.588
REMARK INTER:                  -5.458
REMARK INTRA:                  -0.130
REMARK UNBOUND:                -0.178
REMARK  Name = 1550473
REMARK  2 active torsions:
REMARK  status: ('A' for Active; 'I' for Inactive)
REMARK    1  A    between atoms: N_1  and  C_4
REMARK    2  A    between atoms: C_4  and  C_5
REMARK                            x       y       z     vdW  Elec       q    Type
REMARK                         _______ _______ _______ _____ _____    ______ ____
ROOT
ATOM      1  N   UNL     1     -12.676   0.972  -4.593  0.00  0.00    -0.354 N 
ATOM      2  N   UNL     1     -13.607  -0.630  -5.982  0.00  0.00    -0.372 N 
ATOM      3  N   UNL     1     -11.376  -0.771  -5.467  0.00  0.00    -0.372 N 
ATOM      4  C   UNL     1     -12.544  -0.133  -5.339  0.00  0.00    +0.166 C 
ATOM      5  H   UNL     1     -13.582   1.425  -4.561  0.00  0.00    +0.163 HD
ATOM      6  H   UNL     1     -13.539  -1.465  -6.549  0.00  0.00    +0.159 HD
ATOM      7  H   UNL     1     -14.522  -0.201  -5.911  0.00  0.00    +0.159 HD
ATOM      8  H   UNL     1     -10.534  -0.444  -5.012  0.00  0.00    +0.159 HD
ATOM      9  H   UNL     1     -11.285  -1.601  -6.040  0.00  0.00    +0.159 HD
ENDROOT
BRANCH   1  10
ATOM     10  C   UNL     1     -11.593   1.563  -3.809  0.00  0.00    +0.151 C 
BRANCH  10  11
ATOM     11  C   UNL     1     -12.181   2.299  -2.637  0.00  0.00    -0.028 A 
ATOM     12  C   UNL     1     -11.357   3.034  -1.772  0.00  0.00    +0.005 A 
ATOM     13  C   UNL     1     -13.562   2.271  -2.389  0.00  0.00    +0.005 A 
ATOM     14  C   UNL     1     -11.906   3.743  -0.700  0.00  0.00    +0.000 A 
ATOM     15  C   UNL     1     -14.106   2.979  -1.318  0.00  0.00    +0.000 A 
ATOM     16  C   UNL     1     -13.278   3.717  -0.475  0.00  0.00    +0.000 A 
ENDBRANCH  10  11
ENDBRANCH   1  10
TORSDOF 2
ENDMDL
