MODEL 1
REMARK VINA RESULT:    -4.914      0.000      0.000
REMARK INTER + INTRA:          -5.618
REMARK INTER:                  -5.488
REMARK INTRA:                  -0.130
REMARK UNBOUND:                -0.130
REMARK  Name = 1550473
REMARK  2 active torsions:
REMARK  status: ('A' for Active; 'I' for Inactive)
REMARK    1  A    between atoms: N_1  and  C_4
REMARK    2  A    between atoms: C_4  and  C_5
REMARK                            x       y       z     vdW  Elec       q    Type
REMARK                         _______ _______ _______ _____ _____    ______ ____
ROOT
ATOM      1  N   UNL     1       0.306 -18.238  -3.011  0.00  0.00    -0.354 N 
ATOM      2  N   UNL     1      -0.240 -19.268  -1.010  0.00  0.00    -0.372 N 
ATOM      3  N   UNL     1       1.957 -19.218  -1.668  0.00  0.00    -0.372 N 
ATOM      4  C   UNL     1       0.681 -18.902  -1.910  0.00  0.00    +0.166 C 
ATOM      5  H   UNL     1      -0.682 -18.055  -3.150  0.00  0.00    +0.163 HD
ATOM      6  H   UNL     1       0.013 -19.768  -0.168  0.00  0.00    +0.159 HD
ATOM      7  H   UNL     1      -1.220 -19.044  -1.129  0.00  0.00    +0.159 HD
ATOM      8  H   UNL     1       2.700 -18.975  -2.311  0.00  0.00    +0.159 HD
ATOM      9  H   UNL     1       2.229 -19.727  -0.837  0.00  0.00    +0.159 HD
ENDROOT
BRANCH   1  10
ATOM     10  C   UNL     1       1.236 -17.746  -4.026  0.00  0.00    +0.151 C 
BRANCH  10  11
ATOM     11  C   UNL     1       0.530 -17.691  -5.353  0.00  0.00    -0.028 A 
ATOM     12  C   UNL     1       1.056 -16.929  -6.407  0.00  0.00    +0.005 A 
ATOM     13  C   UNL     1      -0.660 -18.403  -5.564  0.00  0.00    +0.005 A 
ATOM     14  C   UNL     1       0.417 -16.902  -7.649  0.00  0.00    +0.000 A 
ATOM     15  C   UNL     1      -1.296 -18.372  -6.806  0.00  0.00    +0.000 A 
ATOM     16  C   UNL     1      -0.755 -17.623  -7.849  0.00  0.00    +0.000 A 
ENDBRANCH  10  11
ENDBRANCH   1  10
TORSDOF 2
ENDMDL
MODEL 2
REMARK VINA RESULT:    -4.897      1.411      1.985
REMARK INTER + INTRA:          -5.599
REMARK INTER:                  -5.490
REMARK INTRA:                  -0.109
REMARK UNBOUND:                -0.130
REMARK  Name = 1550473
REMARK  2 active torsions:
REMARK  status: ('A' for Active; 'I' for Inactive)
REMARK    1  A    between atoms: N_1  and  C_4
REMARK    2  A    between atoms: C_4  and  C_5
REMARK                            x       y       z     vdW  Elec       q    Type
REMARK                         _______ _______ _______ _____ _____    ______ ____
ROOT
ATOM      1  N   UNL     1       2.462 -18.011  -4.055  0.00  0.00    -0.354 N 
ATOM      2  N   UNL     1       4.545 -18.715  -3.328  0.00  0.00    -0.372 N 
ATOM      3  N   UNL     1       2.737 -18.982  -1.940  0.00  0.00    -0.372 N 
ATOM      4  C   UNL     1       3.233 -18.565  -3.110  0.00  0.00    +0.166 C 
ATOM      5  H   UNL     1       2.904 -17.688  -4.908  0.00  0.00    +0.163 HD
ATOM      6  H   UNL     1       5.151 -19.133  -2.634  0.00  0.00    +0.159 HD
ATOM      7  H   UNL     1       4.976 -18.433  -4.199  0.00  0.00    +0.159 HD
ATOM      8  H   UNL     1       1.756 -18.893  -1.712  0.00  0.00    +0.159 HD
ATOM      9  H   UNL     1       3.330 -19.392  -1.229  0.00  0.00    +0.159 HD
ENDROOT
BRANCH   1  10
ATOM     10  C   UNL     1       1.013 -17.852  -3.939  0.00  0.00    +0.151 C 
BRANCH  10  11
ATOM     11  C   UNL     1       0.418 -17.758  -5.317  0.00  0.00    -0.028 A 
ATOM     12  C   UNL     1       1.006 -16.939  -6.292  0.00  0.00    +0.005 A 
ATOM     13  C   UNL     1      -0.731 -18.489  -5.655  0.00  0.00    +0.005 A 
ATOM     14  C   UNL     1       0.470 -16.874  -7.581  0.00  0.00    +0.000 A 
ATOM     15  C   UNL     1      -1.263 -18.421  -6.943  0.00  0.00    +0.000 A 
ATOM     16  C   UNL     1      -0.661 -17.616  -7.906  0.00  0.00    +0.000 A 
ENDBRANCH  10  11
ENDBRANCH   1  10
TORSDOF 2
ENDMDL
MODEL 3
REMARK VINA RESULT:    -4.827      1.096      2.088
REMARK INTER + INTRA:          -5.521
REMARK INTER:                  -5.403
REMARK INTRA:                  -0.118
REMARK UNBOUND:                -0.130
REMARK  Name = 1550473
REMARK  2 active torsions:
REMARK  status: ('A' for Active; 'I' for Inactive)
REMARK    1  A    between atoms: N_1  and  C_4
REMARK    2  A    between atoms: C_4  and  C_5
REMARK                            x       y       z     vdW  Elec       q    Type
REMARK                         _______ _______ _______ _____ _____    ______ ____
ROOT
ATOM      1  N   UNL     1       1.832 -18.424  -3.472  0.00  0.00    -0.354 N 
ATOM      2  N   UNL     1       3.719 -18.777  -2.177  0.00  0.00    -0.372 N 
ATOM      3  N   UNL     1       1.681 -19.469  -1.380  0.00  0.00    -0.372 N 
ATOM      4  C   UNL     1       2.396 -18.888  -2.350  0.00  0.00    +0.166 C 
ATOM      5  H   UNL     1       2.425 -17.967  -4.156  0.00  0.00    +0.163 HD
ATOM      6  H   UNL     1       4.173 -19.122  -1.342  0.00  0.00    +0.159 HD
ATOM      7  H   UNL     1       4.315 -18.362  -2.882  0.00  0.00    +0.159 HD
ATOM      8  H   UNL     1       0.678 -19.578  -1.447  0.00  0.00    +0.159 HD
ATOM      9  H   UNL     1       2.116 -19.809  -0.532  0.00  0.00    +0.159 HD
ENDROOT
BRANCH   1  10
ATOM     10  C   UNL     1       0.408 -18.544  -3.782  0.00  0.00    +0.151 C 
BRANCH  10  11
ATOM     11  C   UNL     1       0.175 -18.096  -5.199  0.00  0.00    -0.028 A 
ATOM     12  C   UNL     1      -0.950 -18.539  -5.909  0.00  0.00    +0.005 A 
ATOM     13  C   UNL     1       1.071 -17.223  -5.834  0.00  0.00    +0.005 A 
ATOM     14  C   UNL     1      -1.184 -18.100  -7.215  0.00  0.00    +0.000 A 
ATOM     15  C   UNL     1       0.835 -16.787  -7.138  0.00  0.00    +0.000 A 
ATOM     16  C   UNL     1      -0.294 -17.224  -7.827  0.00  0.00    +0.000 A 
ENDBRANCH  10  11
ENDBRANCH   1  10
TORSDOF 2
ENDMDL
MODEL 4
REMARK VINA RESULT:    -4.780     13.525     14.392
REMARK INTER + INTRA:          -5.468
REMARK INTER:                  -5.334
REMARK INTRA:                  -0.134
REMARK UNBOUND:                -0.130
REMARK  Name = 1550473
REMARK  2 active torsions:
REMARK  status: ('A' for Active; 'I' for Inactive)
REMARK    1  A    between atoms: N_1  and  C_4
REMARK    2  A    between atoms: C_4  and  C_5
REMARK                            x       y       z     vdW  Elec       q    Type
REMARK                         _______ _______ _______ _____ _____    ______ ____
ROOT
ATOM      1  N   UNL     1      -9.181 -13.592 -12.641  0.00  0.00    -0.354 N 
ATOM      2  N   UNL     1      -9.306 -11.515 -11.624  0.00  0.00    -0.372 N 
ATOM      3  N   UNL     1      -8.190 -11.707 -13.619  0.00  0.00    -0.372 N 
ATOM      4  C   UNL     1      -8.889 -12.284 -12.637  0.00  0.00    +0.166 C 
ATOM      5  H   UNL     1      -9.689 -13.975 -11.852  0.00  0.00    +0.163 HD
ATOM      6  H   UNL     1      -9.104 -10.525 -11.595  0.00  0.00    +0.159 HD
ATOM      7  H   UNL     1      -9.853 -11.891 -10.859  0.00  0.00    +0.159 HD
ATOM      8  H   UNL     1      -7.842 -12.234 -14.409  0.00  0.00    +0.159 HD
ATOM      9  H   UNL     1      -7.968 -10.720 -13.602  0.00  0.00    +0.159 HD
ENDROOT
BRANCH   1  10
ATOM     10  C   UNL     1      -8.821 -14.506 -13.723  0.00  0.00    +0.151 C 
BRANCH  10  11
ATOM     11  C   UNL     1      -9.900 -15.543 -13.870  0.00  0.00    -0.028 A 
ATOM     12  C   UNL     1     -11.073 -15.463 -13.105  0.00  0.00    +0.005 A 
ATOM     13  C   UNL     1      -9.759 -16.605 -14.776  0.00  0.00    +0.005 A 
ATOM     14  C   UNL     1     -12.089 -16.408 -13.263  0.00  0.00    +0.000 A 
ATOM     15  C   UNL     1     -10.775 -17.548 -14.930  0.00  0.00    +0.000 A 
ATOM     16  C   UNL     1     -11.941 -17.448 -14.175  0.00  0.00    +0.000 A 
ENDBRANCH  10  11
ENDBRANCH   1  10
TORSDOF 2
ENDMDL
MODEL 5
REMARK VINA RESULT:    -4.704     33.824     34.265
REMARK INTER + INTRA:          -5.384
REMARK INTER:                  -5.237
REMARK INTRA:                  -0.147
REMARK UNBOUND:                -0.130
REMARK  Name = 1550473
REMARK  2 active torsions:
REMARK  status: ('A' for Active; 'I' for Inactive)
REMARK    1  A    between atoms: N_1  and  C_4
REMARK    2  A    between atoms: C_4  and  C_5
REMARK                            x       y       z     vdW  Elec       q    Type
REMARK                         _______ _______ _______ _____ _____    ______ ____
ROOT
ATOM      1  N   UNL     1     -17.285  11.219  -0.019  0.00  0.00    -0.354 N 
ATOM      2  N   UNL     1     -18.936  12.809  -0.353  0.00  0.00    -0.372 N 
ATOM      3  N   UNL     1     -16.792  13.279  -1.021  0.00  0.00    -0.372 N 
ATOM      4  C   UNL     1     -17.658  12.427  -0.463  0.00  0.00    +0.166 C 
ATOM      5  H   UNL     1     -17.984  10.632   0.422  0.00  0.00    +0.163 HD
ATOM      6  H   UNL     1     -19.247  13.713  -0.682  0.00  0.00    +0.159 HD
ATOM      7  H   UNL     1     -19.641  12.202   0.046  0.00  0.00    +0.159 HD
ATOM      8  H   UNL     1     -15.812  13.053  -1.128  0.00  0.00    +0.159 HD
ATOM      9  H   UNL     1     -17.082  14.193  -1.346  0.00  0.00    +0.159 HD
ENDROOT
BRANCH   1  10
ATOM     10  C   UNL     1     -15.930  10.686  -0.140  0.00  0.00    +0.151 C 
BRANCH  10  11
ATOM     11  C   UNL     1     -15.365  10.463   1.236  0.00  0.00    -0.028 A 
ATOM     12  C   UNL     1     -14.026  10.775   1.515  0.00  0.00    +0.005 A 
ATOM     13  C   UNL     1     -16.165   9.945   2.266  0.00  0.00    +0.005 A 
ATOM     14  C   UNL     1     -13.509  10.596   2.800  0.00  0.00    +0.000 A 
ATOM     15  C   UNL     1     -15.644   9.767   3.548  0.00  0.00    +0.000 A 
ATOM     16  C   UNL     1     -14.317  10.095   3.815  0.00  0.00    +0.000 A 
ENDBRANCH  10  11
ENDBRANCH   1  10
TORSDOF 2
ENDMDL
MODEL 6
REMARK VINA RESULT:    -4.624     22.556     23.371
REMARK INTER + INTRA:          -5.294
REMARK INTER:                  -5.165
REMARK INTRA:                  -0.130
REMARK UNBOUND:                -0.130
REMARK  Name = 1550473
REMARK  2 active torsions:
REMARK  status: ('A' for Active; 'I' for Inactive)
REMARK    1  A    between atoms: N_1  and  C_4
REMARK    2  A    between atoms: C_4  and  C_5
REMARK                            x       y       z     vdW  Elec       q    Type
REMARK                         _______ _______ _______ _____ _____    ______ ____
ROOT
ATOM      1  N   UNL     1      14.393   0.311  -8.034  0.00  0.00    -0.354 N 
ATOM      2  N   UNL     1      14.659  -0.671  -5.953  0.00  0.00    -0.372 N 
ATOM      3  N   UNL     1      14.661  -2.007  -7.819  0.00  0.00    -0.372 N 
ATOM      4  C   UNL     1      14.569  -0.785  -7.284  0.00  0.00    +0.166 C 
ATOM      5  H   UNL     1      14.302   1.205  -7.565  0.00  0.00    +0.163 HD
ATOM      6  H   UNL     1      14.796  -1.480  -5.362  0.00  0.00    +0.159 HD
ATOM      7  H   UNL     1      14.613   0.229  -5.491  0.00  0.00    +0.159 HD
ATOM      8  H   UNL     1      14.595  -2.162  -8.816  0.00  0.00    +0.159 HD
ATOM      9  H   UNL     1      14.786  -2.830  -7.242  0.00  0.00    +0.159 HD
ENDROOT
BRANCH   1  10
ATOM     10  C   UNL     1      14.337   0.302  -9.494  0.00  0.00    +0.151 C 
BRANCH  10  11
ATOM     11  C   UNL     1      13.155   1.116  -9.945  0.00  0.00    -0.028 A 
ATOM     12  C   UNL     1      12.409   0.727 -11.067  0.00  0.00    +0.005 A 
ATOM     13  C   UNL     1      12.774   2.274  -9.251  0.00  0.00    +0.005 A 
ATOM     14  C   UNL     1      11.293   1.466 -11.468  0.00  0.00    +0.000 A 
ATOM     15  C   UNL     1      11.660   3.010  -9.655  0.00  0.00    +0.000 A 
ATOM     16  C   UNL     1      10.918   2.604 -10.762  0.00  0.00    +0.000 A 
ENDBRANCH  10  11
ENDBRANCH   1  10
TORSDOF 2
ENDMDL
MODEL 7
REMARK VINA RESULT:    -4.375     25.383     26.443
REMARK INTER + INTRA:          -5.016
REMARK INTER:                  -4.893
REMARK INTRA:                  -0.123
REMARK UNBOUND:                -0.130
REMARK  Name = 1550473
REMARK  2 active torsions:
REMARK  status: ('A' for Active; 'I' for Inactive)
REMARK    1  A    between atoms: N_1  and  C_4
REMARK    2  A    between atoms: C_4  and  C_5
REMARK                            x       y       z     vdW  Elec       q    Type
REMARK                         _______ _______ _______ _____ _____    ______ ____
ROOT
ATOM      1  N   UNL     1      14.984   4.099  -7.286  0.00  0.00    -0.354 N 
ATOM      2  N   UNL     1      15.833   3.803  -5.152  0.00  0.00    -0.372 N 
ATOM      3  N   UNL     1      16.487   5.641  -6.360  0.00  0.00    -0.372 N 
ATOM      4  C   UNL     1      15.764   4.519  -6.281  0.00  0.00    +0.166 C 
ATOM      5  H   UNL     1      14.484   3.225  -7.175  0.00  0.00    +0.163 HD
ATOM      6  H   UNL     1      16.410   4.097  -4.375  0.00  0.00    +0.159 HD
ATOM      7  H   UNL     1      15.297   2.954  -5.026  0.00  0.00    +0.159 HD
ATOM      8  H   UNL     1      16.483   6.223  -7.187  0.00  0.00    +0.159 HD
ATOM      9  H   UNL     1      17.080   5.945  -5.598  0.00  0.00    +0.159 HD
ENDROOT
BRANCH   1  10
ATOM     10  C   UNL     1      14.797   4.833  -8.537  0.00  0.00    +0.151 C 
BRANCH  10  11
ATOM     11  C   UNL     1      13.598   4.279  -9.256  0.00  0.00    -0.028 A 
ATOM     12  C   UNL     1      13.017   3.070  -8.846  0.00  0.00    +0.005 A 
ATOM     13  C   UNL     1      13.036   4.961 -10.346  0.00  0.00    +0.005 A 
ATOM     14  C   UNL     1      11.886   2.570  -9.496  0.00  0.00    +0.000 A 
ATOM     15  C   UNL     1      11.907   4.458 -10.993  0.00  0.00    +0.000 A 
ATOM     16  C   UNL     1      11.331   3.264 -10.565  0.00  0.00    +0.000 A 
ENDBRANCH  10  11
ENDBRANCH   1  10
TORSDOF 2
ENDMDL
MODEL 8
REMARK VINA RESULT:    -4.303     39.969     40.440
REMARK INTER + INTRA:          -4.936
REMARK INTER:                  -4.847
REMARK INTRA:                  -0.089
REMARK UNBOUND:                -0.130
REMARK  Name = 1550473
REMARK  2 active torsions:
REMARK  status: ('A' for Active; 'I' for Inactive)
REMARK    1  A    between atoms: N_1  and  C_4
REMARK    2  A    between atoms: C_4  and  C_5
REMARK                            x       y       z     vdW  Elec       q    Type
REMARK                         _______ _______ _______ _____ _____    ______ ____
ROOT
ATOM      1  N   UNL     1      -4.782  20.812   7.207  0.00  0.00    -0.354 N 
ATOM      2  N   UNL     1      -7.098  20.815   7.216  0.00  0.00    -0.372 N 
ATOM      3  N   UNL     1      -5.994  19.169   6.059  0.00  0.00    -0.372 N 
ATOM      4  C   UNL     1      -5.942  20.263   6.825  0.00  0.00    +0.166 C 
ATOM      5  H   UNL     1      -4.810  21.659   7.763  0.00  0.00    +0.163 HD
ATOM      6  H   UNL     1      -7.989  20.421   6.946  0.00  0.00    +0.159 HD
ATOM      7  H   UNL     1      -7.123  21.635   7.809  0.00  0.00    +0.159 HD
ATOM      8  H   UNL     1      -5.158  18.708   5.726  0.00  0.00    +0.159 HD
ATOM      9  H   UNL     1      -6.877  18.766   5.769  0.00  0.00    +0.159 HD
ENDROOT
BRANCH   1  10
ATOM     10  C   UNL     1      -3.468  20.259   6.881  0.00  0.00    +0.151 C 
BRANCH  10  11
ATOM     11  C   UNL     1      -2.817  19.765   8.143  0.00  0.00    -0.028 A 
ATOM     12  C   UNL     1      -1.424  19.823   8.295  0.00  0.00    +0.005 A 
ATOM     13  C   UNL     1      -3.587  19.242   9.193  0.00  0.00    +0.005 A 
ATOM     14  C   UNL     1      -0.820  19.392   9.479  0.00  0.00    +0.000 A 
ATOM     15  C   UNL     1      -2.981  18.812  10.373  0.00  0.00    +0.000 A 
ATOM     16  C   UNL     1      -1.598  18.889  10.517  0.00  0.00    +0.000 A 
ENDBRANCH  10  11
ENDBRANCH   1  10
TORSDOF 2
ENDMDL
MODEL 9
REMARK VINA RESULT:    -4.163     25.527     26.669
REMARK INTER + INTRA:          -4.780
REMARK INTER:                  -4.639
REMARK INTRA:                  -0.141
REMARK UNBOUND:                -0.130
REMARK  Name = 1550473
REMARK  2 active torsions:
REMARK  status: ('A' for Active; 'I' for Inactive)
REMARK    1  A    between atoms: N_1  and  C_4
REMARK    2  A    between atoms: C_4  and  C_5
REMARK                            x       y       z     vdW  Elec       q    Type
REMARK                         _______ _______ _______ _____ _____    ______ ____
ROOT
ATOM      1  N   UNL     1      14.423   5.326  -9.806  0.00  0.00    -0.354 N 
ATOM      2  N   UNL     1      15.349   6.059  -7.814  0.00  0.00    -0.372 N 
ATOM      3  N   UNL     1      13.917   7.447  -8.949  0.00  0.00    -0.372 N 
ATOM      4  C   UNL     1      14.556   6.275  -8.870  0.00  0.00    +0.166 C 
ATOM      5  H   UNL     1      14.957   4.471  -9.704  0.00  0.00    +0.163 HD
ATOM      6  H   UNL     1      15.467   6.756  -7.091  0.00  0.00    +0.159 HD
ATOM      7  H   UNL     1      15.847   5.186  -7.691  0.00  0.00    +0.159 HD
ATOM      8  H   UNL     1      13.308   7.675  -9.723  0.00  0.00    +0.159 HD
ATOM      9  H   UNL     1      14.031   8.162  -8.240  0.00  0.00    +0.159 HD
ENDROOT
BRANCH   1  10
ATOM     10  C   UNL     1      13.541   5.440 -10.967  0.00  0.00    +0.151 C 
BRANCH  10  11
ATOM     11  C   UNL     1      12.672   4.216 -11.046  0.00  0.00    -0.028 A 
ATOM     12  C   UNL     1      12.499   3.542 -12.263  0.00  0.00    +0.005 A 
ATOM     13  C   UNL     1      12.021   3.721  -9.904  0.00  0.00    +0.005 A 
ATOM     14  C   UNL     1      11.715   2.387 -12.331  0.00  0.00    +0.000 A 
ATOM     15  C   UNL     1      11.239   2.569  -9.976  0.00  0.00    +0.000 A 
ATOM     16  C   UNL     1      11.088   1.901 -11.189  0.00  0.00    +0.000 A 
ENDBRANCH  10  11
ENDBRANCH   1  10
TORSDOF 2
ENDMDL
