MODEL 1
REMARK VINA RESULT:    -5.280      0.000      0.000
REMARK INTER + INTRA:          -6.079
REMARK INTER:                  -5.898
REMARK INTRA:                  -0.181
REMARK UNBOUND:                -0.181
REMARK  Name = 1550473
REMARK  2 active torsions:
REMARK  status: ('A' for Active; 'I' for Inactive)
REMARK    1  A    between atoms: N_1  and  C_4
REMARK    2  A    between atoms: C_4  and  C_5
REMARK                            x       y       z     vdW  Elec       q    Type
REMARK                         _______ _______ _______ _____ _____    ______ ____
ROOT
ATOM      1  N   UNL     1       7.718  11.034  -0.399  0.00  0.00    -0.354 N 
ATOM      2  N   UNL     1       8.527  10.722  -2.547  0.00  0.00    -0.372 N 
ATOM      3  N   UNL     1      10.020  11.059  -0.837  0.00  0.00    -0.372 N 
ATOM      4  C   UNL     1       8.752  10.941  -1.246  0.00  0.00    +0.166 C 
ATOM      5  H   UNL     1       6.780  10.965  -0.776  0.00  0.00    +0.163 HD
ATOM      6  H   UNL     1       9.287  10.643  -3.209  0.00  0.00    +0.159 HD
ATOM      7  H   UNL     1       7.590  10.608  -2.913  0.00  0.00    +0.159 HD
ATOM      8  H   UNL     1      10.257  11.231   0.130  0.00  0.00    +0.159 HD
ATOM      9  H   UNL     1      10.794  10.995  -1.487  0.00  0.00    +0.159 HD
ENDROOT
BRANCH   1  10
ATOM     10  C   UNL     1       7.857  11.217   1.045  0.00  0.00    +0.151 C 
BRANCH  10  11
ATOM     11  C   UNL     1       7.606  12.661   1.383  0.00  0.00    -0.028 A 
ATOM     12  C   UNL     1       8.630  13.455   1.921  0.00  0.00    +0.005 A 
ATOM     13  C   UNL     1       6.349  13.243   1.161  0.00  0.00    +0.005 A 
ATOM     14  C   UNL     1       8.406  14.804   2.207  0.00  0.00    +0.000 A 
ATOM     15  C   UNL     1       6.129  14.590   1.449  0.00  0.00    +0.000 A 
ATOM     16  C   UNL     1       7.158  15.370   1.969  0.00  0.00    +0.000 A 
ENDBRANCH  10  11
ENDBRANCH   1  10
TORSDOF 2
ENDMDL
MODEL 2
REMARK VINA RESULT:    -5.081     15.241     16.592
REMARK INTER + INTRA:          -5.856
REMARK INTER:                  -5.799
REMARK INTRA:                  -0.056
REMARK UNBOUND:                -0.181
REMARK  Name = 1550473
REMARK  2 active torsions:
REMARK  status: ('A' for Active; 'I' for Inactive)
REMARK    1  A    between atoms: N_1  and  C_4
REMARK    2  A    between atoms: C_4  and  C_5
REMARK                            x       y       z     vdW  Elec       q    Type
REMARK                         _______ _______ _______ _____ _____    ______ ____
ROOT
ATOM      1  N   UNL     1      -7.353  13.508   4.863  0.00  0.00    -0.354 N 
ATOM      2  N   UNL     1      -8.355  15.580   5.117  0.00  0.00    -0.372 N 
ATOM      3  N   UNL     1      -6.883  15.265   3.385  0.00  0.00    -0.372 N 
ATOM      4  C   UNL     1      -7.522  14.771   4.451  0.00  0.00    +0.166 C 
ATOM      5  H   UNL     1      -7.843  13.203   5.696  0.00  0.00    +0.163 HD
ATOM      6  H   UNL     1      -8.505  16.537   4.828  0.00  0.00    +0.159 HD
ATOM      7  H   UNL     1      -8.879  15.260   5.922  0.00  0.00    +0.159 HD
ATOM      8  H   UNL     1      -6.236  14.708   2.843  0.00  0.00    +0.159 HD
ATOM      9  H   UNL     1      -7.011  16.224   3.087  0.00  0.00    +0.159 HD
ENDROOT
BRANCH   1  10
ATOM     10  C   UNL     1      -6.510  12.530   4.176  0.00  0.00    +0.151 C 
BRANCH  10  11
ATOM     11  C   UNL     1      -7.382  11.620   3.356  0.00  0.00    -0.028 A 
ATOM     12  C   UNL     1      -6.816  10.582   2.601  0.00  0.00    +0.005 A 
ATOM     13  C   UNL     1      -8.775  11.786   3.335  0.00  0.00    +0.005 A 
ATOM     14  C   UNL     1      -7.629   9.717   1.863  0.00  0.00    +0.000 A 
ATOM     15  C   UNL     1      -9.583  10.921   2.596  0.00  0.00    +0.000 A 
ATOM     16  C   UNL     1      -9.009   9.886   1.862  0.00  0.00    +0.000 A 
ENDBRANCH  10  11
ENDBRANCH   1  10
TORSDOF 2
ENDMDL
MODEL 3
REMARK VINA RESULT:    -5.072     17.085     18.575
REMARK INTER + INTRA:          -5.846
REMARK INTER:                  -5.720
REMARK INTRA:                  -0.126
REMARK UNBOUND:                -0.181
REMARK  Name = 1550473
REMARK  2 active torsions:
REMARK  status: ('A' for Active; 'I' for Inactive)
REMARK    1  A    between atoms: N_1  and  C_4
REMARK    2  A    between atoms: C_4  and  C_5
REMARK                            x       y       z     vdW  Elec       q    Type
REMARK                         _______ _______ _______ _____ _____    ______ ____
ROOT
ATOM      1  N   UNL     1     -11.323  12.205   3.782  0.00  0.00    -0.354 N 
ATOM      2  N   UNL     1     -13.539  11.874   4.367  0.00  0.00    -0.372 N 
ATOM      3  N   UNL     1     -12.235  13.227   5.684  0.00  0.00    -0.372 N 
ATOM      4  C   UNL     1     -12.351  12.439   4.610  0.00  0.00    +0.166 C 
ATOM      5  H   UNL     1     -11.467  11.574   3.002  0.00  0.00    +0.163 HD
ATOM      6  H   UNL     1     -14.334  12.035   4.972  0.00  0.00    +0.159 HD
ATOM      7  H   UNL     1     -13.693  11.280   3.561  0.00  0.00    +0.159 HD
ATOM      8  H   UNL     1     -11.363  13.678   5.926  0.00  0.00    +0.159 HD
ATOM      9  H   UNL     1     -13.016  13.391   6.308  0.00  0.00    +0.159 HD
ENDROOT
BRANCH   1  10
ATOM     10  C   UNL     1     -10.002  12.814   3.927  0.00  0.00    +0.151 C 
BRANCH  10  11
ATOM     11  C   UNL     1      -8.963  11.863   3.402  0.00  0.00    -0.028 A 
ATOM     12  C   UNL     1      -9.323  10.825   2.529  0.00  0.00    +0.005 A 
ATOM     13  C   UNL     1      -7.615  11.997   3.769  0.00  0.00    +0.005 A 
ATOM     14  C   UNL     1      -8.353   9.960   2.018  0.00  0.00    +0.000 A 
ATOM     15  C   UNL     1      -6.649  11.130   3.257  0.00  0.00    +0.000 A 
ATOM     16  C   UNL     1      -7.018  10.113   2.379  0.00  0.00    +0.000 A 
ENDBRANCH  10  11
ENDBRANCH   1  10
TORSDOF 2
ENDMDL
MODEL 4
REMARK VINA RESULT:    -5.062     27.164     28.251
REMARK INTER + INTRA:          -5.835
REMARK INTER:                  -5.744
REMARK INTRA:                  -0.091
REMARK UNBOUND:                -0.181
REMARK  Name = 1550473
REMARK  2 active torsions:
REMARK  status: ('A' for Active; 'I' for Inactive)
REMARK    1  A    between atoms: N_1  and  C_4
REMARK    2  A    between atoms: C_4  and  C_5
REMARK                            x       y       z     vdW  Elec       q    Type
REMARK                         _______ _______ _______ _____ _____    ______ ____
ROOT
ATOM      1  N   UNL     1      10.244 -14.673  -1.134  0.00  0.00    -0.354 N 
ATOM      2  N   UNL     1      12.083 -15.854  -0.368  0.00  0.00    -0.372 N 
ATOM      3  N   UNL     1      11.772 -15.630  -2.631  0.00  0.00    -0.372 N 
ATOM      4  C   UNL     1      11.355 -15.378  -1.385  0.00  0.00    +0.166 C 
ATOM      5  H   UNL     1       9.965 -14.542  -0.168  0.00  0.00    +0.163 HD
ATOM      6  H   UNL     1      12.928 -16.386  -0.527  0.00  0.00    +0.159 HD
ATOM      7  H   UNL     1      11.827 -15.682   0.597  0.00  0.00    +0.159 HD
ATOM      8  H   UNL     1      11.263 -15.305  -3.442  0.00  0.00    +0.159 HD
ATOM      9  H   UNL     1      12.608 -16.172  -2.810  0.00  0.00    +0.159 HD
ENDROOT
BRANCH   1  10
ATOM     10  C   UNL     1       9.409 -14.066  -2.169  0.00  0.00    +0.151 C 
BRANCH  10  11
ATOM     11  C   UNL     1       8.082 -14.772  -2.207  0.00  0.00    -0.028 A 
ATOM     12  C   UNL     1       7.918 -16.014  -1.575  0.00  0.00    +0.005 A 
ATOM     13  C   UNL     1       6.983 -14.203  -2.868  0.00  0.00    +0.005 A 
ATOM     14  C   UNL     1       6.678 -16.656  -1.584  0.00  0.00    +0.000 A 
ATOM     15  C   UNL     1       5.746 -14.848  -2.876  0.00  0.00    +0.000 A 
ATOM     16  C   UNL     1       5.593 -16.074  -2.232  0.00  0.00    +0.000 A 
ENDBRANCH  10  11
ENDBRANCH   1  10
TORSDOF 2
ENDMDL
MODEL 5
REMARK VINA RESULT:    -4.836     15.160     16.431
REMARK INTER + INTRA:          -5.582
REMARK INTER:                  -5.435
REMARK INTRA:                  -0.147
REMARK UNBOUND:                -0.181
REMARK  Name = 1550473
REMARK  2 active torsions:
REMARK  status: ('A' for Active; 'I' for Inactive)
REMARK    1  A    between atoms: N_1  and  C_4
REMARK    2  A    between atoms: C_4  and  C_5
REMARK                            x       y       z     vdW  Elec       q    Type
REMARK                         _______ _______ _______ _____ _____    ______ ____
ROOT
ATOM      1  N   UNL     1      -8.477  14.724   2.733  0.00  0.00    -0.354 N 
ATOM      2  N   UNL     1      -8.048  16.407   1.201  0.00  0.00    -0.372 N 
ATOM      3  N   UNL     1      -6.621  16.133   2.976  0.00  0.00    -0.372 N 
ATOM      4  C   UNL     1      -7.716  15.744   2.315  0.00  0.00    +0.166 C 
ATOM      5  H   UNL     1      -9.312  14.497   2.204  0.00  0.00    +0.163 HD
ATOM      6  H   UNL     1      -7.492  17.178   0.859  0.00  0.00    +0.159 HD
ATOM      7  H   UNL     1      -8.857  16.149   0.649  0.00  0.00    +0.159 HD
ATOM      8  H   UNL     1      -6.320  15.678   3.828  0.00  0.00    +0.159 HD
ATOM      9  H   UNL     1      -6.057  16.911   2.657  0.00  0.00    +0.159 HD
ENDROOT
BRANCH   1  10
ATOM     10  C   UNL     1      -8.174  13.903   3.904  0.00  0.00    +0.151 C 
BRANCH  10  11
ATOM     11  C   UNL     1      -7.917  12.489   3.460  0.00  0.00    -0.028 A 
ATOM     12  C   UNL     1      -8.968  11.689   2.989  0.00  0.00    +0.005 A 
ATOM     13  C   UNL     1      -6.624  11.946   3.502  0.00  0.00    +0.005 A 
ATOM     14  C   UNL     1      -8.725  10.386   2.548  0.00  0.00    +0.000 A 
ATOM     15  C   UNL     1      -6.386  10.644   3.062  0.00  0.00    +0.000 A 
ATOM     16  C   UNL     1      -7.436   9.865   2.583  0.00  0.00    +0.000 A 
ENDBRANCH  10  11
ENDBRANCH   1  10
TORSDOF 2
ENDMDL
MODEL 6
REMARK VINA RESULT:    -4.777     30.170     31.199
REMARK INTER + INTRA:          -5.516
REMARK INTER:                  -5.381
REMARK INTRA:                  -0.136
REMARK UNBOUND:                -0.181
REMARK  Name = 1550473
REMARK  2 active torsions:
REMARK  status: ('A' for Active; 'I' for Inactive)
REMARK    1  A    between atoms: N_1  and  C_4
REMARK    2  A    between atoms: C_4  and  C_5
REMARK                            x       y       z     vdW  Elec       q    Type
REMARK                         _______ _______ _______ _____ _____    ______ ____
ROOT
ATOM      1  N   UNL     1     -11.449  -0.871  21.805  0.00  0.00    -0.354 N 
ATOM      2  N   UNL     1     -12.395   1.203  21.399  0.00  0.00    -0.372 N 
ATOM      3  N   UNL     1     -10.424   1.093  22.568  0.00  0.00    -0.372 N 
ATOM      4  C   UNL     1     -11.414   0.462  21.928  0.00  0.00    +0.166 C 
ATOM      5  H   UNL     1     -12.243  -1.291  21.335  0.00  0.00    +0.163 HD
ATOM      6  H   UNL     1     -12.394   2.212  21.473  0.00  0.00    +0.159 HD
ATOM      7  H   UNL     1     -13.164   0.784  20.890  0.00  0.00    +0.159 HD
ATOM      8  H   UNL     1      -9.656   0.591  22.994  0.00  0.00    +0.159 HD
ATOM      9  H   UNL     1     -10.411   2.101  22.662  0.00  0.00    +0.159 HD
ENDROOT
BRANCH   1  10
ATOM     10  C   UNL     1     -10.403  -1.765  22.298  0.00  0.00    +0.151 C 
BRANCH  10  11
ATOM     11  C   UNL     1      -9.842  -2.549  21.144  0.00  0.00    -0.028 A 
ATOM     12  C   UNL     1      -9.683  -3.939  21.237  0.00  0.00    +0.005 A 
ATOM     13  C   UNL     1      -9.472  -1.907  19.952  0.00  0.00    +0.005 A 
ATOM     14  C   UNL     1      -9.190  -4.671  20.154  0.00  0.00    +0.000 A 
ATOM     15  C   UNL     1      -8.979  -2.642  18.873  0.00  0.00    +0.000 A 
ATOM     16  C   UNL     1      -8.841  -4.024  18.974  0.00  0.00    +0.000 A 
ENDBRANCH  10  11
ENDBRANCH   1  10
TORSDOF 2
ENDMDL
MODEL 7
REMARK VINA RESULT:    -4.758     26.932     28.511
REMARK INTER + INTRA:          -5.495
REMARK INTER:                  -5.392
REMARK INTRA:                  -0.104
REMARK UNBOUND:                -0.181
REMARK  Name = 1550473
REMARK  2 active torsions:
REMARK  status: ('A' for Active; 'I' for Inactive)
REMARK    1  A    between atoms: N_1  and  C_4
REMARK    2  A    between atoms: C_4  and  C_5
REMARK                            x       y       z     vdW  Elec       q    Type
REMARK                         _______ _______ _______ _____ _____    ______ ____
ROOT
ATOM      1  N   UNL     1      10.791 -16.503  -2.685  0.00  0.00    -0.354 N 
ATOM      2  N   UNL     1      11.925 -18.387  -3.413  0.00  0.00    -0.372 N 
ATOM      3  N   UNL     1      12.532 -17.428  -1.419  0.00  0.00    -0.372 N 
ATOM      4  C   UNL     1      11.744 -17.427  -2.498  0.00  0.00    +0.166 C 
ATOM      5  H   UNL     1      10.247 -16.539  -3.539  0.00  0.00    +0.163 HD
ATOM      6  H   UNL     1      12.633 -19.100  -3.297  0.00  0.00    +0.159 HD
ATOM      7  H   UNL     1      11.349 -18.448  -4.243  0.00  0.00    +0.159 HD
ATOM      8  H   UNL     1      12.450 -16.727  -0.695  0.00  0.00    +0.159 HD
ATOM      9  H   UNL     1      13.255 -18.126  -1.291  0.00  0.00    +0.159 HD
ENDROOT
BRANCH   1  10
ATOM     10  C   UNL     1      10.477 -15.447  -1.725  0.00  0.00    +0.151 C 
BRANCH  10  11
ATOM     11  C   UNL     1       9.119 -14.884  -2.041  0.00  0.00    -0.028 A 
ATOM     12  C   UNL     1       7.972 -15.682  -1.925  0.00  0.00    +0.005 A 
ATOM     13  C   UNL     1       8.972 -13.550  -2.452  0.00  0.00    +0.005 A 
ATOM     14  C   UNL     1       6.707 -15.151  -2.190  0.00  0.00    +0.000 A 
ATOM     15  C   UNL     1       7.707 -13.023  -2.717  0.00  0.00    +0.000 A 
ATOM     16  C   UNL     1       6.575 -13.824  -2.583  0.00  0.00    +0.000 A 
ENDBRANCH  10  11
ENDBRANCH   1  10
TORSDOF 2
ENDMDL
MODEL 8
REMARK VINA RESULT:    -4.698     22.709     23.543
REMARK INTER + INTRA:          -5.429
REMARK INTER:                  -5.309
REMARK INTRA:                  -0.120
REMARK UNBOUND:                -0.181
REMARK  Name = 1550473
REMARK  2 active torsions:
REMARK  status: ('A' for Active; 'I' for Inactive)
REMARK    1  A    between atoms: N_1  and  C_4
REMARK    2  A    between atoms: C_4  and  C_5
REMARK                            x       y       z     vdW  Elec       q    Type
REMARK                         _______ _______ _______ _____ _____    ______ ____
ROOT
ATOM      1  N   UNL     1       0.713   4.532  22.664  0.00  0.00    -0.354 N 
ATOM      2  N   UNL     1       0.079   3.431  24.600  0.00  0.00    -0.372 N 
ATOM      3  N   UNL     1      -1.402   4.878  23.611  0.00  0.00    -0.372 N 
ATOM      4  C   UNL     1      -0.202   4.289  23.612  0.00  0.00    +0.166 C 
ATOM      5  H   UNL     1       1.616   4.077  22.738  0.00  0.00    +0.163 HD
ATOM      6  H   UNL     1      -0.593   3.226  25.328  0.00  0.00    +0.159 HD
ATOM      7  H   UNL     1       0.965   2.943  24.646  0.00  0.00    +0.159 HD
ATOM      8  H   UNL     1      -1.674   5.540  22.896  0.00  0.00    +0.159 HD
ATOM      9  H   UNL     1      -2.083   4.694  24.337  0.00  0.00    +0.159 HD
ENDROOT
BRANCH   1  10
ATOM     10  C   UNL     1       0.488   5.408  21.515  0.00  0.00    +0.151 C 
BRANCH  10  11
ATOM     11  C   UNL     1       1.307   4.916  20.354  0.00  0.00    -0.028 A 
ATOM     12  C   UNL     1       2.536   4.277  20.570  0.00  0.00    +0.005 A 
ATOM     13  C   UNL     1       0.856   5.081  19.035  0.00  0.00    +0.005 A 
ATOM     14  C   UNL     1       3.283   3.793  19.493  0.00  0.00    +0.000 A 
ATOM     15  C   UNL     1       1.605   4.598  17.963  0.00  0.00    +0.000 A 
ATOM     16  C   UNL     1       2.818   3.952  18.192  0.00  0.00    +0.000 A 
ENDBRANCH  10  11
ENDBRANCH   1  10
TORSDOF 2
ENDMDL
MODEL 9
REMARK VINA RESULT:    -4.662     26.756     28.141
REMARK INTER + INTRA:          -5.388
REMARK INTER:                  -5.256
REMARK INTRA:                  -0.132
REMARK UNBOUND:                -0.181
REMARK  Name = 1550473
REMARK  2 active torsions:
REMARK  status: ('A' for Active; 'I' for Inactive)
REMARK    1  A    between atoms: N_1  and  C_4
REMARK    2  A    between atoms: C_4  and  C_5
REMARK                            x       y       z     vdW  Elec       q    Type
REMARK                         _______ _______ _______ _____ _____    ______ ____
ROOT
ATOM      1  N   UNL     1       4.739 -15.717  -2.713  0.00  0.00    -0.354 N 
ATOM      2  N   UNL     1       3.403 -17.597  -2.921  0.00  0.00    -0.372 N 
ATOM      3  N   UNL     1       3.043 -16.170  -1.161  0.00  0.00    -0.372 N 
ATOM      4  C   UNL     1       3.736 -16.481  -2.261  0.00  0.00    +0.166 C 
ATOM      5  H   UNL     1       5.245 -16.024  -3.536  0.00  0.00    +0.163 HD
ATOM      6  H   UNL     1       2.648 -18.192  -2.606  0.00  0.00    +0.159 HD
ATOM      7  H   UNL     1       3.880 -17.877  -3.769  0.00  0.00    +0.159 HD
ATOM      8  H   UNL     1       3.249 -15.345  -0.614  0.00  0.00    +0.159 HD
ATOM      9  H   UNL     1       2.292 -16.759  -0.823  0.00  0.00    +0.159 HD
ENDROOT
BRANCH   1  10
ATOM     10  C   UNL     1       5.146 -14.455  -2.099  0.00  0.00    +0.151 C 
BRANCH  10  11
ATOM     11  C   UNL     1       6.645 -14.347  -2.145  0.00  0.00    -0.028 A 
ATOM     12  C   UNL     1       7.263 -13.120  -2.427  0.00  0.00    +0.005 A 
ATOM     13  C   UNL     1       7.454 -15.468  -1.901  0.00  0.00    +0.005 A 
ATOM     14  C   UNL     1       8.656 -13.013  -2.440  0.00  0.00    +0.000 A 
ATOM     15  C   UNL     1       8.845 -15.357  -1.916  0.00  0.00    +0.000 A 
ATOM     16  C   UNL     1       9.445 -14.129  -2.183  0.00  0.00    +0.000 A 
ENDBRANCH  10  11
ENDBRANCH   1  10
TORSDOF 2
ENDMDL
