MODEL 1
REMARK VINA RESULT:    -6.043      0.000      0.000
REMARK INTER + INTRA:          -6.901
REMARK INTER:                  -6.749
REMARK INTRA:                  -0.151
REMARK UNBOUND:                -0.151
REMARK  Name = 1550473
REMARK  2 active torsions:
REMARK  status: ('A' for Active; 'I' for Inactive)
REMARK    1  A    between atoms: N_1  and  C_4
REMARK    2  A    between atoms: C_4  and  C_5
REMARK                            x       y       z     vdW  Elec       q    Type
REMARK                         _______ _______ _______ _____ _____    ______ ____
ROOT
ATOM      1  N   UNL     1     -17.097  -2.661   0.449  0.00  0.00    -0.354 N 
ATOM      2  N   UNL     1     -16.640  -3.014  -1.794  0.00  0.00    -0.372 N 
ATOM      3  N   UNL     1     -18.573  -1.921  -1.215  0.00  0.00    -0.372 N 
ATOM      4  C   UNL     1     -17.442  -2.529  -0.839  0.00  0.00    +0.166 C 
ATOM      5  H   UNL     1     -16.242  -3.159   0.669  0.00  0.00    +0.163 HD
ATOM      6  H   UNL     1     -16.873  -2.926  -2.775  0.00  0.00    +0.159 HD
ATOM      7  H   UNL     1     -15.764  -3.471  -1.573  0.00  0.00    +0.159 HD
ATOM      8  H   UNL     1     -19.224  -1.538  -0.542  0.00  0.00    +0.159 HD
ATOM      9  H   UNL     1     -18.828  -1.833  -2.190  0.00  0.00    +0.159 HD
ENDROOT
BRANCH   1  10
ATOM     10  C   UNL     1     -17.874  -2.121   1.563  0.00  0.00    +0.151 C 
BRANCH  10  11
ATOM     11  C   UNL     1     -17.358  -0.749   1.902  0.00  0.00    -0.028 A 
ATOM     12  C   UNL     1     -18.245   0.278   2.255  0.00  0.00    +0.005 A 
ATOM     13  C   UNL     1     -15.982  -0.473   1.877  0.00  0.00    +0.005 A 
ATOM     14  C   UNL     1     -17.764   1.544   2.598  0.00  0.00    +0.000 A 
ATOM     15  C   UNL     1     -15.506   0.793   2.220  0.00  0.00    +0.000 A 
ATOM     16  C   UNL     1     -16.397   1.800   2.583  0.00  0.00    +0.000 A 
ENDBRANCH  10  11
ENDBRANCH   1  10
TORSDOF 2
ENDMDL
MODEL 2
REMARK VINA RESULT:    -5.337      2.984      3.800
REMARK INTER + INTRA:          -6.113
REMARK INTER:                  -5.989
REMARK INTRA:                  -0.124
REMARK UNBOUND:                -0.151
REMARK  Name = 1550473
REMARK  2 active torsions:
REMARK  status: ('A' for Active; 'I' for Inactive)
REMARK    1  A    between atoms: N_1  and  C_4
REMARK    2  A    between atoms: C_4  and  C_5
REMARK                            x       y       z     vdW  Elec       q    Type
REMARK                         _______ _______ _______ _____ _____    ______ ____
ROOT
ATOM      1  N   UNL     1     -20.018   2.060   0.159  0.00  0.00    -0.354 N 
ATOM      2  N   UNL     1     -20.897   3.257  -1.619  0.00  0.00    -0.372 N 
ATOM      3  N   UNL     1     -20.726   0.975  -1.794  0.00  0.00    -0.372 N 
ATOM      4  C   UNL     1     -20.541   2.087  -1.074  0.00  0.00    +0.166 C 
ATOM      5  H   UNL     1     -19.875   2.940   0.640  0.00  0.00    +0.163 HD
ATOM      6  H   UNL     1     -21.297   3.308  -2.546  0.00  0.00    +0.159 HD
ATOM      7  H   UNL     1     -20.796   4.131  -1.117  0.00  0.00    +0.159 HD
ATOM      8  H   UNL     1     -20.473   0.062  -1.443  0.00  0.00    +0.159 HD
ATOM      9  H   UNL     1     -21.115   1.008  -2.729  0.00  0.00    +0.159 HD
ENDROOT
BRANCH   1  10
ATOM     10  C   UNL     1     -19.648   0.834   0.863  0.00  0.00    +0.151 C 
BRANCH  10  11
ATOM     11  C   UNL     1     -18.229   0.954   1.346  0.00  0.00    -0.028 A 
ATOM     12  C   UNL     1     -17.901   1.848   2.376  0.00  0.00    +0.005 A 
ATOM     13  C   UNL     1     -17.209   0.172   0.783  0.00  0.00    +0.005 A 
ATOM     14  C   UNL     1     -16.589   1.939   2.846  0.00  0.00    +0.000 A 
ATOM     15  C   UNL     1     -15.900   0.266   1.255  0.00  0.00    +0.000 A 
ATOM     16  C   UNL     1     -15.590   1.148   2.288  0.00  0.00    +0.000 A 
ENDBRANCH  10  11
ENDBRANCH   1  10
TORSDOF 2
ENDMDL
MODEL 3
REMARK VINA RESULT:    -5.203     25.543     26.403
REMARK INTER + INTRA:          -5.963
REMARK INTER:                  -5.783
REMARK INTRA:                  -0.179
REMARK UNBOUND:                -0.151
REMARK  Name = 1550473
REMARK  2 active torsions:
REMARK  status: ('A' for Active; 'I' for Inactive)
REMARK    1  A    between atoms: N_1  and  C_4
REMARK    2  A    between atoms: C_4  and  C_5
REMARK                            x       y       z     vdW  Elec       q    Type
REMARK                         _______ _______ _______ _____ _____    ______ ____
ROOT
ATOM      1  N   UNL     1      -6.048  12.127 -18.625  0.00  0.00    -0.354 N 
ATOM      2  N   UNL     1      -5.844  10.080 -19.690  0.00  0.00    -0.372 N 
ATOM      3  N   UNL     1      -4.679  11.879 -20.511  0.00  0.00    -0.372 N 
ATOM      4  C   UNL     1      -5.524  11.377 -19.604  0.00  0.00    +0.166 C 
ATOM      5  H   UNL     1      -6.706  11.694 -17.987  0.00  0.00    +0.163 HD
ATOM      6  H   UNL     1      -5.461   9.489 -20.416  0.00  0.00    +0.159 HD
ATOM      7  H   UNL     1      -6.466   9.639 -19.023  0.00  0.00    +0.159 HD
ATOM      8  H   UNL     1      -4.402  12.851 -20.504  0.00  0.00    +0.159 HD
ATOM      9  H   UNL     1      -4.295  11.305 -21.251  0.00  0.00    +0.159 HD
ENDROOT
BRANCH   1  10
ATOM     10  C   UNL     1      -5.722  13.536 -18.410  0.00  0.00    +0.151 C 
BRANCH  10  11
ATOM     11  C   UNL     1      -4.780  13.649 -17.244  0.00  0.00    -0.028 A 
ATOM     12  C   UNL     1      -3.394  13.716 -17.452  0.00  0.00    +0.005 A 
ATOM     13  C   UNL     1      -5.266  13.697 -15.929  0.00  0.00    +0.005 A 
ATOM     14  C   UNL     1      -2.520  13.852 -16.371  0.00  0.00    +0.000 A 
ATOM     15  C   UNL     1      -4.390  13.832 -14.852  0.00  0.00    +0.000 A 
ATOM     16  C   UNL     1      -3.017  13.912 -15.074  0.00  0.00    +0.000 A 
ENDBRANCH  10  11
ENDBRANCH   1  10
TORSDOF 2
ENDMDL
MODEL 4
REMARK VINA RESULT:    -5.161     27.647     28.626
REMARK INTER + INTRA:          -5.916
REMARK INTER:                  -5.778
REMARK INTRA:                  -0.138
REMARK UNBOUND:                -0.151
REMARK  Name = 1550473
REMARK  2 active torsions:
REMARK  status: ('A' for Active; 'I' for Inactive)
REMARK    1  A    between atoms: N_1  and  C_4
REMARK    2  A    between atoms: C_4  and  C_5
REMARK                            x       y       z     vdW  Elec       q    Type
REMARK                         _______ _______ _______ _____ _____    ______ ____
ROOT
ATOM      1  N   UNL     1      -0.157  15.207 -17.785  0.00  0.00    -0.354 N 
ATOM      2  N   UNL     1       2.001  15.992 -17.484  0.00  0.00    -0.372 N 
ATOM      3  N   UNL     1       1.675  14.094 -18.732  0.00  0.00    -0.372 N 
ATOM      4  C   UNL     1       1.160  15.090 -18.004  0.00  0.00    +0.166 C 
ATOM      5  H   UNL     1      -0.482  15.968 -17.199  0.00  0.00    +0.163 HD
ATOM      6  H   UNL     1       2.999  15.931 -17.635  0.00  0.00    +0.159 HD
ATOM      7  H   UNL     1       1.670  16.777 -16.937  0.00  0.00    +0.159 HD
ATOM      8  H   UNL     1       1.094  13.378 -19.147  0.00  0.00    +0.159 HD
ATOM      9  H   UNL     1       2.672  14.010 -18.884  0.00  0.00    +0.159 HD
ENDROOT
BRANCH   1  10
ATOM     10  C   UNL     1      -1.163  14.310 -18.351  0.00  0.00    +0.151 C 
BRANCH  10  11
ATOM     11  C   UNL     1      -2.163  13.958 -17.284  0.00  0.00    -0.028 A 
ATOM     12  C   UNL     1      -3.106  12.943 -17.499  0.00  0.00    +0.005 A 
ATOM     13  C   UNL     1      -2.169  14.633 -16.054  0.00  0.00    +0.005 A 
ATOM     14  C   UNL     1      -4.016  12.596 -16.498  0.00  0.00    +0.000 A 
ATOM     15  C   UNL     1      -3.079  14.284 -15.056  0.00  0.00    +0.000 A 
ATOM     16  C   UNL     1      -4.001  13.264 -15.278  0.00  0.00    +0.000 A 
ENDBRANCH  10  11
ENDBRANCH   1  10
TORSDOF 2
ENDMDL
MODEL 5
REMARK VINA RESULT:    -5.115     24.789     26.648
REMARK INTER + INTRA:          -5.865
REMARK INTER:                  -5.697
REMARK INTRA:                  -0.168
REMARK UNBOUND:                -0.151
REMARK  Name = 1550473
REMARK  2 active torsions:
REMARK  status: ('A' for Active; 'I' for Inactive)
REMARK    1  A    between atoms: N_1  and  C_4
REMARK    2  A    between atoms: C_4  and  C_5
REMARK                            x       y       z     vdW  Elec       q    Type
REMARK                         _______ _______ _______ _____ _____    ______ ____
ROOT
ATOM      1  N   UNL     1     -11.055   5.131 -23.315  0.00  0.00    -0.354 N 
ATOM      2  N   UNL     1     -12.557   5.315 -21.562  0.00  0.00    -0.372 N 
ATOM      3  N   UNL     1     -10.352   4.888 -21.093  0.00  0.00    -0.372 N 
ATOM      4  C   UNL     1     -11.309   5.110 -22.000  0.00  0.00    +0.166 C 
ATOM      5  H   UNL     1     -11.830   5.275 -23.953  0.00  0.00    +0.163 HD
ATOM      6  H   UNL     1     -12.778   5.308 -20.576  0.00  0.00    +0.159 HD
ATOM      7  H   UNL     1     -13.321   5.504 -22.199  0.00  0.00    +0.159 HD
ATOM      8  H   UNL     1      -9.391   4.720 -21.359  0.00  0.00    +0.159 HD
ATOM      9  H   UNL     1     -10.556   4.866 -20.102  0.00  0.00    +0.159 HD
ENDROOT
BRANCH   1  10
ATOM     10  C   UNL     1      -9.722   4.972 -23.893  0.00  0.00    +0.151 C 
BRANCH  10  11
ATOM     11  C   UNL     1      -9.609   3.601 -24.499  0.00  0.00    -0.028 A 
ATOM     12  C   UNL     1      -9.791   3.414 -25.877  0.00  0.00    +0.005 A 
ATOM     13  C   UNL     1      -9.315   2.484 -23.701  0.00  0.00    +0.005 A 
ATOM     14  C   UNL     1      -9.657   2.144 -26.445  0.00  0.00    +0.000 A 
ATOM     15  C   UNL     1      -9.183   1.218 -24.272  0.00  0.00    +0.000 A 
ATOM     16  C   UNL     1      -9.352   1.049 -25.644  0.00  0.00    +0.000 A 
ENDBRANCH  10  11
ENDBRANCH   1  10
TORSDOF 2
ENDMDL
MODEL 6
REMARK VINA RESULT:    -5.073     23.041     24.025
REMARK INTER + INTRA:          -5.818
REMARK INTER:                  -5.706
REMARK INTRA:                  -0.112
REMARK UNBOUND:                -0.151
REMARK  Name = 1550473
REMARK  2 active torsions:
REMARK  status: ('A' for Active; 'I' for Inactive)
REMARK    1  A    between atoms: N_1  and  C_4
REMARK    2  A    between atoms: C_4  and  C_5
REMARK                            x       y       z     vdW  Elec       q    Type
REMARK                         _______ _______ _______ _____ _____    ______ ____
ROOT
ATOM      1  N   UNL     1       3.922  -4.968  -8.345  0.00  0.00    -0.354 N 
ATOM      2  N   UNL     1       2.055  -6.338  -8.368  0.00  0.00    -0.372 N 
ATOM      3  N   UNL     1       4.127  -7.283  -8.650  0.00  0.00    -0.372 N 
ATOM      4  C   UNL     1       3.382  -6.189  -8.455  0.00  0.00    +0.166 C 
ATOM      5  H   UNL     1       3.300  -4.176  -8.229  0.00  0.00    +0.163 HD
ATOM      6  H   UNL     1       1.619  -7.248  -8.444  0.00  0.00    +0.159 HD
ATOM      7  H   UNL     1       1.439  -5.550  -8.206  0.00  0.00    +0.159 HD
ATOM      8  H   UNL     1       5.134  -7.237  -8.730  0.00  0.00    +0.159 HD
ATOM      9  H   UNL     1       3.708  -8.200  -8.740  0.00  0.00    +0.159 HD
ENDROOT
BRANCH   1  10
ATOM     10  C   UNL     1       5.359  -4.704  -8.372  0.00  0.00    +0.151 C 
BRANCH  10  11
ATOM     11  C   UNL     1       5.626  -3.370  -7.731  0.00  0.00    -0.028 A 
ATOM     12  C   UNL     1       4.762  -2.288  -7.955  0.00  0.00    +0.005 A 
ATOM     13  C   UNL     1       6.737  -3.182  -6.896  0.00  0.00    +0.005 A 
ATOM     14  C   UNL     1       4.992  -1.056  -7.337  0.00  0.00    +0.000 A 
ATOM     15  C   UNL     1       6.964  -1.951  -6.281  0.00  0.00    +0.000 A 
ATOM     16  C   UNL     1       6.090  -0.889  -6.500  0.00  0.00    +0.000 A 
ENDBRANCH  10  11
ENDBRANCH   1  10
TORSDOF 2
ENDMDL
MODEL 7
REMARK VINA RESULT:    -4.881     30.436     31.208
REMARK INTER + INTRA:          -5.603
REMARK INTER:                  -5.489
REMARK INTRA:                  -0.114
REMARK UNBOUND:                -0.151
REMARK  Name = 1550473
REMARK  2 active torsions:
REMARK  status: ('A' for Active; 'I' for Inactive)
REMARK    1  A    between atoms: N_1  and  C_4
REMARK    2  A    between atoms: C_4  and  C_5
REMARK                            x       y       z     vdW  Elec       q    Type
REMARK                         _______ _______ _______ _____ _____    ______ ____
ROOT
ATOM      1  N   UNL     1      10.114  -5.903 -14.319  0.00  0.00    -0.354 N 
ATOM      2  N   UNL     1      11.891  -7.385 -14.412  0.00  0.00    -0.372 N 
ATOM      3  N   UNL     1      11.674  -6.026 -12.576  0.00  0.00    -0.372 N 
ATOM      4  C   UNL     1      11.215  -6.427 -13.766  0.00  0.00    +0.166 C 
ATOM      5  H   UNL     1       9.835  -6.229 -15.238  0.00  0.00    +0.163 HD
ATOM      6  H   UNL     1      12.724  -7.802 -14.017  0.00  0.00    +0.159 HD
ATOM      7  H   UNL     1      11.584  -7.741 -15.309  0.00  0.00    +0.159 HD
ATOM      8  H   UNL     1      11.214  -5.303 -12.040  0.00  0.00    +0.159 HD
ATOM      9  H   UNL     1      12.513  -6.423 -12.170  0.00  0.00    +0.159 HD
ENDROOT
BRANCH   1  10
ATOM     10  C   UNL     1       9.276  -4.893 -13.675  0.00  0.00    +0.151 C 
BRANCH  10  11
ATOM     11  C   UNL     1       8.532  -4.124 -14.732  0.00  0.00    -0.028 A 
ATOM     12  C   UNL     1       8.046  -4.774 -15.875  0.00  0.00    +0.005 A 
ATOM     13  C   UNL     1       8.306  -2.746 -14.593  0.00  0.00    +0.005 A 
ATOM     14  C   UNL     1       7.329  -4.066 -16.843  0.00  0.00    +0.000 A 
ATOM     15  C   UNL     1       7.591  -2.043 -15.562  0.00  0.00    +0.000 A 
ATOM     16  C   UNL     1       7.100  -2.704 -16.685  0.00  0.00    +0.000 A 
ENDBRANCH  10  11
ENDBRANCH   1  10
TORSDOF 2
ENDMDL
MODEL 8
REMARK VINA RESULT:    -4.757     29.539     30.314
REMARK INTER + INTRA:          -5.465
REMARK INTER:                  -5.365
REMARK INTRA:                  -0.100
REMARK UNBOUND:                -0.151
REMARK  Name = 1550473
REMARK  2 active torsions:
REMARK  status: ('A' for Active; 'I' for Inactive)
REMARK    1  A    between atoms: N_1  and  C_4
REMARK    2  A    between atoms: C_4  and  C_5
REMARK                            x       y       z     vdW  Elec       q    Type
REMARK                         _______ _______ _______ _____ _____    ______ ____
ROOT
ATOM      1  N   UNL     1       8.568  -5.484 -13.448  0.00  0.00    -0.354 N 
ATOM      2  N   UNL     1       8.459  -6.387 -11.318  0.00  0.00    -0.372 N 
ATOM      3  N   UNL     1      10.518  -6.014 -12.260  0.00  0.00    -0.372 N 
ATOM      4  C   UNL     1       9.185  -5.956 -12.356  0.00  0.00    +0.166 C 
ATOM      5  H   UNL     1       7.555  -5.495 -13.471  0.00  0.00    +0.163 HD
ATOM      6  H   UNL     1       8.897  -6.745 -10.479  0.00  0.00    +0.159 HD
ATOM      7  H   UNL     1       7.447  -6.354 -11.325  0.00  0.00    +0.159 HD
ATOM      8  H   UNL     1      11.123  -5.709 -13.011  0.00  0.00    +0.159 HD
ATOM      9  H   UNL     1      10.974  -6.380 -11.434  0.00  0.00    +0.159 HD
ENDROOT
BRANCH   1  10
ATOM     10  C   UNL     1       9.267  -4.941 -14.611  0.00  0.00    +0.151 C 
BRANCH  10  11
ATOM     11  C   UNL     1       8.336  -4.029 -15.362  0.00  0.00    -0.028 A 
ATOM     12  C   UNL     1       8.095  -2.725 -14.905  0.00  0.00    +0.005 A 
ATOM     13  C   UNL     1       7.696  -4.462 -16.534  0.00  0.00    +0.005 A 
ATOM     14  C   UNL     1       7.253  -1.868 -15.618  0.00  0.00    +0.000 A 
ATOM     15  C   UNL     1       6.856  -3.603 -17.242  0.00  0.00    +0.000 A 
ATOM     16  C   UNL     1       6.637  -2.305 -16.786  0.00  0.00    +0.000 A 
ENDBRANCH  10  11
ENDBRANCH   1  10
TORSDOF 2
ENDMDL
MODEL 9
REMARK VINA RESULT:    -4.700     24.501     25.765
REMARK INTER + INTRA:          -5.401
REMARK INTER:                  -5.231
REMARK INTRA:                  -0.170
REMARK UNBOUND:                -0.151
REMARK  Name = 1550473
REMARK  2 active torsions:
REMARK  status: ('A' for Active; 'I' for Inactive)
REMARK    1  A    between atoms: N_1  and  C_4
REMARK    2  A    between atoms: C_4  and  C_5
REMARK                            x       y       z     vdW  Elec       q    Type
REMARK                         _______ _______ _______ _____ _____    ______ ____
ROOT
ATOM      1  N   UNL     1       6.438  -0.322  -5.354  0.00  0.00    -0.354 N 
ATOM      2  N   UNL     1       7.123   1.876  -5.607  0.00  0.00    -0.372 N 
ATOM      3  N   UNL     1       8.532   0.387  -4.576  0.00  0.00    -0.372 N 
ATOM      4  C   UNL     1       7.362   0.631  -5.176  0.00  0.00    +0.166 C 
ATOM      5  H   UNL     1       5.559  -0.066  -5.789  0.00  0.00    +0.163 HD
ATOM      6  H   UNL     1       7.802   2.615  -5.490  0.00  0.00    +0.159 HD
ATOM      7  H   UNL     1       6.262   2.119  -6.083  0.00  0.00    +0.159 HD
ATOM      8  H   UNL     1       8.771  -0.530  -4.223  0.00  0.00    +0.159 HD
ATOM      9  H   UNL     1       9.220   1.117  -4.439  0.00  0.00    +0.159 HD
ENDROOT
BRANCH   1  10
ATOM     10  C   UNL     1       6.622  -1.721  -4.970  0.00  0.00    +0.151 C 
BRANCH  10  11
ATOM     11  C   UNL     1       6.745  -2.559  -6.212  0.00  0.00    -0.028 A 
ATOM     12  C   UNL     1       8.006  -2.843  -6.758  0.00  0.00    +0.005 A 
ATOM     13  C   UNL     1       5.605  -3.078  -6.846  0.00  0.00    +0.005 A 
ATOM     14  C   UNL     1       8.122  -3.647  -7.894  0.00  0.00    +0.000 A 
ATOM     15  C   UNL     1       5.726  -3.879  -7.981  0.00  0.00    +0.000 A 
ATOM     16  C   UNL     1       6.985  -4.166  -8.503  0.00  0.00    +0.000 A 
ENDBRANCH  10  11
ENDBRANCH   1  10
TORSDOF 2
ENDMDL
