MODEL 1
REMARK VINA RESULT:    -5.485      0.000      0.000
REMARK INTER + INTRA:          -6.268
REMARK INTER:                  -6.126
REMARK INTRA:                  -0.142
REMARK UNBOUND:                -0.142
REMARK  Name = 1550473
REMARK  2 active torsions:
REMARK  status: ('A' for Active; 'I' for Inactive)
REMARK    1  A    between atoms: N_1  and  C_4
REMARK    2  A    between atoms: C_4  and  C_5
REMARK                            x       y       z     vdW  Elec       q    Type
REMARK                         _______ _______ _______ _____ _____    ______ ____
ROOT
ATOM      1  N   UNL     1      -5.910  -0.098   6.058  0.00  0.00    -0.354 N 
ATOM      2  N   UNL     1      -4.062  -0.881   4.902  0.00  0.00    -0.372 N 
ATOM      3  N   UNL     1      -6.025  -2.064   4.788  0.00  0.00    -0.372 N 
ATOM      4  C   UNL     1      -5.346  -1.011   5.256  0.00  0.00    +0.166 C 
ATOM      5  H   UNL     1      -5.334   0.661   6.403  0.00  0.00    +0.163 HD
ATOM      6  H   UNL     1      -3.610  -1.552   4.296  0.00  0.00    +0.159 HD
ATOM      7  H   UNL     1      -3.501  -0.097   5.212  0.00  0.00    +0.159 HD
ATOM      8  H   UNL     1      -6.995  -2.223   5.022  0.00  0.00    +0.159 HD
ATOM      9  H   UNL     1      -5.587  -2.753   4.189  0.00  0.00    +0.159 HD
ENDROOT
BRANCH   1  10
ATOM     10  C   UNL     1      -7.316  -0.118   6.459  0.00  0.00    +0.151 C 
BRANCH  10  11
ATOM     11  C   UNL     1      -7.397  -0.173   7.960  0.00  0.00    -0.028 A 
ATOM     12  C   UNL     1      -8.234   0.708   8.659  0.00  0.00    +0.005 A 
ATOM     13  C   UNL     1      -6.644  -1.107   8.687  0.00  0.00    +0.005 A 
ATOM     14  C   UNL     1      -8.333   0.638  10.051  0.00  0.00    +0.000 A 
ATOM     15  C   UNL     1      -6.745  -1.174  10.077  0.00  0.00    +0.000 A 
ATOM     16  C   UNL     1      -7.592  -0.302  10.758  0.00  0.00    +0.000 A 
ENDBRANCH  10  11
ENDBRANCH   1  10
TORSDOF 2
ENDMDL
MODEL 2
REMARK VINA RESULT:    -5.056      1.499      2.387
REMARK INTER + INTRA:          -5.790
REMARK INTER:                  -5.671
REMARK INTRA:                  -0.118
REMARK UNBOUND:                -0.142
REMARK  Name = 1550473
REMARK  2 active torsions:
REMARK  status: ('A' for Active; 'I' for Inactive)
REMARK    1  A    between atoms: N_1  and  C_4
REMARK    2  A    between atoms: C_4  and  C_5
REMARK                            x       y       z     vdW  Elec       q    Type
REMARK                         _______ _______ _______ _____ _____    ______ ____
ROOT
ATOM      1  N   UNL     1      -7.120   0.129   7.628  0.00  0.00    -0.354 N 
ATOM      2  N   UNL     1      -7.004   0.657   5.376  0.00  0.00    -0.372 N 
ATOM      3  N   UNL     1      -5.905  -1.208   6.135  0.00  0.00    -0.372 N 
ATOM      4  C   UNL     1      -6.675  -0.146   6.394  0.00  0.00    +0.166 C 
ATOM      5  H   UNL     1      -7.675   0.966   7.764  0.00  0.00    +0.163 HD
ATOM      6  H   UNL     1      -6.686   0.473   4.434  0.00  0.00    +0.159 HD
ATOM      7  H   UNL     1      -7.597   1.468   5.506  0.00  0.00    +0.159 HD
ATOM      8  H   UNL     1      -5.616  -1.850   6.861  0.00  0.00    +0.159 HD
ATOM      9  H   UNL     1      -5.567  -1.403   5.201  0.00  0.00    +0.159 HD
ENDROOT
BRANCH   1  10
ATOM     10  C   UNL     1      -6.863  -0.711   8.796  0.00  0.00    +0.151 C 
BRANCH  10  11
ATOM     11  C   UNL     1      -7.237   0.048  10.039  0.00  0.00    -0.028 A 
ATOM     12  C   UNL     1      -7.030   1.433  10.117  0.00  0.00    +0.005 A 
ATOM     13  C   UNL     1      -7.804  -0.611  11.141  0.00  0.00    +0.005 A 
ATOM     14  C   UNL     1      -7.404   2.144  11.260  0.00  0.00    +0.000 A 
ATOM     15  C   UNL     1      -8.176   0.102  12.280  0.00  0.00    +0.000 A 
ATOM     16  C   UNL     1      -7.978   1.480  12.338  0.00  0.00    +0.000 A 
ENDBRANCH  10  11
ENDBRANCH   1  10
TORSDOF 2
ENDMDL
MODEL 3
REMARK VINA RESULT:    -4.979     19.533     19.978
REMARK INTER + INTRA:          -5.703
REMARK INTER:                  -5.567
REMARK INTRA:                  -0.136
REMARK UNBOUND:                -0.142
REMARK  Name = 1550473
REMARK  2 active torsions:
REMARK  status: ('A' for Active; 'I' for Inactive)
REMARK    1  A    between atoms: N_1  and  C_4
REMARK    2  A    between atoms: C_4  and  C_5
REMARK                            x       y       z     vdW  Elec       q    Type
REMARK                         _______ _______ _______ _____ _____    ______ ____
ROOT
ATOM      1  N   UNL     1      -1.741  18.209  13.333  0.00  0.00    -0.354 N 
ATOM      2  N   UNL     1       0.039  16.776  12.957  0.00  0.00    -0.372 N 
ATOM      3  N   UNL     1      -0.867  17.910  11.180  0.00  0.00    -0.372 N 
ATOM      4  C   UNL     1      -0.869  17.642  12.490  0.00  0.00    +0.166 C 
ATOM      5  H   UNL     1      -1.710  17.941  14.310  0.00  0.00    +0.163 HD
ATOM      6  H   UNL     1       0.712  16.334  12.345  0.00  0.00    +0.159 HD
ATOM      7  H   UNL     1       0.098  16.545  13.941  0.00  0.00    +0.159 HD
ATOM      8  H   UNL     1      -1.530  18.550  10.763  0.00  0.00    +0.159 HD
ATOM      9  H   UNL     1      -0.209  17.469  10.549  0.00  0.00    +0.159 HD
ENDROOT
BRANCH   1  10
ATOM     10  C   UNL     1      -2.734  19.205  12.935  0.00  0.00    +0.151 C 
BRANCH  10  11
ATOM     11  C   UNL     1      -4.082  18.792  13.459  0.00  0.00    -0.028 A 
ATOM     12  C   UNL     1      -4.187  18.043  14.641  0.00  0.00    +0.005 A 
ATOM     13  C   UNL     1      -5.258  19.152  12.783  0.00  0.00    +0.005 A 
ATOM     14  C   UNL     1      -5.440  17.685  15.144  0.00  0.00    +0.000 A 
ATOM     15  C   UNL     1      -6.506  18.792  13.289  0.00  0.00    +0.000 A 
ATOM     16  C   UNL     1      -6.597  18.060  14.471  0.00  0.00    +0.000 A 
ENDBRANCH  10  11
ENDBRANCH   1  10
TORSDOF 2
ENDMDL
MODEL 4
REMARK VINA RESULT:    -4.955     17.632     18.757
REMARK INTER + INTRA:          -5.677
REMARK INTER:                  -5.526
REMARK INTRA:                  -0.151
REMARK UNBOUND:                -0.142
REMARK  Name = 1550473
REMARK  2 active torsions:
REMARK  status: ('A' for Active; 'I' for Inactive)
REMARK    1  A    between atoms: N_1  and  C_4
REMARK    2  A    between atoms: C_4  and  C_5
REMARK                            x       y       z     vdW  Elec       q    Type
REMARK                         _______ _______ _______ _____ _____    ______ ____
ROOT
ATOM      1  N   UNL     1      -8.286   9.311  -8.737  0.00  0.00    -0.354 N 
ATOM      2  N   UNL     1      -7.451  10.694  -7.077  0.00  0.00    -0.372 N 
ATOM      3  N   UNL     1      -9.639  10.934  -7.724  0.00  0.00    -0.372 N 
ATOM      4  C   UNL     1      -8.467  10.305  -7.857  0.00  0.00    +0.166 C 
ATOM      5  H   UNL     1      -7.365   8.895  -8.811  0.00  0.00    +0.163 HD
ATOM      6  H   UNL     1      -7.558  11.439  -6.402  0.00  0.00    +0.159 HD
ATOM      7  H   UNL     1      -6.544  10.245  -7.121  0.00  0.00    +0.159 HD
ATOM      8  H   UNL     1     -10.444  10.693  -8.286  0.00  0.00    +0.159 HD
ATOM      9  H   UNL     1      -9.763  11.690  -7.061  0.00  0.00    +0.159 HD
ENDROOT
BRANCH   1  10
ATOM     10  C   UNL     1      -9.342   8.776  -9.594  0.00  0.00    +0.151 C 
BRANCH  10  11
ATOM     11  C   UNL     1      -9.597   7.341  -9.224  0.00  0.00    -0.028 A 
ATOM     12  C   UNL     1     -10.797   6.714  -9.588  0.00  0.00    +0.005 A 
ATOM     13  C   UNL     1      -8.639   6.602  -8.513  0.00  0.00    +0.005 A 
ATOM     14  C   UNL     1     -11.022   5.372  -9.270  0.00  0.00    +0.000 A 
ATOM     15  C   UNL     1      -8.867   5.263  -8.197  0.00  0.00    +0.000 A 
ATOM     16  C   UNL     1     -10.058   4.648  -8.577  0.00  0.00    +0.000 A 
ENDBRANCH  10  11
ENDBRANCH   1  10
TORSDOF 2
ENDMDL
MODEL 5
REMARK VINA RESULT:    -4.953     22.422     23.541
REMARK INTER + INTRA:          -5.674
REMARK INTER:                  -5.544
REMARK INTRA:                  -0.130
REMARK UNBOUND:                -0.142
REMARK  Name = 1550473
REMARK  2 active torsions:
REMARK  status: ('A' for Active; 'I' for Inactive)
REMARK    1  A    between atoms: N_1  and  C_4
REMARK    2  A    between atoms: C_4  and  C_5
REMARK                            x       y       z     vdW  Elec       q    Type
REMARK                         _______ _______ _______ _____ _____    ______ ____
ROOT
ATOM      1  N   UNL     1       3.112  -1.339  30.221  0.00  0.00    -0.354 N 
ATOM      2  N   UNL     1       3.273  -3.569  30.827  0.00  0.00    -0.372 N 
ATOM      3  N   UNL     1       4.217  -2.886  28.850  0.00  0.00    -0.372 N 
ATOM      4  C   UNL     1       3.534  -2.584  29.960  0.00  0.00    +0.166 C 
ATOM      5  H   UNL     1       2.572  -1.181  31.064  0.00  0.00    +0.163 HD
ATOM      6  H   UNL     1       3.582  -4.517  30.659  0.00  0.00    +0.159 HD
ATOM      7  H   UNL     1       2.774  -3.399  31.692  0.00  0.00    +0.159 HD
ATOM      8  H   UNL     1       4.441  -2.189  28.153  0.00  0.00    +0.159 HD
ATOM      9  H   UNL     1       4.524  -3.831  28.658  0.00  0.00    +0.159 HD
ENDROOT
BRANCH   1  10
ATOM     10  C   UNL     1       3.390  -0.185  29.367  0.00  0.00    +0.151 C 
BRANCH  10  11
ATOM     11  C   UNL     1       2.089   0.453  28.965  0.00  0.00    -0.028 A 
ATOM     12  C   UNL     1       0.917  -0.312  28.881  0.00  0.00    +0.005 A 
ATOM     13  C   UNL     1       2.021   1.824  28.673  0.00  0.00    +0.005 A 
ATOM     14  C   UNL     1      -0.298   0.287  28.537  0.00  0.00    +0.000 A 
ATOM     15  C   UNL     1       0.807   2.418  28.329  0.00  0.00    +0.000 A 
ATOM     16  C   UNL     1      -0.353   1.650  28.263  0.00  0.00    +0.000 A 
ENDBRANCH  10  11
ENDBRANCH   1  10
TORSDOF 2
ENDMDL
MODEL 6
REMARK VINA RESULT:    -4.904     15.778     17.326
REMARK INTER + INTRA:          -5.620
REMARK INTER:                  -5.489
REMARK INTRA:                  -0.131
REMARK UNBOUND:                -0.142
REMARK  Name = 1550473
REMARK  2 active torsions:
REMARK  status: ('A' for Active; 'I' for Inactive)
REMARK    1  A    between atoms: N_1  and  C_4
REMARK    2  A    between atoms: C_4  and  C_5
REMARK                            x       y       z     vdW  Elec       q    Type
REMARK                         _______ _______ _______ _____ _____    ______ ____
ROOT
ATOM      1  N   UNL     1      -6.754   4.580  -7.739  0.00  0.00    -0.354 N 
ATOM      2  N   UNL     1      -4.494   4.320  -8.174  0.00  0.00    -0.372 N 
ATOM      3  N   UNL     1      -5.141   5.698  -6.457  0.00  0.00    -0.372 N 
ATOM      4  C   UNL     1      -5.478   4.870  -7.452  0.00  0.00    +0.166 C 
ATOM      5  H   UNL     1      -6.943   3.968  -8.524  0.00  0.00    +0.163 HD
ATOM      6  H   UNL     1      -3.521   4.517  -7.978  0.00  0.00    +0.159 HD
ATOM      7  H   UNL     1      -4.685   3.673  -8.929  0.00  0.00    +0.159 HD
ATOM      8  H   UNL     1      -5.837   6.150  -5.879  0.00  0.00    +0.159 HD
ATOM      9  H   UNL     1      -4.174   5.917  -6.254  0.00  0.00    +0.159 HD
ENDROOT
BRANCH   1  10
ATOM     10  C   UNL     1      -7.897   5.083  -6.979  0.00  0.00    +0.151 C 
BRANCH  10  11
ATOM     11  C   UNL     1      -8.906   5.659  -7.935  0.00  0.00    -0.028 A 
ATOM     12  C   UNL     1     -10.004   4.895  -8.356  0.00  0.00    +0.005 A 
ATOM     13  C   UNL     1      -8.773   6.970  -8.417  0.00  0.00    +0.005 A 
ATOM     14  C   UNL     1     -10.957   5.439  -9.220  0.00  0.00    +0.000 A 
ATOM     15  C   UNL     1      -9.726   7.509  -9.280  0.00  0.00    +0.000 A 
ATOM     16  C   UNL     1     -10.820   6.745  -9.679  0.00  0.00    +0.000 A 
ENDBRANCH  10  11
ENDBRANCH   1  10
TORSDOF 2
ENDMDL
MODEL 7
REMARK VINA RESULT:    -4.833     17.671     19.090
REMARK INTER + INTRA:          -5.541
REMARK INTER:                  -5.388
REMARK INTRA:                  -0.153
REMARK UNBOUND:                -0.142
REMARK  Name = 1550473
REMARK  2 active torsions:
REMARK  status: ('A' for Active; 'I' for Inactive)
REMARK    1  A    between atoms: N_1  and  C_4
REMARK    2  A    between atoms: C_4  and  C_5
REMARK                            x       y       z     vdW  Elec       q    Type
REMARK                         _______ _______ _______ _____ _____    ______ ____
ROOT
ATOM      1  N   UNL     1      -9.917   9.539  -9.461  0.00  0.00    -0.354 N 
ATOM      2  N   UNL     1     -11.340  11.220  -8.746  0.00  0.00    -0.372 N 
ATOM      3  N   UNL     1      -9.787  10.383  -7.279  0.00  0.00    -0.372 N 
ATOM      4  C   UNL     1     -10.337  10.369  -8.498  0.00  0.00    +0.166 C 
ATOM      5  H   UNL     1     -10.395   9.556 -10.354  0.00  0.00    +0.163 HD
ATOM      6  H   UNL     1     -11.677  11.861  -8.040  0.00  0.00    +0.159 HD
ATOM      7  H   UNL     1     -11.786  11.267  -9.654  0.00  0.00    +0.159 HD
ATOM      8  H   UNL     1      -9.030   9.762  -7.026  0.00  0.00    +0.159 HD
ATOM      9  H   UNL     1     -10.118  11.009  -6.555  0.00  0.00    +0.159 HD
ENDROOT
BRANCH   1  10
ATOM     10  C   UNL     1      -8.797   8.612  -9.310  0.00  0.00    +0.151 C 
BRANCH  10  11
ATOM     11  C   UNL     1      -9.334   7.223  -9.099  0.00  0.00    -0.028 A 
ATOM     12  C   UNL     1      -8.586   6.270  -8.393  0.00  0.00    +0.005 A 
ATOM     13  C   UNL     1     -10.593   6.856  -9.598  0.00  0.00    +0.005 A 
ATOM     14  C   UNL     1      -9.097   4.989  -8.171  0.00  0.00    +0.000 A 
ATOM     15  C   UNL     1     -11.100   5.576  -9.375  0.00  0.00    +0.000 A 
ATOM     16  C   UNL     1     -10.353   4.643  -8.659  0.00  0.00    +0.000 A 
ENDBRANCH  10  11
ENDBRANCH   1  10
TORSDOF 2
ENDMDL
MODEL 8
REMARK VINA RESULT:    -4.723      2.736      4.003
REMARK INTER + INTRA:          -5.418
REMARK INTER:                  -5.277
REMARK INTRA:                  -0.141
REMARK UNBOUND:                -0.142
REMARK  Name = 1550473
REMARK  2 active torsions:
REMARK  status: ('A' for Active; 'I' for Inactive)
REMARK    1  A    between atoms: N_1  and  C_4
REMARK    2  A    between atoms: C_4  and  C_5
REMARK                            x       y       z     vdW  Elec       q    Type
REMARK                         _______ _______ _______ _____ _____    ______ ____
ROOT
ATOM      1  N   UNL     1      -4.092  -0.228   3.191  0.00  0.00    -0.354 N 
ATOM      2  N   UNL     1      -1.938   0.569   2.891  0.00  0.00    -0.372 N 
ATOM      3  N   UNL     1      -2.358  -1.657   2.523  0.00  0.00    -0.372 N 
ATOM      4  C   UNL     1      -2.810  -0.447   2.870  0.00  0.00    +0.166 C 
ATOM      5  H   UNL     1      -4.365   0.706   3.474  0.00  0.00    +0.163 HD
ATOM      6  H   UNL     1      -0.965   0.435   2.650  0.00  0.00    +0.159 HD
ATOM      7  H   UNL     1      -2.223   1.511   3.130  0.00  0.00    +0.159 HD
ATOM      8  H   UNL     1      -2.964  -2.466   2.493  0.00  0.00    +0.159 HD
ATOM      9  H   UNL     1      -1.385  -1.813   2.290  0.00  0.00    +0.159 HD
ENDROOT
BRANCH   1  10
ATOM     10  C   UNL     1      -5.132  -1.255   3.147  0.00  0.00    +0.151 C 
BRANCH  10  11
ATOM     11  C   UNL     1      -5.951  -1.177   4.406  0.00  0.00    -0.028 A 
ATOM     12  C   UNL     1      -7.220  -1.773   4.467  0.00  0.00    +0.005 A 
ATOM     13  C   UNL     1      -5.463  -0.514   5.542  0.00  0.00    +0.005 A 
ATOM     14  C   UNL     1      -7.969  -1.727   5.646  0.00  0.00    +0.000 A 
ATOM     15  C   UNL     1      -6.214  -0.470   6.717  0.00  0.00    +0.000 A 
ATOM     16  C   UNL     1      -7.466  -1.079   6.769  0.00  0.00    +0.000 A 
ENDBRANCH  10  11
ENDBRANCH   1  10
TORSDOF 2
ENDMDL
MODEL 9
REMARK VINA RESULT:    -4.639     11.359     12.793
REMARK INTER + INTRA:          -5.324
REMARK INTER:                  -5.154
REMARK INTRA:                  -0.170
REMARK UNBOUND:                -0.142
REMARK  Name = 1550473
REMARK  2 active torsions:
REMARK  status: ('A' for Active; 'I' for Inactive)
REMARK    1  A    between atoms: N_1  and  C_4
REMARK    2  A    between atoms: C_4  and  C_5
REMARK                            x       y       z     vdW  Elec       q    Type
REMARK                         _______ _______ _______ _____ _____    ______ ____
ROOT
ATOM      1  N   UNL     1      -7.851 -12.701   4.101  0.00  0.00    -0.354 N 
ATOM      2  N   UNL     1      -5.904 -13.705   4.852  0.00  0.00    -0.372 N 
ATOM      3  N   UNL     1      -6.929 -14.537   2.975  0.00  0.00    -0.372 N 
ATOM      4  C   UNL     1      -6.908 -13.643   3.969  0.00  0.00    +0.166 C 
ATOM      5  H   UNL     1      -7.796 -12.072   4.894  0.00  0.00    +0.163 HD
ATOM      6  H   UNL     1      -5.176 -14.403   4.776  0.00  0.00    +0.159 HD
ATOM      7  H   UNL     1      -5.826 -13.046   5.617  0.00  0.00    +0.159 HD
ATOM      8  H   UNL     1      -7.662 -14.547   2.279  0.00  0.00    +0.159 HD
ATOM      9  H   UNL     1      -6.215 -15.250   2.888  0.00  0.00    +0.159 HD
ENDROOT
BRANCH   1  10
ATOM     10  C   UNL     1      -8.957 -12.513   3.163  0.00  0.00    +0.151 C 
BRANCH  10  11
ATOM     11  C   UNL     1      -8.748 -11.229   2.409  0.00  0.00    -0.028 A 
ATOM     12  C   UNL     1      -7.903 -11.190   1.290  0.00  0.00    +0.005 A 
ATOM     13  C   UNL     1      -9.397 -10.049   2.803  0.00  0.00    +0.005 A 
ATOM     14  C   UNL     1      -7.732 -10.005   0.571  0.00  0.00    +0.000 A 
ATOM     15  C   UNL     1      -9.224  -8.868   2.083  0.00  0.00    +0.000 A 
ATOM     16  C   UNL     1      -8.393  -8.846   0.966  0.00  0.00    +0.000 A 
ENDBRANCH  10  11
ENDBRANCH   1  10
TORSDOF 2
ENDMDL
