MODEL 1
REMARK VINA RESULT:    -6.544      0.000      0.000
REMARK INTER + INTRA:          -7.448
REMARK INTER:                  -7.309
REMARK INTRA:                  -0.138
REMARK UNBOUND:                -0.138
REMARK  Name = 1550473
REMARK  2 active torsions:
REMARK  status: ('A' for Active; 'I' for Inactive)
REMARK    1  A    between atoms: N_1  and  C_4
REMARK    2  A    between atoms: C_4  and  C_5
REMARK                            x       y       z     vdW  Elec       q    Type
REMARK                         _______ _______ _______ _____ _____    ______ ____
ROOT
ATOM      1  N   UNL     1      -5.314  14.403 -11.492  0.00  0.00    -0.354 N 
ATOM      2  N   UNL     1      -5.399  16.655 -12.026  0.00  0.00    -0.372 N 
ATOM      3  N   UNL     1      -6.047  15.986  -9.928  0.00  0.00    -0.372 N 
ATOM      4  C   UNL     1      -5.587  15.667 -11.143  0.00  0.00    +0.166 C 
ATOM      5  H   UNL     1      -4.997  14.223 -12.438  0.00  0.00    +0.163 HD
ATOM      6  H   UNL     1      -5.593  17.619 -11.789  0.00  0.00    +0.159 HD
ATOM      7  H   UNL     1      -5.039  16.477 -12.955  0.00  0.00    +0.159 HD
ATOM      8  H   UNL     1      -6.216  15.286  -9.218  0.00  0.00    +0.159 HD
ATOM      9  H   UNL     1      -6.258  16.944  -9.677  0.00  0.00    +0.159 HD
ENDROOT
BRANCH   1  10
ATOM     10  C   UNL     1      -5.433  13.260 -10.588  0.00  0.00    +0.151 C 
BRANCH  10  11
ATOM     11  C   UNL     1      -4.213  12.392 -10.730  0.00  0.00    -0.028 A 
ATOM     12  C   UNL     1      -3.005  12.933 -11.194  0.00  0.00    +0.005 A 
ATOM     13  C   UNL     1      -4.257  11.030 -10.396  0.00  0.00    +0.005 A 
ATOM     14  C   UNL     1      -1.864  12.134 -11.297  0.00  0.00    +0.000 A 
ATOM     15  C   UNL     1      -3.116  10.236 -10.501  0.00  0.00    +0.000 A 
ATOM     16  C   UNL     1      -1.919  10.788 -10.949  0.00  0.00    +0.000 A 
ENDBRANCH  10  11
ENDBRANCH   1  10
TORSDOF 2
ENDMDL
MODEL 2
REMARK VINA RESULT:    -6.378      2.126      3.077
REMARK INTER + INTRA:          -7.262
REMARK INTER:                  -7.133
REMARK INTRA:                  -0.129
REMARK UNBOUND:                -0.138
REMARK  Name = 1550473
REMARK  2 active torsions:
REMARK  status: ('A' for Active; 'I' for Inactive)
REMARK    1  A    between atoms: N_1  and  C_4
REMARK    2  A    between atoms: C_4  and  C_5
REMARK                            x       y       z     vdW  Elec       q    Type
REMARK                         _______ _______ _______ _____ _____    ______ ____
ROOT
ATOM      1  N   UNL     1      -6.433  11.870 -11.047  0.00  0.00    -0.354 N 
ATOM      2  N   UNL     1      -8.395  11.114 -12.018  0.00  0.00    -0.372 N 
ATOM      3  N   UNL     1      -7.782  13.305 -12.316  0.00  0.00    -0.372 N 
ATOM      4  C   UNL     1      -7.524  12.104 -11.788  0.00  0.00    +0.166 C 
ATOM      5  H   UNL     1      -6.310  10.946 -10.650  0.00  0.00    +0.163 HD
ATOM      6  H   UNL     1      -9.225  11.260 -12.576  0.00  0.00    +0.159 HD
ATOM      7  H   UNL     1      -8.246  10.179 -11.658  0.00  0.00    +0.159 HD
ATOM      8  H   UNL     1      -7.168  14.096 -12.175  0.00  0.00    +0.159 HD
ATOM      9  H   UNL     1      -8.614  13.474 -12.868  0.00  0.00    +0.159 HD
ENDROOT
BRANCH   1  10
ATOM     10  C   UNL     1      -5.395  12.866 -10.782  0.00  0.00    +0.151 C 
BRANCH  10  11
ATOM     11  C   UNL     1      -4.052  12.190 -10.796  0.00  0.00    -0.028 A 
ATOM     12  C   UNL     1      -3.947  10.809 -10.575  0.00  0.00    +0.005 A 
ATOM     13  C   UNL     1      -2.880  12.925 -11.035  0.00  0.00    +0.005 A 
ATOM     14  C   UNL     1      -2.702  10.176 -10.618  0.00  0.00    +0.000 A 
ATOM     15  C   UNL     1      -1.639  12.289 -11.075  0.00  0.00    +0.000 A 
ATOM     16  C   UNL     1      -1.551  10.915 -10.869  0.00  0.00    +0.000 A 
ENDBRANCH  10  11
ENDBRANCH   1  10
TORSDOF 2
ENDMDL
MODEL 3
REMARK VINA RESULT:    -6.282      2.912      5.013
REMARK INTER + INTRA:          -7.155
REMARK INTER:                  -7.030
REMARK INTRA:                  -0.125
REMARK UNBOUND:                -0.138
REMARK  Name = 1550473
REMARK  2 active torsions:
REMARK  status: ('A' for Active; 'I' for Inactive)
REMARK    1  A    between atoms: N_1  and  C_4
REMARK    2  A    between atoms: C_4  and  C_5
REMARK                            x       y       z     vdW  Elec       q    Type
REMARK                         _______ _______ _______ _____ _____    ______ ____
ROOT
ATOM      1  N   UNL     1      -3.285  11.665 -11.579  0.00  0.00    -0.354 N 
ATOM      2  N   UNL     1      -0.984  11.900 -11.450  0.00  0.00    -0.372 N 
ATOM      3  N   UNL     1      -1.939   9.934 -10.751  0.00  0.00    -0.372 N 
ATOM      4  C   UNL     1      -2.085  11.162 -11.260  0.00  0.00    +0.166 C 
ATOM      5  H   UNL     1      -3.331  12.613 -11.932  0.00  0.00    +0.163 HD
ATOM      6  H   UNL     1      -0.065  11.546 -11.222  0.00  0.00    +0.159 HD
ATOM      7  H   UNL     1      -1.029  12.830 -11.847  0.00  0.00    +0.159 HD
ATOM      8  H   UNL     1      -2.731   9.329 -10.577  0.00  0.00    +0.159 HD
ATOM      9  H   UNL     1      -1.028   9.566 -10.505  0.00  0.00    +0.159 HD
ENDROOT
BRANCH   1  10
ATOM     10  C   UNL     1      -4.539  10.924 -11.460  0.00  0.00    +0.151 C 
BRANCH  10  11
ATOM     11  C   UNL     1      -5.652  11.888 -11.155  0.00  0.00    -0.028 A 
ATOM     12  C   UNL     1      -6.895  11.767 -11.794  0.00  0.00    +0.005 A 
ATOM     13  C   UNL     1      -5.472  12.922 -10.224  0.00  0.00    +0.005 A 
ATOM     14  C   UNL     1      -7.938  12.644 -11.489  0.00  0.00    +0.000 A 
ATOM     15  C   UNL     1      -6.516  13.796  -9.922  0.00  0.00    +0.000 A 
ATOM     16  C   UNL     1      -7.750  13.655 -10.553  0.00  0.00    +0.000 A 
ENDBRANCH  10  11
ENDBRANCH   1  10
TORSDOF 2
ENDMDL
MODEL 4
REMARK VINA RESULT:    -6.063     13.589     15.391
REMARK INTER + INTRA:          -6.910
REMARK INTER:                  -6.790
REMARK INTRA:                  -0.120
REMARK UNBOUND:                -0.138
REMARK  Name = 1550473
REMARK  2 active torsions:
REMARK  status: ('A' for Active; 'I' for Inactive)
REMARK    1  A    between atoms: N_1  and  C_4
REMARK    2  A    between atoms: C_4  and  C_5
REMARK                            x       y       z     vdW  Elec       q    Type
REMARK                         _______ _______ _______ _____ _____    ______ ____
ROOT
ATOM      1  N   UNL     1      -4.989  -2.417 -10.998  0.00  0.00    -0.354 N 
ATOM      2  N   UNL     1      -4.630  -3.414  -8.938  0.00  0.00    -0.372 N 
ATOM      3  N   UNL     1      -4.721  -4.737 -10.810  0.00  0.00    -0.372 N 
ATOM      4  C   UNL     1      -4.783  -3.518 -10.264  0.00  0.00    +0.166 C 
ATOM      5  H   UNL     1      -5.055  -1.525 -10.519  0.00  0.00    +0.163 HD
ATOM      6  H   UNL     1      -4.470  -4.227  -8.359  0.00  0.00    +0.159 HD
ATOM      7  H   UNL     1      -4.651  -2.517  -8.469  0.00  0.00    +0.159 HD
ATOM      8  H   UNL     1      -4.835  -4.885 -11.804  0.00  0.00    +0.159 HD
ATOM      9  H   UNL     1      -4.573  -5.565 -10.246  0.00  0.00    +0.159 HD
ENDROOT
BRANCH   1  10
ATOM     10  C   UNL     1      -5.114  -2.416 -12.454  0.00  0.00    +0.151 C 
BRANCH  10  11
ATOM     11  C   UNL     1      -5.232  -0.996 -12.936  0.00  0.00    -0.028 A 
ATOM     12  C   UNL     1      -4.983  -0.677 -14.279  0.00  0.00    +0.005 A 
ATOM     13  C   UNL     1      -5.598   0.034 -12.056  0.00  0.00    +0.005 A 
ATOM     14  C   UNL     1      -5.122   0.636 -14.734  0.00  0.00    +0.000 A 
ATOM     15  C   UNL     1      -5.734   1.344 -12.514  0.00  0.00    +0.000 A 
ATOM     16  C   UNL     1      -5.498   1.645 -13.853  0.00  0.00    +0.000 A 
ENDBRANCH  10  11
ENDBRANCH   1  10
TORSDOF 2
ENDMDL
MODEL 5
REMARK VINA RESULT:    -5.810     13.302     14.832
REMARK INTER + INTRA:          -6.628
REMARK INTER:                  -6.486
REMARK INTRA:                  -0.141
REMARK UNBOUND:                -0.138
REMARK  Name = 1550473
REMARK  2 active torsions:
REMARK  status: ('A' for Active; 'I' for Inactive)
REMARK    1  A    between atoms: N_1  and  C_4
REMARK    2  A    between atoms: C_4  and  C_5
REMARK                            x       y       z     vdW  Elec       q    Type
REMARK                         _______ _______ _______ _____ _____    ______ ____
ROOT
ATOM      1  N   UNL     1      -0.154   3.496 -18.332  0.00  0.00    -0.354 N 
ATOM      2  N   UNL     1      -2.026   4.576 -17.499  0.00  0.00    -0.372 N 
ATOM      3  N   UNL     1      -1.217   2.739 -16.386  0.00  0.00    -0.372 N 
ATOM      4  C   UNL     1      -1.120   3.594 -17.409  0.00  0.00    +0.166 C 
ATOM      5  H   UNL     1      -0.153   4.157 -19.100  0.00  0.00    +0.163 HD
ATOM      6  H   UNL     1      -2.764   4.677 -16.815  0.00  0.00    +0.159 HD
ATOM      7  H   UNL     1      -1.995   5.263 -18.242  0.00  0.00    +0.159 HD
ATOM      8  H   UNL     1      -0.569   1.973 -16.264  0.00  0.00    +0.159 HD
ATOM      9  H   UNL     1      -1.956   2.817 -15.698  0.00  0.00    +0.159 HD
ENDROOT
BRANCH   1  10
ATOM     10  C   UNL     1       0.912   2.497 -18.296  0.00  0.00    +0.151 C 
BRANCH  10  11
ATOM     11  C   UNL     1       1.033   1.858 -19.652  0.00  0.00    -0.028 A 
ATOM     12  C   UNL     1      -0.114   1.560 -20.403  0.00  0.00    +0.005 A 
ATOM     13  C   UNL     1       2.291   1.553 -20.194  0.00  0.00    +0.005 A 
ATOM     14  C   UNL     1      -0.002   0.994 -21.676  0.00  0.00    +0.000 A 
ATOM     15  C   UNL     1       2.399   0.987 -21.465  0.00  0.00    +0.000 A 
ATOM     16  C   UNL     1       1.252   0.710 -22.206  0.00  0.00    +0.000 A 
ENDBRANCH  10  11
ENDBRANCH   1  10
TORSDOF 2
ENDMDL
MODEL 6
REMARK VINA RESULT:    -5.751     33.148     34.550
REMARK INTER + INTRA:          -6.562
REMARK INTER:                  -6.438
REMARK INTRA:                  -0.124
REMARK UNBOUND:                -0.138
REMARK  Name = 1550473
REMARK  2 active torsions:
REMARK  status: ('A' for Active; 'I' for Inactive)
REMARK    1  A    between atoms: N_1  and  C_4
REMARK    2  A    between atoms: C_4  and  C_5
REMARK                            x       y       z     vdW  Elec       q    Type
REMARK                         _______ _______ _______ _____ _____    ______ ____
ROOT
ATOM      1  N   UNL     1     -12.280 -18.342  -2.039  0.00  0.00    -0.354 N 
ATOM      2  N   UNL     1     -12.661 -17.023  -3.904  0.00  0.00    -0.372 N 
ATOM      3  N   UNL     1     -12.504 -19.298  -4.167  0.00  0.00    -0.372 N 
ATOM      4  C   UNL     1     -12.479 -18.232  -3.359  0.00  0.00    +0.166 C 
ATOM      5  H   UNL     1     -12.241 -17.494  -1.486  0.00  0.00    +0.163 HD
ATOM      6  H   UNL     1     -12.816 -16.910  -4.897  0.00  0.00    +0.159 HD
ATOM      7  H   UNL     1     -12.667 -16.181  -3.342  0.00  0.00    +0.159 HD
ATOM      8  H   UNL     1     -12.368 -20.237  -3.818  0.00  0.00    +0.159 HD
ATOM      9  H   UNL     1     -12.647 -19.203  -5.165  0.00  0.00    +0.159 HD
ENDROOT
BRANCH   1  10
ATOM     10  C   UNL     1     -12.125 -19.616  -1.338  0.00  0.00    +0.151 C 
BRANCH  10  11
ATOM     11  C   UNL     1     -11.333 -19.391  -0.080  0.00  0.00    -0.028 A 
ATOM     12  C   UNL     1     -10.254 -18.495  -0.068  0.00  0.00    +0.005 A 
ATOM     13  C   UNL     1     -11.660 -20.068   1.105  0.00  0.00    +0.005 A 
ATOM     14  C   UNL     1      -9.537 -18.263   1.109  0.00  0.00    +0.000 A 
ATOM     15  C   UNL     1     -10.941 -19.835   2.278  0.00  0.00    +0.000 A 
ATOM     16  C   UNL     1      -9.881 -18.931   2.279  0.00  0.00    +0.000 A 
ENDBRANCH  10  11
ENDBRANCH   1  10
TORSDOF 2
ENDMDL
MODEL 7
REMARK VINA RESULT:    -5.745     14.662     16.177
REMARK INTER + INTRA:          -6.555
REMARK INTER:                  -6.404
REMARK INTRA:                  -0.151
REMARK UNBOUND:                -0.138
REMARK  Name = 1550473
REMARK  2 active torsions:
REMARK  status: ('A' for Active; 'I' for Inactive)
REMARK    1  A    between atoms: N_1  and  C_4
REMARK    2  A    between atoms: C_4  and  C_5
REMARK                            x       y       z     vdW  Elec       q    Type
REMARK                         _______ _______ _______ _____ _____    ______ ____
ROOT
ATOM      1  N   UNL     1      -4.933  -2.364 -10.764  0.00  0.00    -0.354 N 
ATOM      2  N   UNL     1      -4.669  -3.756  -8.932  0.00  0.00    -0.372 N 
ATOM      3  N   UNL     1      -4.789  -4.689 -11.025  0.00  0.00    -0.372 N 
ATOM      4  C   UNL     1      -4.799  -3.596 -10.255  0.00  0.00    +0.166 C 
ATOM      5  H   UNL     1      -4.963  -1.579 -10.124  0.00  0.00    +0.163 HD
ATOM      6  H   UNL     1      -4.563  -4.673  -8.519  0.00  0.00    +0.159 HD
ATOM      7  H   UNL     1      -4.653  -2.966  -8.299  0.00  0.00    +0.159 HD
ATOM      8  H   UNL     1      -4.889  -4.637 -12.030  0.00  0.00    +0.159 HD
ATOM      9  H   UNL     1      -4.696  -5.616 -10.629  0.00  0.00    +0.159 HD
ENDROOT
BRANCH   1  10
ATOM     10  C   UNL     1      -5.027  -2.077 -12.195  0.00  0.00    +0.151 C 
BRANCH  10  11
ATOM     11  C   UNL     1      -6.394  -1.529 -12.497  0.00  0.00    -0.028 A 
ATOM     12  C   UNL     1      -6.849  -0.363 -11.863  0.00  0.00    +0.005 A 
ATOM     13  C   UNL     1      -7.237  -2.167 -13.419  0.00  0.00    +0.005 A 
ATOM     14  C   UNL     1      -8.107   0.164 -12.166  0.00  0.00    +0.000 A 
ATOM     15  C   UNL     1      -8.493  -1.638 -13.718  0.00  0.00    +0.000 A 
ATOM     16  C   UNL     1      -8.926  -0.471 -13.093  0.00  0.00    +0.000 A 
ENDBRANCH  10  11
ENDBRANCH   1  10
TORSDOF 2
ENDMDL
MODEL 8
REMARK VINA RESULT:    -5.636     23.448     24.623
REMARK INTER + INTRA:          -6.433
REMARK INTER:                  -6.265
REMARK INTRA:                  -0.168
REMARK UNBOUND:                -0.138
REMARK  Name = 1550473
REMARK  2 active torsions:
REMARK  status: ('A' for Active; 'I' for Inactive)
REMARK    1  A    between atoms: N_1  and  C_4
REMARK    2  A    between atoms: C_4  and  C_5
REMARK                            x       y       z     vdW  Elec       q    Type
REMARK                         _______ _______ _______ _____ _____    ______ ____
ROOT
ATOM      1  N   UNL     1     -11.672  -9.187  -3.832  0.00  0.00    -0.354 N 
ATOM      2  N   UNL     1     -12.112  -6.959  -3.375  0.00  0.00    -0.372 N 
ATOM      3  N   UNL     1      -9.929  -7.646  -3.548  0.00  0.00    -0.372 N 
ATOM      4  C   UNL     1     -11.232  -7.945  -3.588  0.00  0.00    +0.166 C 
ATOM      5  H   UNL     1     -12.672  -9.354  -3.819  0.00  0.00    +0.163 HD
ATOM      6  H   UNL     1     -11.809  -6.012  -3.192  0.00  0.00    +0.159 HD
ATOM      7  H   UNL     1     -13.111  -7.120  -3.408  0.00  0.00    +0.159 HD
ATOM      8  H   UNL     1      -9.214  -8.346  -3.694  0.00  0.00    +0.159 HD
ATOM      9  H   UNL     1      -9.607  -6.706  -3.354  0.00  0.00    +0.159 HD
ENDROOT
BRANCH   1  10
ATOM     10  C   UNL     1     -10.799 -10.320  -4.129  0.00  0.00    +0.151 C 
BRANCH  10  11
ATOM     11  C   UNL     1     -10.760 -10.534  -5.617  0.00  0.00    -0.028 A 
ATOM     12  C   UNL     1     -11.921 -10.378  -6.389  0.00  0.00    +0.005 A 
ATOM     13  C   UNL     1      -9.565 -10.887  -6.262  0.00  0.00    +0.005 A 
ATOM     14  C   UNL     1     -11.879 -10.546  -7.775  0.00  0.00    +0.000 A 
ATOM     15  C   UNL     1      -9.528 -11.055  -7.646  0.00  0.00    +0.000 A 
ATOM     16  C   UNL     1     -10.684 -10.882  -8.403  0.00  0.00    +0.000 A 
ENDBRANCH  10  11
ENDBRANCH   1  10
TORSDOF 2
ENDMDL
MODEL 9
REMARK VINA RESULT:    -5.537     33.557     34.571
REMARK INTER + INTRA:          -6.323
REMARK INTER:                  -6.215
REMARK INTRA:                  -0.108
REMARK UNBOUND:                -0.138
REMARK  Name = 1550473
REMARK  2 active torsions:
REMARK  status: ('A' for Active; 'I' for Inactive)
REMARK    1  A    between atoms: N_1  and  C_4
REMARK    2  A    between atoms: C_4  and  C_5
REMARK                            x       y       z     vdW  Elec       q    Type
REMARK                         _______ _______ _______ _____ _____    ______ ____
ROOT
ATOM      1  N   UNL     1     -10.203 -18.416   0.921  0.00  0.00    -0.354 N 
ATOM      2  N   UNL     1     -11.864 -19.537  -0.241  0.00  0.00    -0.372 N 
ATOM      3  N   UNL     1     -10.286 -18.360  -1.420  0.00  0.00    -0.372 N 
ATOM      4  C   UNL     1     -10.772 -18.762  -0.242  0.00  0.00    +0.166 C 
ATOM      5  H   UNL     1     -10.638 -18.729   1.781  0.00  0.00    +0.163 HD
ATOM      6  H   UNL     1     -12.313 -19.817  -1.103  0.00  0.00    +0.159 HD
ATOM      7  H   UNL     1     -12.269 -19.886   0.618  0.00  0.00    +0.159 HD
ATOM      8  H   UNL     1      -9.468 -17.769  -1.489  0.00  0.00    +0.159 HD
ATOM      9  H   UNL     1     -10.728 -18.620  -2.293  0.00  0.00    +0.159 HD
ENDROOT
BRANCH   1  10
ATOM     10  C   UNL     1      -8.981 -17.621   1.029  0.00  0.00    +0.151 C 
BRANCH  10  11
ATOM     11  C   UNL     1      -8.341 -17.883   2.364  0.00  0.00    -0.028 A 
ATOM     12  C   UNL     1      -8.210 -16.851   3.305  0.00  0.00    +0.005 A 
ATOM     13  C   UNL     1      -7.868 -19.162   2.696  0.00  0.00    +0.005 A 
ATOM     14  C   UNL     1      -7.643 -17.101   4.557  0.00  0.00    +0.000 A 
ATOM     15  C   UNL     1      -7.301 -19.406   3.947  0.00  0.00    +0.000 A 
ATOM     16  C   UNL     1      -7.191 -18.376   4.878  0.00  0.00    +0.000 A 
ENDBRANCH  10  11
ENDBRANCH   1  10
TORSDOF 2
ENDMDL
