MODEL 1
REMARK VINA RESULT:    -5.774      0.000      0.000
REMARK INTER + INTRA:          -6.589
REMARK INTER:                  -6.449
REMARK INTRA:                  -0.141
REMARK UNBOUND:                -0.141
REMARK  Name = 1550473
REMARK  2 active torsions:
REMARK  status: ('A' for Active; 'I' for Inactive)
REMARK    1  A    between atoms: N_1  and  C_4
REMARK    2  A    between atoms: C_4  and  C_5
REMARK                            x       y       z     vdW  Elec       q    Type
REMARK                         _______ _______ _______ _____ _____    ______ ____
ROOT
ATOM      1  N   UNL     1     -15.255  -7.924  -6.564  0.00  0.00    -0.354 N 
ATOM      2  N   UNL     1     -13.452  -9.373  -6.448  0.00  0.00    -0.372 N 
ATOM      3  N   UNL     1     -15.462 -10.028  -5.555  0.00  0.00    -0.372 N 
ATOM      4  C   UNL     1     -14.737  -9.100  -6.188  0.00  0.00    +0.166 C 
ATOM      5  H   UNL     1     -14.645  -7.251  -7.014  0.00  0.00    +0.163 HD
ATOM      6  H   UNL     1     -13.035 -10.254  -6.180  0.00  0.00    +0.159 HD
ATOM      7  H   UNL     1     -12.857  -8.717  -6.939  0.00  0.00    +0.159 HD
ATOM      8  H   UNL     1     -16.435  -9.882  -5.324  0.00  0.00    +0.159 HD
ATOM      9  H   UNL     1     -15.058 -10.911  -5.268  0.00  0.00    +0.159 HD
ENDROOT
BRANCH   1  10
ATOM     10  C   UNL     1     -16.656  -7.550  -6.377  0.00  0.00    +0.151 C 
BRANCH  10  11
ATOM     11  C   UNL     1     -17.195  -7.003  -7.669  0.00  0.00    -0.028 A 
ATOM     12  C   UNL     1     -16.327  -6.671  -8.720  0.00  0.00    +0.005 A 
ATOM     13  C   UNL     1     -18.575  -6.820  -7.852  0.00  0.00    +0.005 A 
ATOM     14  C   UNL     1     -16.830  -6.191  -9.932  0.00  0.00    +0.000 A 
ATOM     15  C   UNL     1     -19.073  -6.340  -9.063  0.00  0.00    +0.000 A 
ATOM     16  C   UNL     1     -18.201  -6.028 -10.104  0.00  0.00    +0.000 A 
ENDBRANCH  10  11
ENDBRANCH   1  10
TORSDOF 2
ENDMDL
MODEL 2
REMARK VINA RESULT:    -5.746      0.111      1.458
REMARK INTER + INTRA:          -6.559
REMARK INTER:                  -6.414
REMARK INTRA:                  -0.145
REMARK UNBOUND:                -0.141
REMARK  Name = 1550473
REMARK  2 active torsions:
REMARK  status: ('A' for Active; 'I' for Inactive)
REMARK    1  A    between atoms: N_1  and  C_4
REMARK    2  A    between atoms: C_4  and  C_5
REMARK                            x       y       z     vdW  Elec       q    Type
REMARK                         _______ _______ _______ _____ _____    ______ ____
ROOT
ATOM      1  N   UNL     1     -15.251  -7.867  -6.511  0.00  0.00    -0.354 N 
ATOM      2  N   UNL     1     -13.495  -9.376  -6.450  0.00  0.00    -0.372 N 
ATOM      3  N   UNL     1     -15.513  -9.986  -5.544  0.00  0.00    -0.372 N 
ATOM      4  C   UNL     1     -14.766  -9.068  -6.167  0.00  0.00    +0.166 C 
ATOM      5  H   UNL     1     -14.625  -7.205  -6.954  0.00  0.00    +0.163 HD
ATOM      6  H   UNL     1     -13.102 -10.276  -6.206  0.00  0.00    +0.159 HD
ATOM      7  H   UNL     1     -12.885  -8.729  -6.934  0.00  0.00    +0.159 HD
ATOM      8  H   UNL     1     -16.478  -9.813  -5.296  0.00  0.00    +0.159 HD
ATOM      9  H   UNL     1     -15.134 -10.888  -5.281  0.00  0.00    +0.159 HD
ENDROOT
BRANCH   1  10
ATOM     10  C   UNL     1     -16.636  -7.453  -6.296  0.00  0.00    +0.151 C 
BRANCH  10  11
ATOM     11  C   UNL     1     -17.225  -7.009  -7.607  0.00  0.00    -0.028 A 
ATOM     12  C   UNL     1     -18.613  -6.872  -7.754  0.00  0.00    +0.005 A 
ATOM     13  C   UNL     1     -16.399  -6.718  -8.704  0.00  0.00    +0.005 A 
ATOM     14  C   UNL     1     -19.158  -6.430  -8.962  0.00  0.00    +0.000 A 
ATOM     15  C   UNL     1     -16.947  -6.278  -9.908  0.00  0.00    +0.000 A 
ATOM     16  C   UNL     1     -18.326  -6.132 -10.037  0.00  0.00    +0.000 A 
ENDBRANCH  10  11
ENDBRANCH   1  10
TORSDOF 2
ENDMDL
MODEL 3
REMARK VINA RESULT:    -5.230     10.090     11.171
REMARK INTER + INTRA:          -5.982
REMARK INTER:                  -5.819
REMARK INTRA:                  -0.164
REMARK UNBOUND:                -0.141
REMARK  Name = 1550473
REMARK  2 active torsions:
REMARK  status: ('A' for Active; 'I' for Inactive)
REMARK    1  A    between atoms: N_1  and  C_4
REMARK    2  A    between atoms: C_4  and  C_5
REMARK                            x       y       z     vdW  Elec       q    Type
REMARK                         _______ _______ _______ _____ _____    ______ ____
ROOT
ATOM      1  N   UNL     1     -10.177   1.330  -4.984  0.00  0.00    -0.354 N 
ATOM      2  N   UNL     1     -10.480   2.656  -3.109  0.00  0.00    -0.372 N 
ATOM      3  N   UNL     1      -8.353   2.338  -3.911  0.00  0.00    -0.372 N 
ATOM      4  C   UNL     1      -9.665   2.099  -4.014  0.00  0.00    +0.166 C 
ATOM      5  H   UNL     1     -11.176   1.163  -4.989  0.00  0.00    +0.163 HD
ATOM      6  H   UNL     1     -10.123   3.244  -2.368  0.00  0.00    +0.159 HD
ATOM      7  H   UNL     1     -11.483   2.525  -3.144  0.00  0.00    +0.159 HD
ATOM      8  H   UNL     1      -7.685   1.943  -4.559  0.00  0.00    +0.159 HD
ATOM      9  H   UNL     1      -7.976   2.914  -3.169  0.00  0.00    +0.159 HD
ENDROOT
BRANCH   1  10
ATOM     10  C   UNL     1      -9.382   0.721  -6.049  0.00  0.00    +0.151 C 
BRANCH  10  11
ATOM     11  C   UNL     1      -9.433  -0.775  -5.906  0.00  0.00    -0.028 A 
ATOM     12  C   UNL     1     -10.415  -1.521  -6.574  0.00  0.00    +0.005 A 
ATOM     13  C   UNL     1      -8.498  -1.453  -5.109  0.00  0.00    +0.005 A 
ATOM     14  C   UNL     1     -10.444  -2.914  -6.465  0.00  0.00    +0.000 A 
ATOM     15  C   UNL     1      -8.531  -2.843  -5.002  0.00  0.00    +0.000 A 
ATOM     16  C   UNL     1      -9.503  -3.573  -5.682  0.00  0.00    +0.000 A 
ENDBRANCH  10  11
ENDBRANCH   1  10
TORSDOF 2
ENDMDL
MODEL 4
REMARK VINA RESULT:    -5.169     10.604     11.572
REMARK INTER + INTRA:          -5.914
REMARK INTER:                  -5.799
REMARK INTRA:                  -0.115
REMARK UNBOUND:                -0.141
REMARK  Name = 1550473
REMARK  2 active torsions:
REMARK  status: ('A' for Active; 'I' for Inactive)
REMARK    1  A    between atoms: N_1  and  C_4
REMARK    2  A    between atoms: C_4  and  C_5
REMARK                            x       y       z     vdW  Elec       q    Type
REMARK                         _______ _______ _______ _____ _____    ______ ____
ROOT
ATOM      1  N   UNL     1      -7.379   0.782  -6.087  0.00  0.00    -0.354 N 
ATOM      2  N   UNL     1      -5.444   1.952  -6.587  0.00  0.00    -0.372 N 
ATOM      3  N   UNL     1      -7.468   2.844  -7.198  0.00  0.00    -0.372 N 
ATOM      4  C   UNL     1      -6.778   1.853  -6.622  0.00  0.00    +0.166 C 
ATOM      5  H   UNL     1      -6.798   0.052  -5.692  0.00  0.00    +0.163 HD
ATOM      6  H   UNL     1      -4.962   2.750  -6.980  0.00  0.00    +0.159 HD
ATOM      7  H   UNL     1      -4.868   1.242  -6.151  0.00  0.00    +0.159 HD
ATOM      8  H   UNL     1      -8.477   2.827  -7.262  0.00  0.00    +0.159 HD
ATOM      9  H   UNL     1      -7.003   3.645  -7.607  0.00  0.00    +0.159 HD
ENDROOT
BRANCH   1  10
ATOM     10  C   UNL     1      -8.828   0.604  -6.025  0.00  0.00    +0.151 C 
BRANCH  10  11
ATOM     11  C   UNL     1      -9.138  -0.863  -5.901  0.00  0.00    -0.028 A 
ATOM     12  C   UNL     1      -8.296  -1.708  -5.165  0.00  0.00    +0.005 A 
ATOM     13  C   UNL     1     -10.275  -1.412  -6.514  0.00  0.00    +0.005 A 
ATOM     14  C   UNL     1      -8.599  -3.065  -5.024  0.00  0.00    +0.000 A 
ATOM     15  C   UNL     1     -10.573  -2.767  -6.372  0.00  0.00    +0.000 A 
ATOM     16  C   UNL     1      -9.737  -3.592  -5.625  0.00  0.00    +0.000 A 
ENDBRANCH  10  11
ENDBRANCH   1  10
TORSDOF 2
ENDMDL
MODEL 5
REMARK VINA RESULT:    -4.991      9.037     10.226
REMARK INTER + INTRA:          -5.715
REMARK INTER:                  -5.586
REMARK INTRA:                  -0.130
REMARK UNBOUND:                -0.141
REMARK  Name = 1550473
REMARK  2 active torsions:
REMARK  status: ('A' for Active; 'I' for Inactive)
REMARK    1  A    between atoms: N_1  and  C_4
REMARK    2  A    between atoms: C_4  and  C_5
REMARK                            x       y       z     vdW  Elec       q    Type
REMARK                         _______ _______ _______ _____ _____    ______ ____
ROOT
ATOM      1  N   UNL     1     -24.627 -11.097  -1.993  0.00  0.00    -0.354 N 
ATOM      2  N   UNL     1     -24.844 -11.100   0.313  0.00  0.00    -0.372 N 
ATOM      3  N   UNL     1     -23.186  -9.835  -0.644  0.00  0.00    -0.372 N 
ATOM      4  C   UNL     1     -24.215 -10.676  -0.790  0.00  0.00    +0.166 C 
ATOM      5  H   UNL     1     -25.394 -11.758  -2.035  0.00  0.00    +0.163 HD
ATOM      6  H   UNL     1     -24.558 -10.796   1.234  0.00  0.00    +0.159 HD
ATOM      7  H   UNL     1     -25.640 -11.725   0.265  0.00  0.00    +0.159 HD
ATOM      8  H   UNL     1     -22.665  -9.482  -1.436  0.00  0.00    +0.159 HD
ATOM      9  H   UNL     1     -22.877  -9.529   0.270  0.00  0.00    +0.159 HD
ENDROOT
BRANCH   1  10
ATOM     10  C   UNL     1     -24.045 -10.653  -3.259  0.00  0.00    +0.151 C 
BRANCH  10  11
ATOM     11  C   UNL     1     -23.695 -11.858  -4.088  0.00  0.00    -0.028 A 
ATOM     12  C   UNL     1     -24.582 -12.941  -4.180  0.00  0.00    +0.005 A 
ATOM     13  C   UNL     1     -22.481 -11.920  -4.788  0.00  0.00    +0.005 A 
ATOM     14  C   UNL     1     -24.270 -14.047  -4.974  0.00  0.00    +0.000 A 
ATOM     15  C   UNL     1     -22.173 -13.027  -5.579  0.00  0.00    +0.000 A 
ATOM     16  C   UNL     1     -23.069 -14.089  -5.674  0.00  0.00    +0.000 A 
ENDBRANCH  10  11
ENDBRANCH   1  10
TORSDOF 2
ENDMDL
MODEL 6
REMARK VINA RESULT:    -4.888      7.637      8.755
REMARK INTER + INTRA:          -5.600
REMARK INTER:                  -5.446
REMARK INTRA:                  -0.154
REMARK UNBOUND:                -0.141
REMARK  Name = 1550473
REMARK  2 active torsions:
REMARK  status: ('A' for Active; 'I' for Inactive)
REMARK    1  A    between atoms: N_1  and  C_4
REMARK    2  A    between atoms: C_4  and  C_5
REMARK                            x       y       z     vdW  Elec       q    Type
REMARK                         _______ _______ _______ _____ _____    ______ ____
ROOT
ATOM      1  N   UNL     1     -20.494 -11.729  -1.636  0.00  0.00    -0.354 N 
ATOM      2  N   UNL     1     -18.774 -12.386  -0.232  0.00  0.00    -0.372 N 
ATOM      3  N   UNL     1     -18.258 -11.600  -2.325  0.00  0.00    -0.372 N 
ATOM      4  C   UNL     1     -19.185 -11.900  -1.409  0.00  0.00    +0.166 C 
ATOM      5  H   UNL     1     -21.148 -12.004  -0.912  0.00  0.00    +0.163 HD
ATOM      6  H   UNL     1     -17.793 -12.523  -0.030  0.00  0.00    +0.159 HD
ATOM      7  H   UNL     1     -19.427 -12.617   0.507  0.00  0.00    +0.159 HD
ATOM      8  H   UNL     1     -18.503 -11.236  -3.235  0.00  0.00    +0.159 HD
ATOM      9  H   UNL     1     -17.272 -11.742  -2.146  0.00  0.00    +0.159 HD
ENDROOT
BRANCH   1  10
ATOM     10  C   UNL     1     -21.043 -11.157  -2.864  0.00  0.00    +0.151 C 
BRANCH  10  11
ATOM     11  C   UNL     1     -21.997 -12.141  -3.482  0.00  0.00    -0.028 A 
ATOM     12  C   UNL     1     -23.363 -11.841  -3.584  0.00  0.00    +0.005 A 
ATOM     13  C   UNL     1     -21.540 -13.375  -3.971  0.00  0.00    +0.005 A 
ATOM     14  C   UNL     1     -24.245 -12.743  -4.185  0.00  0.00    +0.000 A 
ATOM     15  C   UNL     1     -22.424 -14.273  -4.569  0.00  0.00    +0.000 A 
ATOM     16  C   UNL     1     -23.776 -13.955  -4.678  0.00  0.00    +0.000 A 
ENDBRANCH  10  11
ENDBRANCH   1  10
TORSDOF 2
ENDMDL
MODEL 7
REMARK VINA RESULT:    -4.755      9.187     10.276
REMARK INTER + INTRA:          -5.451
REMARK INTER:                  -5.273
REMARK INTRA:                  -0.178
REMARK UNBOUND:                -0.141
REMARK  Name = 1550473
REMARK  2 active torsions:
REMARK  status: ('A' for Active; 'I' for Inactive)
REMARK    1  A    between atoms: N_1  and  C_4
REMARK    2  A    between atoms: C_4  and  C_5
REMARK                            x       y       z     vdW  Elec       q    Type
REMARK                         _______ _______ _______ _____ _____    ______ ____
ROOT
ATOM      1  N   UNL     1     -24.796 -10.859  -2.326  0.00  0.00    -0.354 N 
ATOM      2  N   UNL     1     -25.145 -10.803  -0.037  0.00  0.00    -0.372 N 
ATOM      3  N   UNL     1     -23.034 -10.412  -0.847  0.00  0.00    -0.372 N 
ATOM      4  C   UNL     1     -24.320 -10.691  -1.085  0.00  0.00    +0.166 C 
ATOM      5  H   UNL     1     -25.774 -11.099  -2.438  0.00  0.00    +0.163 HD
ATOM      6  H   UNL     1     -24.816 -10.678   0.911  0.00  0.00    +0.159 HD
ATOM      7  H   UNL     1     -26.132 -10.997  -0.154  0.00  0.00    +0.159 HD
ATOM      8  H   UNL     1     -22.359 -10.320  -1.594  0.00  0.00    +0.159 HD
ATOM      9  H   UNL     1     -22.683 -10.295   0.096  0.00  0.00    +0.159 HD
ENDROOT
BRANCH   1  10
ATOM     10  C   UNL     1     -23.992 -10.705  -3.537  0.00  0.00    +0.151 C 
BRANCH  10  11
ATOM     11  C   UNL     1     -23.538 -12.062  -4.001  0.00  0.00    -0.028 A 
ATOM     12  C   UNL     1     -22.190 -12.434  -3.901  0.00  0.00    +0.005 A 
ATOM     13  C   UNL     1     -24.453 -12.983  -4.535  0.00  0.00    +0.005 A 
ATOM     14  C   UNL     1     -21.772 -13.705  -4.303  0.00  0.00    +0.000 A 
ATOM     15  C   UNL     1     -24.032 -14.251  -4.936  0.00  0.00    +0.000 A 
ATOM     16  C   UNL     1     -22.692 -14.612  -4.818  0.00  0.00    +0.000 A 
ENDBRANCH  10  11
ENDBRANCH   1  10
TORSDOF 2
ENDMDL
MODEL 8
REMARK VINA RESULT:    -4.746     21.301     22.084
REMARK INTER + INTRA:          -5.441
REMARK INTER:                  -5.300
REMARK INTRA:                  -0.141
REMARK UNBOUND:                -0.141
REMARK  Name = 1550473
REMARK  2 active torsions:
REMARK  status: ('A' for Active; 'I' for Inactive)
REMARK    1  A    between atoms: N_1  and  C_4
REMARK    2  A    between atoms: C_4  and  C_5
REMARK                            x       y       z     vdW  Elec       q    Type
REMARK                         _______ _______ _______ _____ _____    ______ ____
ROOT
ATOM      1  N   UNL     1      -8.869   9.427   6.691  0.00  0.00    -0.354 N 
ATOM      2  N   UNL     1      -6.654  10.019   7.018  0.00  0.00    -0.372 N 
ATOM      3  N   UNL     1      -7.856   9.197   8.791  0.00  0.00    -0.372 N 
ATOM      4  C   UNL     1      -7.808   9.543   7.501  0.00  0.00    +0.166 C 
ATOM      5  H   UNL     1      -8.777   9.735   5.730  0.00  0.00    +0.163 HD
ATOM      6  H   UNL     1      -5.836  10.114   7.604  0.00  0.00    +0.159 HD
ATOM      7  H   UNL     1      -6.551  10.283   6.046  0.00  0.00    +0.159 HD
ATOM      8  H   UNL     1      -8.699   8.837   9.218  0.00  0.00    +0.159 HD
ATOM      9  H   UNL     1      -7.051   9.296   9.397  0.00  0.00    +0.159 HD
ENDROOT
BRANCH   1  10
ATOM     10  C   UNL     1     -10.156   8.870   7.104  0.00  0.00    +0.151 C 
BRANCH  10  11
ATOM     11  C   UNL     1     -10.628   7.896   6.060  0.00  0.00    -0.028 A 
ATOM     12  C   UNL     1      -9.868   7.669   4.903  0.00  0.00    +0.005 A 
ATOM     13  C   UNL     1     -11.832   7.194   6.224  0.00  0.00    +0.005 A 
ATOM     14  C   UNL     1     -10.291   6.742   3.947  0.00  0.00    +0.000 A 
ATOM     15  C   UNL     1     -12.251   6.270   5.267  0.00  0.00    +0.000 A 
ATOM     16  C   UNL     1     -11.479   6.042   4.130  0.00  0.00    +0.000 A 
ENDBRANCH  10  11
ENDBRANCH   1  10
TORSDOF 2
ENDMDL
MODEL 9
REMARK VINA RESULT:    -4.625     23.254     24.052
REMARK INTER + INTRA:          -5.306
REMARK INTER:                  -5.193
REMARK INTRA:                  -0.114
REMARK UNBOUND:                -0.141
REMARK  Name = 1550473
REMARK  2 active torsions:
REMARK  status: ('A' for Active; 'I' for Inactive)
REMARK    1  A    between atoms: N_1  and  C_4
REMARK    2  A    between atoms: C_4  and  C_5
REMARK                            x       y       z     vdW  Elec       q    Type
REMARK                         _______ _______ _______ _____ _____    ______ ____
ROOT
ATOM      1  N   UNL     1      -7.556   9.543   8.722  0.00  0.00    -0.354 N 
ATOM      2  N   UNL     1      -6.417   9.846  10.716  0.00  0.00    -0.372 N 
ATOM      3  N   UNL     1      -5.453  10.577   8.767  0.00  0.00    -0.372 N 
ATOM      4  C   UNL     1      -6.481   9.988   9.387  0.00  0.00    +0.166 C 
ATOM      5  H   UNL     1      -8.288   9.078   9.247  0.00  0.00    +0.163 HD
ATOM      6  H   UNL     1      -5.620  10.174  11.245  0.00  0.00    +0.159 HD
ATOM      7  H   UNL     1      -7.171   9.421  11.243  0.00  0.00    +0.159 HD
ATOM      8  H   UNL     1      -5.437  10.710   7.764  0.00  0.00    +0.159 HD
ATOM      9  H   UNL     1      -4.642  10.902   9.277  0.00  0.00    +0.159 HD
ENDROOT
BRANCH   1  10
ATOM     10  C   UNL     1      -7.748   9.698   7.281  0.00  0.00    +0.151 C 
BRANCH  10  11
ATOM     11  C   UNL     1      -9.001   8.975   6.872  0.00  0.00    -0.028 A 
ATOM     12  C   UNL     1      -9.087   8.351   5.619  0.00  0.00    +0.005 A 
ATOM     13  C   UNL     1     -10.105   8.905   7.736  0.00  0.00    +0.005 A 
ATOM     14  C   UNL     1     -10.240   7.653   5.251  0.00  0.00    +0.000 A 
ATOM     15  C   UNL     1     -11.255   8.208   7.364  0.00  0.00    +0.000 A 
ATOM     16  C   UNL     1     -11.321   7.581   6.123  0.00  0.00    +0.000 A 
ENDBRANCH  10  11
ENDBRANCH   1  10
TORSDOF 2
ENDMDL
