MODEL 1
REMARK VINA RESULT:    -5.352      0.000      0.000
REMARK INTER + INTRA:          -6.112
REMARK INTER:                  -5.978
REMARK INTRA:                  -0.134
REMARK UNBOUND:                -0.134
REMARK  Name = 1550473
REMARK  2 active torsions:
REMARK  status: ('A' for Active; 'I' for Inactive)
REMARK    1  A    between atoms: N_1  and  C_4
REMARK    2  A    between atoms: C_4  and  C_5
REMARK                            x       y       z     vdW  Elec       q    Type
REMARK                         _______ _______ _______ _____ _____    ______ ____
ROOT
ATOM      1  N   UNL     1       7.591   4.667   4.012  0.00  0.00    -0.354 N 
ATOM      2  N   UNL     1       6.155   5.984   2.759  0.00  0.00    -0.372 N 
ATOM      3  N   UNL     1       5.600   5.494   4.931  0.00  0.00    -0.372 N 
ATOM      4  C   UNL     1       6.457   5.373   3.912  0.00  0.00    +0.166 C 
ATOM      5  H   UNL     1       8.183   4.589   3.193  0.00  0.00    +0.163 HD
ATOM      6  H   UNL     1       5.308   6.526   2.655  0.00  0.00    +0.159 HD
ATOM      7  H   UNL     1       6.771   5.942   1.957  0.00  0.00    +0.159 HD
ATOM      8  H   UNL     1       5.767   5.052   5.826  0.00  0.00    +0.159 HD
ATOM      9  H   UNL     1       4.742   6.023   4.843  0.00  0.00    +0.159 HD
ENDROOT
BRANCH   1  10
ATOM     10  C   UNL     1       8.038   4.009   5.238  0.00  0.00    +0.151 C 
BRANCH  10  11
ATOM     11  C   UNL     1       8.747   2.732   4.879  0.00  0.00    -0.028 A 
ATOM     12  C   UNL     1       8.629   2.190   3.591  0.00  0.00    +0.005 A 
ATOM     13  C   UNL     1       9.544   2.063   5.821  0.00  0.00    +0.005 A 
ATOM     14  C   UNL     1       9.311   1.020   3.248  0.00  0.00    +0.000 A 
ATOM     15  C   UNL     1      10.223   0.894   5.475  0.00  0.00    +0.000 A 
ATOM     16  C   UNL     1      10.108   0.375   4.188  0.00  0.00    +0.000 A 
ENDBRANCH  10  11
ENDBRANCH   1  10
TORSDOF 2
ENDMDL
MODEL 2
REMARK VINA RESULT:    -5.287      2.053      2.610
REMARK INTER + INTRA:          -6.040
REMARK INTER:                  -5.916
REMARK INTRA:                  -0.124
REMARK UNBOUND:                -0.134
REMARK  Name = 1550473
REMARK  2 active torsions:
REMARK  status: ('A' for Active; 'I' for Inactive)
REMARK    1  A    between atoms: N_1  and  C_4
REMARK    2  A    between atoms: C_4  and  C_5
REMARK                            x       y       z     vdW  Elec       q    Type
REMARK                         _______ _______ _______ _____ _____    ______ ____
ROOT
ATOM      1  N   UNL     1       9.016   4.620   2.352  0.00  0.00    -0.354 N 
ATOM      2  N   UNL     1       8.587   6.812   1.739  0.00  0.00    -0.372 N 
ATOM      3  N   UNL     1       7.732   5.114   0.454  0.00  0.00    -0.372 N 
ATOM      4  C   UNL     1       8.447   5.500   1.517  0.00  0.00    +0.166 C 
ATOM      5  H   UNL     1       9.570   4.977   3.122  0.00  0.00    +0.163 HD
ATOM      6  H   UNL     1       8.166   7.500   1.128  0.00  0.00    +0.159 HD
ATOM      7  H   UNL     1       9.103   7.166   2.535  0.00  0.00    +0.159 HD
ATOM      8  H   UNL     1       7.594   4.138   0.228  0.00  0.00    +0.159 HD
ATOM      9  H   UNL     1       7.313   5.787  -0.176  0.00  0.00    +0.159 HD
ENDROOT
BRANCH   1  10
ATOM     10  C   UNL     1       8.878   3.170   2.229  0.00  0.00    +0.151 C 
BRANCH  10  11
ATOM     11  C   UNL     1       9.285   2.527   3.527  0.00  0.00    -0.028 A 
ATOM     12  C   UNL     1       9.637   1.170   3.569  0.00  0.00    +0.005 A 
ATOM     13  C   UNL     1       9.325   3.271   4.716  0.00  0.00    +0.005 A 
ATOM     14  C   UNL     1      10.043   0.580   4.768  0.00  0.00    +0.000 A 
ATOM     15  C   UNL     1       9.731   2.678   5.911  0.00  0.00    +0.000 A 
ATOM     16  C   UNL     1      10.092   1.333   5.937  0.00  0.00    +0.000 A 
ENDBRANCH  10  11
ENDBRANCH   1  10
TORSDOF 2
ENDMDL
MODEL 3
REMARK VINA RESULT:    -5.236     11.580     13.123
REMARK INTER + INTRA:          -5.983
REMARK INTER:                  -5.860
REMARK INTRA:                  -0.122
REMARK UNBOUND:                -0.134
REMARK  Name = 1550473
REMARK  2 active torsions:
REMARK  status: ('A' for Active; 'I' for Inactive)
REMARK    1  A    between atoms: N_1  and  C_4
REMARK    2  A    between atoms: C_4  and  C_5
REMARK                            x       y       z     vdW  Elec       q    Type
REMARK                         _______ _______ _______ _____ _____    ______ ____
ROOT
ATOM      1  N   UNL     1       9.436  -8.960  10.854  0.00  0.00    -0.354 N 
ATOM      2  N   UNL     1       8.670 -10.474  12.430  0.00  0.00    -0.372 N 
ATOM      3  N   UNL     1      10.506  -9.191  12.926  0.00  0.00    -0.372 N 
ATOM      4  C   UNL     1       9.545  -9.531  12.061  0.00  0.00    +0.166 C 
ATOM      5  H   UNL     1       8.703  -9.283  10.233  0.00  0.00    +0.163 HD
ATOM      6  H   UNL     1       8.725 -10.921  13.336  0.00  0.00    +0.159 HD
ATOM      7  H   UNL     1       7.911 -10.763  11.825  0.00  0.00    +0.159 HD
ATOM      8  H   UNL     1      11.201  -8.490  12.706  0.00  0.00    +0.159 HD
ATOM      9  H   UNL     1      10.585  -9.635  13.833  0.00  0.00    +0.159 HD
ENDROOT
BRANCH   1  10
ATOM     10  C   UNL     1      10.304  -7.885  10.377  0.00  0.00    +0.151 C 
BRANCH  10  11
ATOM     11  C   UNL     1       9.751  -7.343   9.088  0.00  0.00    -0.028 A 
ATOM     12  C   UNL     1       8.419  -7.590   8.725  0.00  0.00    +0.005 A 
ATOM     13  C   UNL     1      10.552  -6.574   8.229  0.00  0.00    +0.005 A 
ATOM     14  C   UNL     1       7.896  -7.061   7.543  0.00  0.00    +0.000 A 
ATOM     15  C   UNL     1      10.026  -6.048   7.049  0.00  0.00    +0.000 A 
ATOM     16  C   UNL     1       8.698  -6.290   6.708  0.00  0.00    +0.000 A 
ENDBRANCH  10  11
ENDBRANCH   1  10
TORSDOF 2
ENDMDL
MODEL 4
REMARK VINA RESULT:    -5.052     45.498     46.997
REMARK INTER + INTRA:          -5.777
REMARK INTER:                  -5.595
REMARK INTRA:                  -0.182
REMARK UNBOUND:                -0.134
REMARK  Name = 1550473
REMARK  2 active torsions:
REMARK  status: ('A' for Active; 'I' for Inactive)
REMARK    1  A    between atoms: N_1  and  C_4
REMARK    2  A    between atoms: C_4  and  C_5
REMARK                            x       y       z     vdW  Elec       q    Type
REMARK                         _______ _______ _______ _____ _____    ______ ____
ROOT
ATOM      1  N   UNL     1      -9.426  22.931 -36.100  0.00  0.00    -0.354 N 
ATOM      2  N   UNL     1      -8.677  25.055 -35.558  0.00  0.00    -0.372 N 
ATOM      3  N   UNL     1     -10.883  24.532 -35.200  0.00  0.00    -0.372 N 
ATOM      4  C   UNL     1      -9.670  24.159 -35.622  0.00  0.00    +0.166 C 
ATOM      5  H   UNL     1      -8.492  22.721 -36.432  0.00  0.00    +0.163 HD
ATOM      6  H   UNL     1      -8.830  25.988 -35.199  0.00  0.00    +0.159 HD
ATOM      7  H   UNL     1      -7.734  24.827 -35.848  0.00  0.00    +0.159 HD
ATOM      8  H   UNL     1     -11.675  23.904 -35.228  0.00  0.00    +0.159 HD
ATOM      9  H   UNL     1     -11.058  25.465 -34.848  0.00  0.00    +0.159 HD
ENDROOT
BRANCH   1  10
ATOM     10  C   UNL     1     -10.424  21.865 -36.162  0.00  0.00    +0.151 C 
BRANCH  10  11
ATOM     11  C   UNL     1     -10.274  20.980 -34.956  0.00  0.00    -0.028 A 
ATOM     12  C   UNL     1      -9.074  20.293 -34.722  0.00  0.00    +0.005 A 
ATOM     13  C   UNL     1     -11.326  20.829 -34.040  0.00  0.00    +0.005 A 
ATOM     14  C   UNL     1      -8.924  19.495 -33.585  0.00  0.00    +0.000 A 
ATOM     15  C   UNL     1     -11.172  20.030 -32.907  0.00  0.00    +0.000 A 
ATOM     16  C   UNL     1      -9.970  19.365 -32.679  0.00  0.00    +0.000 A 
ENDBRANCH  10  11
ENDBRANCH   1  10
TORSDOF 2
ENDMDL
MODEL 5
REMARK VINA RESULT:    -5.014     38.895     39.862
REMARK INTER + INTRA:          -5.734
REMARK INTER:                  -5.600
REMARK INTRA:                  -0.134
REMARK UNBOUND:                -0.134
REMARK  Name = 1550473
REMARK  2 active torsions:
REMARK  status: ('A' for Active; 'I' for Inactive)
REMARK    1  A    between atoms: N_1  and  C_4
REMARK    2  A    between atoms: C_4  and  C_5
REMARK                            x       y       z     vdW  Elec       q    Type
REMARK                         _______ _______ _______ _____ _____    ______ ____
ROOT
ATOM      1  N   UNL     1     -17.522  -9.687 -21.219  0.00  0.00    -0.354 N 
ATOM      2  N   UNL     1     -18.201 -11.133 -19.542  0.00  0.00    -0.372 N 
ATOM      3  N   UNL     1     -16.076 -11.332 -20.386  0.00  0.00    -0.372 N 
ATOM      4  C   UNL     1     -17.259 -10.709 -20.394  0.00  0.00    +0.166 C 
ATOM      5  H   UNL     1     -18.449  -9.277 -21.198  0.00  0.00    +0.163 HD
ATOM      6  H   UNL     1     -18.030 -11.899 -18.905  0.00  0.00    +0.159 HD
ATOM      7  H   UNL     1     -19.110 -10.691 -19.490  0.00  0.00    +0.159 HD
ATOM      8  H   UNL     1     -15.326 -11.064 -21.008  0.00  0.00    +0.159 HD
ATOM      9  H   UNL     1     -15.890 -12.109 -19.764  0.00  0.00    +0.159 HD
ENDROOT
BRANCH   1  10
ATOM     10  C   UNL     1     -16.549  -9.114 -22.148  0.00  0.00    +0.151 C 
BRANCH  10  11
ATOM     11  C   UNL     1     -17.114  -9.157 -23.540  0.00  0.00    -0.028 A 
ATOM     12  C   UNL     1     -16.554  -8.374 -24.560  0.00  0.00    +0.005 A 
ATOM     13  C   UNL     1     -18.206  -9.983 -23.848  0.00  0.00    +0.005 A 
ATOM     14  C   UNL     1     -17.059  -8.436 -25.861  0.00  0.00    +0.000 A 
ATOM     15  C   UNL     1     -18.709 -10.041 -25.148  0.00  0.00    +0.000 A 
ATOM     16  C   UNL     1     -18.133  -9.269 -26.155  0.00  0.00    +0.000 A 
ENDBRANCH  10  11
ENDBRANCH   1  10
TORSDOF 2
ENDMDL
MODEL 6
REMARK VINA RESULT:    -4.925     44.932     46.126
REMARK INTER + INTRA:          -5.635
REMARK INTER:                  -5.513
REMARK INTRA:                  -0.122
REMARK UNBOUND:                -0.134
REMARK  Name = 1550473
REMARK  2 active torsions:
REMARK  status: ('A' for Active; 'I' for Inactive)
REMARK    1  A    between atoms: N_1  and  C_4
REMARK    2  A    between atoms: C_4  and  C_5
REMARK                            x       y       z     vdW  Elec       q    Type
REMARK                         _______ _______ _______ _____ _____    ______ ____
ROOT
ATOM      1  N   UNL     1     -24.682  -6.300 -24.772  0.00  0.00    -0.354 N 
ATOM      2  N   UNL     1     -24.349  -4.208 -23.837  0.00  0.00    -0.372 N 
ATOM      3  N   UNL     1     -24.757  -5.990 -22.450  0.00  0.00    -0.372 N 
ATOM      4  C   UNL     1     -24.599  -5.514 -23.690  0.00  0.00    +0.166 C 
ATOM      5  H   UNL     1     -24.582  -5.873 -25.685  0.00  0.00    +0.163 HD
ATOM      6  H   UNL     1     -24.278  -3.591 -23.039  0.00  0.00    +0.159 HD
ATOM      7  H   UNL     1     -24.205  -3.792 -24.749  0.00  0.00    +0.159 HD
ATOM      8  H   UNL     1     -24.954  -6.966 -22.272  0.00  0.00    +0.159 HD
ATOM      9  H   UNL     1     -24.701  -5.386 -21.639  0.00  0.00    +0.159 HD
ENDROOT
BRANCH   1  10
ATOM     10  C   UNL     1     -24.897  -7.745 -24.718  0.00  0.00    +0.151 C 
BRANCH  10  11
ATOM     11  C   UNL     1     -24.966  -8.284 -26.120  0.00  0.00    -0.028 A 
ATOM     12  C   UNL     1     -24.541  -7.503 -27.205  0.00  0.00    +0.005 A 
ATOM     13  C   UNL     1     -25.451  -9.577 -26.371  0.00  0.00    +0.005 A 
ATOM     14  C   UNL     1     -24.577  -8.014 -28.505  0.00  0.00    +0.000 A 
ATOM     15  C   UNL     1     -25.487 -10.083 -27.670  0.00  0.00    +0.000 A 
ATOM     16  C   UNL     1     -25.047  -9.302 -28.736  0.00  0.00    +0.000 A 
ENDBRANCH  10  11
ENDBRANCH   1  10
TORSDOF 2
ENDMDL
MODEL 7
REMARK VINA RESULT:    -4.922      7.647      9.283
REMARK INTER + INTRA:          -5.632
REMARK INTER:                  -5.504
REMARK INTRA:                  -0.128
REMARK UNBOUND:                -0.134
REMARK  Name = 1550473
REMARK  2 active torsions:
REMARK  status: ('A' for Active; 'I' for Inactive)
REMARK    1  A    between atoms: N_1  and  C_4
REMARK    2  A    between atoms: C_4  and  C_5
REMARK                            x       y       z     vdW  Elec       q    Type
REMARK                         _______ _______ _______ _____ _____    ______ ____
ROOT
ATOM      1  N   UNL     1      11.526  -4.116   5.703  0.00  0.00    -0.354 N 
ATOM      2  N   UNL     1      13.105  -2.421   5.717  0.00  0.00    -0.372 N 
ATOM      3  N   UNL     1      11.136  -2.093   4.585  0.00  0.00    -0.372 N 
ATOM      4  C   UNL     1      11.910  -2.887   5.333  0.00  0.00    +0.166 C 
ATOM      5  H   UNL     1      12.171  -4.679   6.245  0.00  0.00    +0.163 HD
ATOM      6  H   UNL     1      13.420  -1.497   5.456  0.00  0.00    +0.159 HD
ATOM      7  H   UNL     1      13.729  -2.969   6.296  0.00  0.00    +0.159 HD
ATOM      8  H   UNL     1      10.225  -2.387   4.258  0.00  0.00    +0.159 HD
ATOM      9  H   UNL     1      11.439  -1.169   4.304  0.00  0.00    +0.159 HD
ENDROOT
BRANCH   1  10
ATOM     10  C   UNL     1      10.223  -4.696   5.383  0.00  0.00    +0.151 C 
BRANCH  10  11
ATOM     11  C   UNL     1       9.813  -5.625   6.493  0.00  0.00    -0.028 A 
ATOM     12  C   UNL     1       8.491  -6.083   6.587  0.00  0.00    +0.005 A 
ATOM     13  C   UNL     1      10.744  -6.055   7.451  0.00  0.00    +0.005 A 
ATOM     14  C   UNL     1       8.117  -6.969   7.600  0.00  0.00    +0.000 A 
ATOM     15  C   UNL     1      10.367  -6.940   8.461  0.00  0.00    +0.000 A 
ATOM     16  C   UNL     1       9.054  -7.398   8.534  0.00  0.00    +0.000 A 
ENDBRANCH  10  11
ENDBRANCH   1  10
TORSDOF 2
ENDMDL
MODEL 8
REMARK VINA RESULT:    -4.917      3.437      4.535
REMARK INTER + INTRA:          -5.626
REMARK INTER:                  -5.489
REMARK INTRA:                  -0.137
REMARK UNBOUND:                -0.134
REMARK  Name = 1550473
REMARK  2 active torsions:
REMARK  status: ('A' for Active; 'I' for Inactive)
REMARK    1  A    between atoms: N_1  and  C_4
REMARK    2  A    between atoms: C_4  and  C_5
REMARK                            x       y       z     vdW  Elec       q    Type
REMARK                         _______ _______ _______ _____ _____    ______ ____
ROOT
ATOM      1  N   UNL     1       7.952   4.644   4.205  0.00  0.00    -0.354 N 
ATOM      2  N   UNL     1       6.108   3.842   5.354  0.00  0.00    -0.372 N 
ATOM      3  N   UNL     1       8.058   2.635   5.407  0.00  0.00    -0.372 N 
ATOM      4  C   UNL     1       7.387   3.710   4.982  0.00  0.00    +0.166 C 
ATOM      5  H   UNL     1       7.380   5.420   3.891  0.00  0.00    +0.163 HD
ATOM      6  H   UNL     1       5.655   3.156   5.943  0.00  0.00    +0.159 HD
ATOM      7  H   UNL     1       5.552   4.643   5.077  0.00  0.00    +0.159 HD
ATOM      8  H   UNL     1       9.024   2.473   5.156  0.00  0.00    +0.159 HD
ATOM      9  H   UNL     1       7.619   1.931   5.987  0.00  0.00    +0.159 HD
ENDROOT
BRANCH   1  10
ATOM     10  C   UNL     1       9.353   4.621   3.787  0.00  0.00    +0.151 C 
BRANCH  10  11
ATOM     11  C   UNL     1       9.439   5.009   2.337  0.00  0.00    -0.028 A 
ATOM     12  C   UNL     1      10.560   5.697   1.849  0.00  0.00    +0.005 A 
ATOM     13  C   UNL     1       8.406   4.686   1.444  0.00  0.00    +0.005 A 
ATOM     14  C   UNL     1      10.654   6.031   0.496  0.00  0.00    +0.000 A 
ATOM     15  C   UNL     1       8.504   5.022   0.093  0.00  0.00    +0.000 A 
ATOM     16  C   UNL     1       9.629   5.692  -0.380  0.00  0.00    +0.000 A 
ENDBRANCH  10  11
ENDBRANCH   1  10
TORSDOF 2
ENDMDL
MODEL 9
REMARK VINA RESULT:    -4.902     39.603     40.622
REMARK INTER + INTRA:          -5.610
REMARK INTER:                  -5.485
REMARK INTRA:                  -0.125
REMARK UNBOUND:                -0.134
REMARK  Name = 1550473
REMARK  2 active torsions:
REMARK  status: ('A' for Active; 'I' for Inactive)
REMARK    1  A    between atoms: N_1  and  C_4
REMARK    2  A    between atoms: C_4  and  C_5
REMARK                            x       y       z     vdW  Elec       q    Type
REMARK                         _______ _______ _______ _____ _____    ______ ____
ROOT
ATOM      1  N   UNL     1     -17.232  -9.616 -23.420  0.00  0.00    -0.354 N 
ATOM      2  N   UNL     1     -17.676 -11.355 -21.956  0.00  0.00    -0.372 N 
ATOM      3  N   UNL     1     -15.947  -9.922 -21.485  0.00  0.00    -0.372 N 
ATOM      4  C   UNL     1     -16.946 -10.285 -22.295  0.00  0.00    +0.166 C 
ATOM      5  H   UNL     1     -17.984  -9.960 -24.007  0.00  0.00    +0.163 HD
ATOM      6  H   UNL     1     -17.486 -11.878 -21.111  0.00  0.00    +0.159 HD
ATOM      7  H   UNL     1     -18.456 -11.669 -22.520  0.00  0.00    +0.159 HD
ATOM      8  H   UNL     1     -15.355  -9.128 -21.687  0.00  0.00    +0.159 HD
ATOM      9  H   UNL     1     -15.734 -10.440 -20.641  0.00  0.00    +0.159 HD
ENDROOT
BRANCH   1  10
ATOM     10  C   UNL     1     -16.534  -8.407 -23.852  0.00  0.00    +0.151 C 
BRANCH  10  11
ATOM     11  C   UNL     1     -16.782  -8.194 -25.320  0.00  0.00    -0.028 A 
ATOM     12  C   UNL     1     -16.061  -7.224 -26.031  0.00  0.00    +0.005 A 
ATOM     13  C   UNL     1     -17.734  -8.964 -26.007  0.00  0.00    +0.005 A 
ATOM     14  C   UNL     1     -16.271  -7.046 -27.400  0.00  0.00    +0.000 A 
ATOM     15  C   UNL     1     -17.941  -8.783 -27.374  0.00  0.00    +0.000 A 
ATOM     16  C   UNL     1     -17.207  -7.825 -28.071  0.00  0.00    +0.000 A 
ENDBRANCH  10  11
ENDBRANCH   1  10
TORSDOF 2
ENDMDL
