MODEL 1
REMARK VINA RESULT:    -4.816      0.000      0.000
REMARK INTER + INTRA:          -5.505
REMARK INTER:                  -5.379
REMARK INTRA:                  -0.126
REMARK UNBOUND:                -0.126
REMARK  Name = 1550473
REMARK  2 active torsions:
REMARK  status: ('A' for Active; 'I' for Inactive)
REMARK    1  A    between atoms: N_1  and  C_4
REMARK    2  A    between atoms: C_4  and  C_5
REMARK                            x       y       z     vdW  Elec       q    Type
REMARK                         _______ _______ _______ _____ _____    ______ ____
ROOT
ATOM      1  N   UNL     1     -14.760  -3.538  -3.532  0.00  0.00    -0.354 N 
ATOM      2  N   UNL     1     -12.485  -3.961  -3.442  0.00  0.00    -0.372 N 
ATOM      3  N   UNL     1     -13.233  -2.170  -4.667  0.00  0.00    -0.372 N 
ATOM      4  C   UNL     1     -13.508  -3.218  -3.883  0.00  0.00    +0.166 C 
ATOM      5  H   UNL     1     -14.904  -4.362  -2.960  0.00  0.00    +0.163 HD
ATOM      6  H   UNL     1     -11.529  -3.742  -3.688  0.00  0.00    +0.159 HD
ATOM      7  H   UNL     1     -12.628  -4.757  -2.833  0.00  0.00    +0.159 HD
ATOM      8  H   UNL     1     -13.961  -1.574  -5.038  0.00  0.00    +0.159 HD
ATOM      9  H   UNL     1     -12.284  -1.942  -4.933  0.00  0.00    +0.159 HD
ENDROOT
BRANCH   1  10
ATOM     10  C   UNL     1     -15.940  -2.764  -3.914  0.00  0.00    +0.151 C 
BRANCH  10  11
ATOM     11  C   UNL     1     -17.155  -3.645  -3.829  0.00  0.00    -0.028 A 
ATOM     12  C   UNL     1     -17.039  -5.034  -3.986  0.00  0.00    +0.005 A 
ATOM     13  C   UNL     1     -18.425  -3.099  -3.587  0.00  0.00    +0.005 A 
ATOM     14  C   UNL     1     -18.163  -5.857  -3.878  0.00  0.00    +0.000 A 
ATOM     15  C   UNL     1     -19.545  -3.923  -3.481  0.00  0.00    +0.000 A 
ATOM     16  C   UNL     1     -19.413  -5.302  -3.624  0.00  0.00    +0.000 A 
ENDBRANCH  10  11
ENDBRANCH   1  10
TORSDOF 2
ENDMDL
MODEL 2
REMARK VINA RESULT:    -4.720     28.177     29.308
REMARK INTER + INTRA:          -5.397
REMARK INTER:                  -5.259
REMARK INTRA:                  -0.138
REMARK UNBOUND:                -0.126
REMARK  Name = 1550473
REMARK  2 active torsions:
REMARK  status: ('A' for Active; 'I' for Inactive)
REMARK    1  A    between atoms: N_1  and  C_4
REMARK    2  A    between atoms: C_4  and  C_5
REMARK                            x       y       z     vdW  Elec       q    Type
REMARK                         _______ _______ _______ _____ _____    ______ ____
ROOT
ATOM      1  N   UNL     1      10.217 -12.424   2.084  0.00  0.00    -0.354 N 
ATOM      2  N   UNL     1      11.101 -14.565   2.118  0.00  0.00    -0.372 N 
ATOM      3  N   UNL     1      11.031 -13.363   4.072  0.00  0.00    -0.372 N 
ATOM      4  C   UNL     1      10.778 -13.436   2.761  0.00  0.00    +0.166 C 
ATOM      5  H   UNL     1      10.079 -12.530   1.086  0.00  0.00    +0.163 HD
ATOM      6  H   UNL     1      11.522 -15.346   2.603  0.00  0.00    +0.159 HD
ATOM      7  H   UNL     1      10.920 -14.686   1.129  0.00  0.00    +0.159 HD
ATOM      8  H   UNL     1      10.816 -12.536   4.613  0.00  0.00    +0.159 HD
ATOM      9  H   UNL     1      11.462 -14.130   4.572  0.00  0.00    +0.159 HD
ENDROOT
BRANCH   1  10
ATOM     10  C   UNL     1       9.778 -11.173   2.700  0.00  0.00    +0.151 C 
BRANCH  10  11
ATOM     11  C   UNL     1      10.700 -10.065   2.270  0.00  0.00    -0.028 A 
ATOM     12  C   UNL     1      10.678  -8.826   2.928  0.00  0.00    +0.005 A 
ATOM     13  C   UNL     1      11.601 -10.249   1.211  0.00  0.00    +0.005 A 
ATOM     14  C   UNL     1      11.555  -7.806   2.549  0.00  0.00    +0.000 A 
ATOM     15  C   UNL     1      12.474  -9.228   0.835  0.00  0.00    +0.000 A 
ATOM     16  C   UNL     1      12.452  -8.008   1.506  0.00  0.00    +0.000 A 
ENDBRANCH  10  11
ENDBRANCH   1  10
TORSDOF 2
ENDMDL
MODEL 3
REMARK VINA RESULT:    -4.625     15.679     18.261
REMARK INTER + INTRA:          -5.291
REMARK INTER:                  -5.154
REMARK INTRA:                  -0.137
REMARK UNBOUND:                -0.126
REMARK  Name = 1550473
REMARK  2 active torsions:
REMARK  status: ('A' for Active; 'I' for Inactive)
REMARK    1  A    between atoms: N_1  and  C_4
REMARK    2  A    between atoms: C_4  and  C_5
REMARK                            x       y       z     vdW  Elec       q    Type
REMARK                         _______ _______ _______ _____ _____    ______ ____
ROOT
ATOM      1  N   UNL     1      -4.877   3.949 -12.966  0.00  0.00    -0.354 N 
ATOM      2  N   UNL     1      -4.246   2.029 -11.834  0.00  0.00    -0.372 N 
ATOM      3  N   UNL     1      -6.467   2.360 -12.304  0.00  0.00    -0.372 N 
ATOM      4  C   UNL     1      -5.204   2.792 -12.375  0.00  0.00    +0.166 C 
ATOM      5  H   UNL     1      -3.905   4.235 -12.960  0.00  0.00    +0.163 HD
ATOM      6  H   UNL     1      -4.461   1.149 -11.385  0.00  0.00    +0.159 HD
ATOM      7  H   UNL     1      -3.269   2.295 -11.870  0.00  0.00    +0.159 HD
ATOM      8  H   UNL     1      -7.237   2.891 -12.688  0.00  0.00    +0.159 HD
ATOM      9  H   UNL     1      -6.704   1.488 -11.849  0.00  0.00    +0.159 HD
ENDROOT
BRANCH   1  10
ATOM     10  C   UNL     1      -5.838   4.827 -13.632  0.00  0.00    +0.151 C 
BRANCH  10  11
ATOM     11  C   UNL     1      -5.270   5.261 -14.955  0.00  0.00    -0.028 A 
ATOM     12  C   UNL     1      -5.430   6.582 -15.399  0.00  0.00    +0.005 A 
ATOM     13  C   UNL     1      -4.567   4.358 -15.767  0.00  0.00    +0.005 A 
ATOM     14  C   UNL     1      -4.877   6.994 -16.614  0.00  0.00    +0.000 A 
ATOM     15  C   UNL     1      -4.018   4.773 -16.980  0.00  0.00    +0.000 A 
ATOM     16  C   UNL     1      -4.170   6.091 -17.402  0.00  0.00    +0.000 A 
ENDBRANCH  10  11
ENDBRANCH   1  10
TORSDOF 2
ENDMDL
MODEL 4
REMARK VINA RESULT:    -4.584     28.889     30.415
REMARK INTER + INTRA:          -5.245
REMARK INTER:                  -5.109
REMARK INTRA:                  -0.137
REMARK UNBOUND:                -0.126
REMARK  Name = 1550473
REMARK  2 active torsions:
REMARK  status: ('A' for Active; 'I' for Inactive)
REMARK    1  A    between atoms: N_1  and  C_4
REMARK    2  A    between atoms: C_4  and  C_5
REMARK                            x       y       z     vdW  Elec       q    Type
REMARK                         _______ _______ _______ _____ _____    ______ ____
ROOT
ATOM      1  N   UNL     1      14.410  -6.287   0.941  0.00  0.00    -0.354 N 
ATOM      2  N   UNL     1      16.415  -6.226  -0.216  0.00  0.00    -0.372 N 
ATOM      3  N   UNL     1      16.454  -6.133   2.077  0.00  0.00    -0.372 N 
ATOM      4  C   UNL     1      15.747  -6.215   0.944  0.00  0.00    +0.166 C 
ATOM      5  H   UNL     1      13.931  -6.316   0.048  0.00  0.00    +0.163 HD
ATOM      6  H   UNL     1      17.425  -6.177  -0.245  0.00  0.00    +0.159 HD
ATOM      7  H   UNL     1      15.937  -6.302  -1.105  0.00  0.00    +0.159 HD
ATOM      8  H   UNL     1      16.009  -6.115   2.985  0.00  0.00    +0.159 HD
ATOM      9  H   UNL     1      17.464  -6.072   2.068  0.00  0.00    +0.159 HD
ENDROOT
BRANCH   1  10
ATOM     10  C   UNL     1      13.590  -6.336   2.151  0.00  0.00    +0.151 C 
BRANCH  10  11
ATOM     11  C   UNL     1      12.613  -7.474   2.036  0.00  0.00    -0.028 A 
ATOM     12  C   UNL     1      12.920  -8.600   1.259  0.00  0.00    +0.005 A 
ATOM     13  C   UNL     1      11.381  -7.434   2.707  0.00  0.00    +0.005 A 
ATOM     14  C   UNL     1      12.026  -9.670   1.176  0.00  0.00    +0.000 A 
ATOM     15  C   UNL     1      10.491  -8.504   2.621  0.00  0.00    +0.000 A 
ATOM     16  C   UNL     1      10.814  -9.623   1.858  0.00  0.00    +0.000 A 
ENDBRANCH  10  11
ENDBRANCH   1  10
TORSDOF 2
ENDMDL
MODEL 5
REMARK VINA RESULT:    -4.489     12.680     13.931
REMARK INTER + INTRA:          -5.139
REMARK INTER:                  -5.014
REMARK INTRA:                  -0.125
REMARK UNBOUND:                -0.126
REMARK  Name = 1550473
REMARK  2 active torsions:
REMARK  status: ('A' for Active; 'I' for Inactive)
REMARK    1  A    between atoms: N_1  and  C_4
REMARK    2  A    between atoms: C_4  and  C_5
REMARK                            x       y       z     vdW  Elec       q    Type
REMARK                         _______ _______ _______ _____ _____    ______ ____
ROOT
ATOM      1  N   UNL     1      -7.517   2.269 -12.193  0.00  0.00    -0.354 N 
ATOM      2  N   UNL     1      -6.857   0.087 -11.783  0.00  0.00    -0.372 N 
ATOM      3  N   UNL     1      -5.248   1.690 -12.103  0.00  0.00    -0.372 N 
ATOM      4  C   UNL     1      -6.542   1.364 -12.029  0.00  0.00    +0.166 C 
ATOM      5  H   UNL     1      -8.479   1.952 -12.155  0.00  0.00    +0.163 HD
ATOM      6  H   UNL     1      -6.144  -0.617 -11.651  0.00  0.00    +0.159 HD
ATOM      7  H   UNL     1      -7.819  -0.218 -11.700  0.00  0.00    +0.159 HD
ATOM      8  H   UNL     1      -4.944   2.636 -12.293  0.00  0.00    +0.159 HD
ATOM      9  H   UNL     1      -4.519   0.997 -11.986  0.00  0.00    +0.159 HD
ENDROOT
BRANCH   1  10
ATOM     10  C   UNL     1      -7.280   3.695 -12.412  0.00  0.00    +0.151 C 
BRANCH  10  11
ATOM     11  C   UNL     1      -8.510   4.463 -12.013  0.00  0.00    -0.028 A 
ATOM     12  C   UNL     1      -9.404   3.936 -11.070  0.00  0.00    +0.005 A 
ATOM     13  C   UNL     1      -8.783   5.722 -12.570  0.00  0.00    +0.005 A 
ATOM     14  C   UNL     1     -10.530   4.663 -10.676  0.00  0.00    +0.000 A 
ATOM     15  C   UNL     1      -9.909   6.444 -12.175  0.00  0.00    +0.000 A 
ATOM     16  C   UNL     1     -10.781   5.916 -11.227  0.00  0.00    +0.000 A 
ENDBRANCH  10  11
ENDBRANCH   1  10
TORSDOF 2
ENDMDL
MODEL 6
REMARK VINA RESULT:    -4.433     28.261     29.866
REMARK INTER + INTRA:          -5.076
REMARK INTER:                  -4.947
REMARK INTRA:                  -0.129
REMARK UNBOUND:                -0.126
REMARK  Name = 1550473
REMARK  2 active torsions:
REMARK  status: ('A' for Active; 'I' for Inactive)
REMARK    1  A    between atoms: N_1  and  C_4
REMARK    2  A    between atoms: C_4  and  C_5
REMARK                            x       y       z     vdW  Elec       q    Type
REMARK                         _______ _______ _______ _____ _____    ______ ____
ROOT
ATOM      1  N   UNL     1      10.937  -9.895   3.467  0.00  0.00    -0.354 N 
ATOM      2  N   UNL     1      10.726 -12.173   3.830  0.00  0.00    -0.372 N 
ATOM      3  N   UNL     1       9.679 -11.237   2.015  0.00  0.00    -0.372 N 
ATOM      4  C   UNL     1      10.447 -11.086   3.100  0.00  0.00    +0.166 C 
ATOM      5  H   UNL     1      11.488  -9.843   4.317  0.00  0.00    +0.163 HD
ATOM      6  H   UNL     1      10.374 -13.086   3.575  0.00  0.00    +0.159 HD
ATOM      7  H   UNL     1      11.315 -12.125   4.653  0.00  0.00    +0.159 HD
ATOM      8  H   UNL     1       9.427 -10.456   1.425  0.00  0.00    +0.159 HD
ATOM      9  H   UNL     1       9.307 -12.141   1.751  0.00  0.00    +0.159 HD
ENDROOT
BRANCH   1  10
ATOM     10  C   UNL     1      10.737  -8.660   2.712  0.00  0.00    +0.151 C 
BRANCH  10  11
ATOM     11  C   UNL     1      12.003  -7.849   2.751  0.00  0.00    -0.028 A 
ATOM     12  C   UNL     1      12.933  -8.032   3.784  0.00  0.00    +0.005 A 
ATOM     13  C   UNL     1      12.280  -6.901   1.754  0.00  0.00    +0.005 A 
ATOM     14  C   UNL     1      14.123  -7.300   3.805  0.00  0.00    +0.000 A 
ATOM     15  C   UNL     1      13.469  -6.172   1.779  0.00  0.00    +0.000 A 
ATOM     16  C   UNL     1      14.391  -6.374   2.802  0.00  0.00    +0.000 A 
ENDBRANCH  10  11
ENDBRANCH   1  10
TORSDOF 2
ENDMDL
MODEL 7
REMARK VINA RESULT:    -4.351     32.258     33.143
REMARK INTER + INTRA:          -4.985
REMARK INTER:                  -4.961
REMARK INTRA:                  -0.024
REMARK UNBOUND:                -0.126
REMARK  Name = 1550473
REMARK  2 active torsions:
REMARK  status: ('A' for Active; 'I' for Inactive)
REMARK    1  A    between atoms: N_1  and  C_4
REMARK    2  A    between atoms: C_4  and  C_5
REMARK                            x       y       z     vdW  Elec       q    Type
REMARK                         _______ _______ _______ _____ _____    ______ ____
ROOT
ATOM      1  N   UNL     1       8.856   8.138 -23.099  0.00  0.00    -0.354 N 
ATOM      2  N   UNL     1       8.824   5.875 -23.594  0.00  0.00    -0.372 N 
ATOM      3  N   UNL     1       8.324   6.550 -21.459  0.00  0.00    -0.372 N 
ATOM      4  C   UNL     1       8.668   6.869 -22.711  0.00  0.00    +0.166 C 
ATOM      5  H   UNL     1       9.145   8.311 -24.054  0.00  0.00    +0.163 HD
ATOM      6  H   UNL     1       8.686   4.909 -23.332  0.00  0.00    +0.159 HD
ATOM      7  H   UNL     1       9.069   6.055 -24.560  0.00  0.00    +0.159 HD
ATOM      8  H   UNL     1       8.196   7.253 -20.743  0.00  0.00    +0.159 HD
ATOM      9  H   UNL     1       8.192   5.588 -21.174  0.00  0.00    +0.159 HD
ENDROOT
BRANCH   1  10
ATOM     10  C   UNL     1       8.658   9.296 -22.229  0.00  0.00    +0.151 C 
BRANCH  10  11
ATOM     11  C   UNL     1       7.363   9.968 -22.593  0.00  0.00    -0.028 A 
ATOM     12  C   UNL     1       7.171  11.333 -22.332  0.00  0.00    +0.005 A 
ATOM     13  C   UNL     1       6.326   9.247 -23.205  0.00  0.00    +0.005 A 
ATOM     14  C   UNL     1       5.979  11.964 -22.698  0.00  0.00    +0.000 A 
ATOM     15  C   UNL     1       5.137   9.881 -23.567  0.00  0.00    +0.000 A 
ATOM     16  C   UNL     1       4.966  11.240 -23.316  0.00  0.00    +0.000 A 
ENDBRANCH  10  11
ENDBRANCH   1  10
TORSDOF 2
ENDMDL
MODEL 8
REMARK VINA RESULT:    -4.296     35.130     36.149
REMARK INTER + INTRA:          -4.923
REMARK INTER:                  -4.808
REMARK INTRA:                  -0.115
REMARK UNBOUND:                -0.126
REMARK  Name = 1550473
REMARK  2 active torsions:
REMARK  status: ('A' for Active; 'I' for Inactive)
REMARK    1  A    between atoms: N_1  and  C_4
REMARK    2  A    between atoms: C_4  and  C_5
REMARK                            x       y       z     vdW  Elec       q    Type
REMARK                         _______ _______ _______ _____ _____    ______ ____
ROOT
ATOM      1  N   UNL     1      17.244   6.772  -0.550  0.00  0.00    -0.354 N 
ATOM      2  N   UNL     1      16.470   5.817   1.413  0.00  0.00    -0.372 N 
ATOM      3  N   UNL     1      16.795   8.087   1.337  0.00  0.00    -0.372 N 
ATOM      4  C   UNL     1      16.842   6.901   0.721  0.00  0.00    +0.166 C 
ATOM      5  H   UNL     1      17.286   5.842  -0.950  0.00  0.00    +0.163 HD
ATOM      6  H   UNL     1      16.158   5.884   2.373  0.00  0.00    +0.159 HD
ATOM      7  H   UNL     1      16.468   4.894   0.996  0.00  0.00    +0.159 HD
ATOM      8  H   UNL     1      17.069   8.943   0.873  0.00  0.00    +0.159 HD
ATOM      9  H   UNL     1      16.498   8.173   2.301  0.00  0.00    +0.159 HD
ENDROOT
BRANCH   1  10
ATOM     10  C   UNL     1      17.619   7.896  -1.407  0.00  0.00    +0.151 C 
BRANCH  10  11
ATOM     11  C   UNL     1      18.114   7.365  -2.724  0.00  0.00    -0.028 A 
ATOM     12  C   UNL     1      17.600   6.170  -3.248  0.00  0.00    +0.005 A 
ATOM     13  C   UNL     1      19.093   8.056  -3.455  0.00  0.00    +0.005 A 
ATOM     14  C   UNL     1      18.038   5.692  -4.486  0.00  0.00    +0.000 A 
ATOM     15  C   UNL     1      19.528   7.575  -4.690  0.00  0.00    +0.000 A 
ATOM     16  C   UNL     1      18.999   6.395  -5.206  0.00  0.00    +0.000 A 
ENDBRANCH  10  11
ENDBRANCH   1  10
TORSDOF 2
ENDMDL
MODEL 9
REMARK VINA RESULT:    -4.270     15.285     16.538
REMARK INTER + INTRA:          -4.895
REMARK INTER:                  -4.766
REMARK INTRA:                  -0.129
REMARK UNBOUND:                -0.126
REMARK  Name = 1550473
REMARK  2 active torsions:
REMARK  status: ('A' for Active; 'I' for Inactive)
REMARK    1  A    between atoms: N_1  and  C_4
REMARK    2  A    between atoms: C_4  and  C_5
REMARK                            x       y       z     vdW  Elec       q    Type
REMARK                         _______ _______ _______ _____ _____    ______ ____
ROOT
ATOM      1  N   UNL     1     -12.004 -19.743   2.527  0.00  0.00    -0.354 N 
ATOM      2  N   UNL     1     -10.706 -19.825   4.443  0.00  0.00    -0.372 N 
ATOM      3  N   UNL     1      -9.696 -20.130   2.405  0.00  0.00    -0.372 N 
ATOM      4  C   UNL     1     -10.809 -19.899   3.110  0.00  0.00    +0.166 C 
ATOM      5  H   UNL     1     -12.814 -19.601   3.119  0.00  0.00    +0.163 HD
ATOM      6  H   UNL     1      -9.816 -19.936   4.911  0.00  0.00    +0.159 HD
ATOM      7  H   UNL     1     -11.510 -19.638   5.030  0.00  0.00    +0.159 HD
ATOM      8  H   UNL     1      -9.707 -20.203   1.396  0.00  0.00    +0.159 HD
ATOM      9  H   UNL     1      -8.799 -20.255   2.856  0.00  0.00    +0.159 HD
ENDROOT
BRANCH   1  10
ATOM     10  C   UNL     1     -12.216 -19.752   1.080  0.00  0.00    +0.151 C 
BRANCH  10  11
ATOM     11  C   UNL     1     -13.444 -18.946   0.758  0.00  0.00    -0.028 A 
ATOM     12  C   UNL     1     -14.115 -18.238   1.765  0.00  0.00    +0.005 A 
ATOM     13  C   UNL     1     -13.938 -18.882  -0.554  0.00  0.00    +0.005 A 
ATOM     14  C   UNL     1     -15.238 -17.465   1.461  0.00  0.00    +0.000 A 
ATOM     15  C   UNL     1     -15.060 -18.110  -0.853  0.00  0.00    +0.000 A 
ATOM     16  C   UNL     1     -15.709 -17.400   0.154  0.00  0.00    +0.000 A 
ENDBRANCH  10  11
ENDBRANCH   1  10
TORSDOF 2
ENDMDL
