MODEL 1
REMARK VINA RESULT:    -5.404      0.000      0.000
REMARK INTER + INTRA:          -6.163
REMARK INTER:                  -6.036
REMARK INTRA:                  -0.127
REMARK UNBOUND:                -0.127
REMARK  Name = 1550473
REMARK  2 active torsions:
REMARK  status: ('A' for Active; 'I' for Inactive)
REMARK    1  A    between atoms: N_1  and  C_4
REMARK    2  A    between atoms: C_4  and  C_5
REMARK                            x       y       z     vdW  Elec       q    Type
REMARK                         _______ _______ _______ _____ _____    ______ ____
ROOT
ATOM      1  N   UNL     1      -3.847  -3.131   5.731  0.00  0.00    -0.354 N 
ATOM      2  N   UNL     1      -1.948  -3.113   7.056  0.00  0.00    -0.372 N 
ATOM      3  N   UNL     1      -2.566  -5.070   6.029  0.00  0.00    -0.372 N 
ATOM      4  C   UNL     1      -2.799  -3.774   6.263  0.00  0.00    +0.166 C 
ATOM      5  H   UNL     1      -3.986  -2.156   5.971  0.00  0.00    +0.163 HD
ATOM      6  H   UNL     1      -1.147  -3.571   7.469  0.00  0.00    +0.159 HD
ATOM      7  H   UNL     1      -2.063  -2.128   7.258  0.00  0.00    +0.159 HD
ATOM      8  H   UNL     1      -3.174  -5.627   5.444  0.00  0.00    +0.159 HD
ATOM      9  H   UNL     1      -1.775  -5.549   6.442  0.00  0.00    +0.159 HD
ENDROOT
BRANCH   1  10
ATOM     10  C   UNL     1      -4.803  -3.745   4.811  0.00  0.00    +0.151 C 
BRANCH  10  11
ATOM     11  C   UNL     1      -6.096  -2.979   4.862  0.00  0.00    -0.028 A 
ATOM     12  C   UNL     1      -6.194  -1.796   5.610  0.00  0.00    +0.005 A 
ATOM     13  C   UNL     1      -7.226  -3.427   4.161  0.00  0.00    +0.005 A 
ATOM     14  C   UNL     1      -7.386  -1.069   5.634  0.00  0.00    +0.000 A 
ATOM     15  C   UNL     1      -8.414  -2.698   4.188  0.00  0.00    +0.000 A 
ATOM     16  C   UNL     1      -8.493  -1.518   4.923  0.00  0.00    +0.000 A 
ENDBRANCH  10  11
ENDBRANCH   1  10
TORSDOF 2
ENDMDL
MODEL 2
REMARK VINA RESULT:    -5.248     15.246     16.547
REMARK INTER + INTRA:          -5.989
REMARK INTER:                  -5.878
REMARK INTRA:                  -0.111
REMARK UNBOUND:                -0.127
REMARK  Name = 1550473
REMARK  2 active torsions:
REMARK  status: ('A' for Active; 'I' for Inactive)
REMARK    1  A    between atoms: N_1  and  C_4
REMARK    2  A    between atoms: C_4  and  C_5
REMARK                            x       y       z     vdW  Elec       q    Type
REMARK                         _______ _______ _______ _____ _____    ______ ____
ROOT
ATOM      1  N   UNL     1       0.738  -5.523  -7.874  0.00  0.00    -0.354 N 
ATOM      2  N   UNL     1      -0.552  -3.677  -7.336  0.00  0.00    -0.372 N 
ATOM      3  N   UNL     1      -1.045  -5.696  -6.364  0.00  0.00    -0.372 N 
ATOM      4  C   UNL     1      -0.279  -4.979  -7.193  0.00  0.00    +0.166 C 
ATOM      5  H   UNL     1       1.262  -4.933  -8.510  0.00  0.00    +0.163 HD
ATOM      6  H   UNL     1      -1.312  -3.238  -6.833  0.00  0.00    +0.159 HD
ATOM      7  H   UNL     1       0.002  -3.079  -7.938  0.00  0.00    +0.159 HD
ATOM      8  H   UNL     1      -0.895  -6.685  -6.216  0.00  0.00    +0.159 HD
ATOM      9  H   UNL     1      -1.817  -5.277  -5.860  0.00  0.00    +0.159 HD
ENDROOT
BRANCH   1  10
ATOM     10  C   UNL     1       1.152  -6.920  -7.748  0.00  0.00    +0.151 C 
BRANCH  10  11
ATOM     11  C   UNL     1       2.544  -7.071  -8.297  0.00  0.00    -0.028 A 
ATOM     12  C   UNL     1       3.581  -6.241  -7.848  0.00  0.00    +0.005 A 
ATOM     13  C   UNL     1       2.833  -8.046  -9.264  0.00  0.00    +0.005 A 
ATOM     14  C   UNL     1       4.880  -6.400  -8.335  0.00  0.00    +0.000 A 
ATOM     15  C   UNL     1       4.132  -8.202  -9.749  0.00  0.00    +0.000 A 
ATOM     16  C   UNL     1       5.155  -7.381  -9.283  0.00  0.00    +0.000 A 
ENDBRANCH  10  11
ENDBRANCH   1  10
TORSDOF 2
ENDMDL
MODEL 3
REMARK VINA RESULT:    -5.240      0.966      2.020
REMARK INTER + INTRA:          -5.980
REMARK INTER:                  -5.837
REMARK INTRA:                  -0.143
REMARK UNBOUND:                -0.127
REMARK  Name = 1550473
REMARK  2 active torsions:
REMARK  status: ('A' for Active; 'I' for Inactive)
REMARK    1  A    between atoms: N_1  and  C_4
REMARK    2  A    between atoms: C_4  and  C_5
REMARK                            x       y       z     vdW  Elec       q    Type
REMARK                         _______ _______ _______ _____ _____    ______ ____
ROOT
ATOM      1  N   UNL     1      -2.967  -3.508   5.180  0.00  0.00    -0.354 N 
ATOM      2  N   UNL     1      -1.821  -5.237   6.209  0.00  0.00    -0.372 N 
ATOM      3  N   UNL     1      -1.918  -3.196   7.253  0.00  0.00    -0.372 N 
ATOM      4  C   UNL     1      -2.242  -3.967   6.209  0.00  0.00    +0.166 C 
ATOM      5  H   UNL     1      -3.154  -4.134   4.406  0.00  0.00    +0.163 HD
ATOM      6  H   UNL     1      -1.275  -5.613   6.973  0.00  0.00    +0.159 HD
ATOM      7  H   UNL     1      -2.047  -5.874   5.455  0.00  0.00    +0.159 HD
ATOM      8  H   UNL     1      -2.201  -2.227   7.311  0.00  0.00    +0.159 HD
ATOM      9  H   UNL     1      -1.363  -3.551   8.021  0.00  0.00    +0.159 HD
ENDROOT
BRANCH   1  10
ATOM     10  C   UNL     1      -3.520  -2.157   5.108  0.00  0.00    +0.151 C 
BRANCH  10  11
ATOM     11  C   UNL     1      -5.015  -2.245   4.964  0.00  0.00    -0.028 A 
ATOM     12  C   UNL     1      -5.603  -3.331   4.299  0.00  0.00    +0.005 A 
ATOM     13  C   UNL     1      -5.848  -1.249   5.496  0.00  0.00    +0.005 A 
ATOM     14  C   UNL     1      -6.993  -3.428   4.191  0.00  0.00    +0.000 A 
ATOM     15  C   UNL     1      -7.235  -1.349   5.385  0.00  0.00    +0.000 A 
ATOM     16  C   UNL     1      -7.807  -2.440   4.735  0.00  0.00    +0.000 A 
ENDBRANCH  10  11
ENDBRANCH   1  10
TORSDOF 2
ENDMDL
MODEL 4
REMARK VINA RESULT:    -5.151     17.080     18.609
REMARK INTER + INTRA:          -5.881
REMARK INTER:                  -5.764
REMARK INTRA:                  -0.116
REMARK UNBOUND:                -0.127
REMARK  Name = 1550473
REMARK  2 active torsions:
REMARK  status: ('A' for Active; 'I' for Inactive)
REMARK    1  A    between atoms: N_1  and  C_4
REMARK    2  A    between atoms: C_4  and  C_5
REMARK                            x       y       z     vdW  Elec       q    Type
REMARK                         _______ _______ _______ _____ _____    ______ ____
ROOT
ATOM      1  N   UNL     1       4.203  -6.029  -8.021  0.00  0.00    -0.354 N 
ATOM      2  N   UNL     1       2.242  -4.909  -7.507  0.00  0.00    -0.372 N 
ATOM      3  N   UNL     1       2.113  -6.989  -8.469  0.00  0.00    -0.372 N 
ATOM      4  C   UNL     1       2.864  -5.985  -8.004  0.00  0.00    +0.166 C 
ATOM      5  H   UNL     1       4.715  -5.223  -7.681  0.00  0.00    +0.163 HD
ATOM      6  H   UNL     1       1.233  -4.849  -7.478  0.00  0.00    +0.159 HD
ATOM      7  H   UNL     1       2.756  -4.125  -7.126  0.00  0.00    +0.159 HD
ATOM      8  H   UNL     1       2.521  -7.826  -8.862  0.00  0.00    +0.159 HD
ATOM      9  H   UNL     1       1.102  -6.943  -8.459  0.00  0.00    +0.159 HD
ENDROOT
BRANCH   1  10
ATOM     10  C   UNL     1       4.978  -7.176  -8.490  0.00  0.00    +0.151 C 
BRANCH  10  11
ATOM     11  C   UNL     1       6.443  -6.845  -8.411  0.00  0.00    -0.028 A 
ATOM     12  C   UNL     1       6.919  -5.947  -7.445  0.00  0.00    +0.005 A 
ATOM     13  C   UNL     1       7.361  -7.431  -9.296  0.00  0.00    +0.005 A 
ATOM     14  C   UNL     1       8.283  -5.662  -7.352  0.00  0.00    +0.000 A 
ATOM     15  C   UNL     1       8.722  -7.143  -9.201  0.00  0.00    +0.000 A 
ATOM     16  C   UNL     1       9.183  -6.261  -8.227  0.00  0.00    +0.000 A 
ENDBRANCH  10  11
ENDBRANCH   1  10
TORSDOF 2
ENDMDL
MODEL 5
REMARK VINA RESULT:    -5.107     15.044     15.337
REMARK INTER + INTRA:          -5.831
REMARK INTER:                  -5.699
REMARK INTRA:                  -0.133
REMARK UNBOUND:                -0.127
REMARK  Name = 1550473
REMARK  2 active torsions:
REMARK  status: ('A' for Active; 'I' for Inactive)
REMARK    1  A    between atoms: N_1  and  C_4
REMARK    2  A    between atoms: C_4  and  C_5
REMARK                            x       y       z     vdW  Elec       q    Type
REMARK                         _______ _______ _______ _____ _____    ______ ____
ROOT
ATOM      1  N   UNL     1       7.558   5.136   7.559  0.00  0.00    -0.354 N 
ATOM      2  N   UNL     1       8.160   2.900   7.500  0.00  0.00    -0.372 N 
ATOM      3  N   UNL     1       7.240   3.752   9.422  0.00  0.00    -0.372 N 
ATOM      4  C   UNL     1       7.648   3.944   8.163  0.00  0.00    +0.166 C 
ATOM      5  H   UNL     1       7.913   5.224   6.613  0.00  0.00    +0.163 HD
ATOM      6  H   UNL     1       8.237   1.988   7.929  0.00  0.00    +0.159 HD
ATOM      7  H   UNL     1       8.471   2.980   6.540  0.00  0.00    +0.159 HD
ATOM      8  H   UNL     1       6.850   4.500   9.979  0.00  0.00    +0.159 HD
ATOM      9  H   UNL     1       7.320   2.849   9.873  0.00  0.00    +0.159 HD
ENDROOT
BRANCH   1  10
ATOM     10  C   UNL     1       6.968   6.323   8.174  0.00  0.00    +0.151 C 
BRANCH  10  11
ATOM     11  C   UNL     1       6.271   7.131   7.114  0.00  0.00    -0.028 A 
ATOM     12  C   UNL     1       5.589   8.310   7.451  0.00  0.00    +0.005 A 
ATOM     13  C   UNL     1       6.293   6.726   5.771  0.00  0.00    +0.005 A 
ATOM     14  C   UNL     1       4.967   9.076   6.462  0.00  0.00    +0.000 A 
ATOM     15  C   UNL     1       5.670   7.494   4.787  0.00  0.00    +0.000 A 
ATOM     16  C   UNL     1       5.009   8.670   5.133  0.00  0.00    +0.000 A 
ENDBRANCH  10  11
ENDBRANCH   1  10
TORSDOF 2
ENDMDL
MODEL 6
REMARK VINA RESULT:    -5.021     31.691     32.164
REMARK INTER + INTRA:          -5.735
REMARK INTER:                  -5.613
REMARK INTRA:                  -0.122
REMARK UNBOUND:                -0.127
REMARK  Name = 1550473
REMARK  2 active torsions:
REMARK  status: ('A' for Active; 'I' for Inactive)
REMARK    1  A    between atoms: N_1  and  C_4
REMARK    2  A    between atoms: C_4  and  C_5
REMARK                            x       y       z     vdW  Elec       q    Type
REMARK                         _______ _______ _______ _____ _____    ______ ____
ROOT
ATOM      1  N   UNL     1      20.319  -2.606 -13.839  0.00  0.00    -0.354 N 
ATOM      2  N   UNL     1      21.852  -0.902 -13.507  0.00  0.00    -0.372 N 
ATOM      3  N   UNL     1      20.003  -0.493 -14.802  0.00  0.00    -0.372 N 
ATOM      4  C   UNL     1      20.713  -1.343 -14.053  0.00  0.00    +0.166 C 
ATOM      5  H   UNL     1      20.918  -3.210 -13.287  0.00  0.00    +0.163 HD
ATOM      6  H   UNL     1      22.173   0.047 -13.648  0.00  0.00    +0.159 HD
ATOM      7  H   UNL     1      22.425  -1.494 -12.917  0.00  0.00    +0.159 HD
ATOM      8  H   UNL     1      19.137  -0.766 -15.247  0.00  0.00    +0.159 HD
ATOM      9  H   UNL     1      20.313   0.457 -14.964  0.00  0.00    +0.159 HD
ENDROOT
BRANCH   1  10
ATOM     10  C   UNL     1      19.068  -3.169 -14.344  0.00  0.00    +0.151 C 
BRANCH  10  11
ATOM     11  C   UNL     1      19.163  -4.670 -14.326  0.00  0.00    -0.028 A 
ATOM     12  C   UNL     1      20.135  -5.313 -13.546  0.00  0.00    +0.005 A 
ATOM     13  C   UNL     1      18.280  -5.454 -15.083  0.00  0.00    +0.005 A 
ATOM     14  C   UNL     1      20.204  -6.708 -13.506  0.00  0.00    +0.000 A 
ATOM     15  C   UNL     1      18.352  -6.847 -15.042  0.00  0.00    +0.000 A 
ATOM     16  C   UNL     1      19.313  -7.473 -14.251  0.00  0.00    +0.000 A 
ENDBRANCH  10  11
ENDBRANCH   1  10
TORSDOF 2
ENDMDL
MODEL 7
REMARK VINA RESULT:    -5.013      3.757      5.081
REMARK INTER + INTRA:          -5.727
REMARK INTER:                  -5.567
REMARK INTRA:                  -0.160
REMARK UNBOUND:                -0.127
REMARK  Name = 1550473
REMARK  2 active torsions:
REMARK  status: ('A' for Active; 'I' for Inactive)
REMARK    1  A    between atoms: N_1  and  C_4
REMARK    2  A    between atoms: C_4  and  C_5
REMARK                            x       y       z     vdW  Elec       q    Type
REMARK                         _______ _______ _______ _____ _____    ______ ____
ROOT
ATOM      1  N   UNL     1      -6.932  -3.815   1.459  0.00  0.00    -0.354 N 
ATOM      2  N   UNL     1      -7.492  -3.158  -0.690  0.00  0.00    -0.372 N 
ATOM      3  N   UNL     1      -9.059  -4.254   0.578  0.00  0.00    -0.372 N 
ATOM      4  C   UNL     1      -7.826  -3.748   0.464  0.00  0.00    +0.166 C 
ATOM      5  H   UNL     1      -6.004  -3.440   1.299  0.00  0.00    +0.163 HD
ATOM      6  H   UNL     1      -8.147  -3.089  -1.457  0.00  0.00    +0.159 HD
ATOM      7  H   UNL     1      -6.579  -2.742  -0.831  0.00  0.00    +0.159 HD
ATOM      8  H   UNL     1      -9.371  -4.717   1.421  0.00  0.00    +0.159 HD
ATOM      9  H   UNL     1      -9.725  -4.205  -0.183  0.00  0.00    +0.159 HD
ENDROOT
BRANCH   1  10
ATOM     10  C   UNL     1      -7.213  -4.389   2.774  0.00  0.00    +0.151 C 
BRANCH  10  11
ATOM     11  C   UNL     1      -7.276  -3.282   3.790  0.00  0.00    -0.028 A 
ATOM     12  C   UNL     1      -8.398  -2.443   3.860  0.00  0.00    +0.005 A 
ATOM     13  C   UNL     1      -6.219  -3.070   4.688  0.00  0.00    +0.005 A 
ATOM     14  C   UNL     1      -8.470  -1.434   4.823  0.00  0.00    +0.000 A 
ATOM     15  C   UNL     1      -6.295  -2.061   5.648  0.00  0.00    +0.000 A 
ATOM     16  C   UNL     1      -7.421  -1.245   5.717  0.00  0.00    +0.000 A 
ENDBRANCH  10  11
ENDBRANCH   1  10
TORSDOF 2
ENDMDL
MODEL 8
REMARK VINA RESULT:    -4.957      1.328      2.151
REMARK INTER + INTRA:          -5.664
REMARK INTER:                  -5.526
REMARK INTRA:                  -0.138
REMARK UNBOUND:                -0.127
REMARK  Name = 1550473
REMARK  2 active torsions:
REMARK  status: ('A' for Active; 'I' for Inactive)
REMARK    1  A    between atoms: N_1  and  C_4
REMARK    2  A    between atoms: C_4  and  C_5
REMARK                            x       y       z     vdW  Elec       q    Type
REMARK                         _______ _______ _______ _____ _____    ______ ____
ROOT
ATOM      1  N   UNL     1      -4.262  -3.539   4.522  0.00  0.00    -0.354 N 
ATOM      2  N   UNL     1      -3.084  -5.251   3.499  0.00  0.00    -0.372 N 
ATOM      3  N   UNL     1      -3.429  -5.341   5.766  0.00  0.00    -0.372 N 
ATOM      4  C   UNL     1      -3.599  -4.700   4.605  0.00  0.00    +0.166 C 
ATOM      5  H   UNL     1      -4.330  -3.087   3.617  0.00  0.00    +0.163 HD
ATOM      6  H   UNL     1      -2.582  -6.128   3.531  0.00  0.00    +0.159 HD
ATOM      7  H   UNL     1      -3.193  -4.821   2.589  0.00  0.00    +0.159 HD
ATOM      8  H   UNL     1      -3.788  -4.975   6.638  0.00  0.00    +0.159 HD
ATOM      9  H   UNL     1      -2.920  -6.215   5.820  0.00  0.00    +0.159 HD
ENDROOT
BRANCH   1  10
ATOM     10  C   UNL     1      -4.907  -2.882   5.657  0.00  0.00    +0.151 C 
BRANCH  10  11
ATOM     11  C   UNL     1      -6.318  -2.523   5.280  0.00  0.00    -0.028 A 
ATOM     12  C   UNL     1      -7.107  -3.417   4.542  0.00  0.00    +0.005 A 
ATOM     13  C   UNL     1      -6.873  -1.292   5.662  0.00  0.00    +0.005 A 
ATOM     14  C   UNL     1      -8.428  -3.097   4.217  0.00  0.00    +0.000 A 
ATOM     15  C   UNL     1      -8.191  -0.975   5.335  0.00  0.00    +0.000 A 
ATOM     16  C   UNL     1      -8.969  -1.879   4.615  0.00  0.00    +0.000 A 
ENDBRANCH  10  11
ENDBRANCH   1  10
TORSDOF 2
ENDMDL
MODEL 9
REMARK VINA RESULT:    -4.869      1.870      2.394
REMARK INTER + INTRA:          -5.566
REMARK INTER:                  -5.405
REMARK INTRA:                  -0.161
REMARK UNBOUND:                -0.127
REMARK  Name = 1550473
REMARK  2 active torsions:
REMARK  status: ('A' for Active; 'I' for Inactive)
REMARK    1  A    between atoms: N_1  and  C_4
REMARK    2  A    between atoms: C_4  and  C_5
REMARK                            x       y       z     vdW  Elec       q    Type
REMARK                         _______ _______ _______ _____ _____    ______ ____
ROOT
ATOM      1  N   UNL     1      -3.904  -3.085   4.072  0.00  0.00    -0.354 N 
ATOM      2  N   UNL     1      -2.715  -2.218   2.284  0.00  0.00    -0.372 N 
ATOM      3  N   UNL     1      -4.381  -3.742   1.874  0.00  0.00    -0.372 N 
ATOM      4  C   UNL     1      -3.676  -3.022   2.754  0.00  0.00    +0.166 C 
ATOM      5  H   UNL     1      -3.315  -2.537   4.689  0.00  0.00    +0.163 HD
ATOM      6  H   UNL     1      -2.522  -2.147   1.294  0.00  0.00    +0.159 HD
ATOM      7  H   UNL     1      -2.159  -1.637   2.899  0.00  0.00    +0.159 HD
ATOM      8  H   UNL     1      -5.116  -4.373   2.165  0.00  0.00    +0.159 HD
ATOM      9  H   UNL     1      -4.195  -3.694   0.880  0.00  0.00    +0.159 HD
ENDROOT
BRANCH   1  10
ATOM     10  C   UNL     1      -4.963  -3.888   4.682  0.00  0.00    +0.151 C 
BRANCH  10  11
ATOM     11  C   UNL     1      -6.216  -3.062   4.774  0.00  0.00    -0.028 A 
ATOM     12  C   UNL     1      -6.247  -1.902   5.562  0.00  0.00    +0.005 A 
ATOM     13  C   UNL     1      -7.373  -3.430   4.071  0.00  0.00    +0.005 A 
ATOM     14  C   UNL     1      -7.402  -1.118   5.624  0.00  0.00    +0.000 A 
ATOM     15  C   UNL     1      -8.524  -2.644   4.136  0.00  0.00    +0.000 A 
ATOM     16  C   UNL     1      -8.537  -1.487   4.911  0.00  0.00    +0.000 A 
ENDBRANCH  10  11
ENDBRANCH   1  10
TORSDOF 2
ENDMDL
