MODEL 1
REMARK VINA RESULT:    -4.981      0.000      0.000
REMARK INTER + INTRA:          -5.719
REMARK INTER:                  -5.564
REMARK INTRA:                  -0.155
REMARK UNBOUND:                -0.155
REMARK  Name = 1550473
REMARK  2 active torsions:
REMARK  status: ('A' for Active; 'I' for Inactive)
REMARK    1  A    between atoms: N_1  and  C_4
REMARK    2  A    between atoms: C_4  and  C_5
REMARK                            x       y       z     vdW  Elec       q    Type
REMARK                         _______ _______ _______ _____ _____    ______ ____
ROOT
ATOM      1  N   UNL     1       4.297  -3.280   9.686  0.00  0.00    -0.354 N 
ATOM      2  N   UNL     1       2.772  -2.806  11.364  0.00  0.00    -0.372 N 
ATOM      3  N   UNL     1       3.036  -4.983  10.686  0.00  0.00    -0.372 N 
ATOM      4  C   UNL     1       3.378  -3.695  10.567  0.00  0.00    +0.166 C 
ATOM      5  H   UNL     1       4.490  -2.286   9.624  0.00  0.00    +0.163 HD
ATOM      6  H   UNL     1       2.077  -3.091  12.040  0.00  0.00    +0.159 HD
ATOM      7  H   UNL     1       3.000  -1.820  11.332  0.00  0.00    +0.159 HD
ATOM      8  H   UNL     1       3.452  -5.703  10.110  0.00  0.00    +0.159 HD
ATOM      9  H   UNL     1       2.334  -5.286  11.349  0.00  0.00    +0.159 HD
ENDROOT
BRANCH   1  10
ATOM     10  C   UNL     1       5.054  -4.173   8.810  0.00  0.00    +0.151 C 
BRANCH  10  11
ATOM     11  C   UNL     1       4.627  -3.943   7.387  0.00  0.00    -0.028 A 
ATOM     12  C   UNL     1       4.188  -2.677   6.971  0.00  0.00    +0.005 A 
ATOM     13  C   UNL     1       4.664  -4.985   6.448  0.00  0.00    +0.005 A 
ATOM     14  C   UNL     1       3.820  -2.456   5.642  0.00  0.00    +0.000 A 
ATOM     15  C   UNL     1       4.295  -4.760   5.122  0.00  0.00    +0.000 A 
ATOM     16  C   UNL     1       3.875  -3.494   4.718  0.00  0.00    +0.000 A 
ENDBRANCH  10  11
ENDBRANCH   1  10
TORSDOF 2
ENDMDL
MODEL 2
REMARK VINA RESULT:    -4.739      1.784      2.679
REMARK INTER + INTRA:          -5.448
REMARK INTER:                  -5.400
REMARK INTRA:                  -0.047
REMARK UNBOUND:                -0.155
REMARK  Name = 1550473
REMARK  2 active torsions:
REMARK  status: ('A' for Active; 'I' for Inactive)
REMARK    1  A    between atoms: N_1  and  C_4
REMARK    2  A    between atoms: C_4  and  C_5
REMARK                            x       y       z     vdW  Elec       q    Type
REMARK                         _______ _______ _______ _____ _____    ______ ____
ROOT
ATOM      1  N   UNL     1       2.835  -2.705  11.657  0.00  0.00    -0.354 N 
ATOM      2  N   UNL     1       2.906  -4.342  13.294  0.00  0.00    -0.372 N 
ATOM      3  N   UNL     1       4.847  -3.258  12.724  0.00  0.00    -0.372 N 
ATOM      4  C   UNL     1       3.532  -3.424  12.548  0.00  0.00    +0.166 C 
ATOM      5  H   UNL     1       1.846  -2.900  11.549  0.00  0.00    +0.163 HD
ATOM      6  H   UNL     1       3.405  -4.897  13.977  0.00  0.00    +0.159 HD
ATOM      7  H   UNL     1       1.909  -4.503  13.217  0.00  0.00    +0.159 HD
ATOM      8  H   UNL     1       5.378  -2.585  12.188  0.00  0.00    +0.159 HD
ATOM      9  H   UNL     1       5.366  -3.811  13.394  0.00  0.00    +0.159 HD
ENDROOT
BRANCH   1  10
ATOM     10  C   UNL     1       3.410  -1.644  10.833  0.00  0.00    +0.151 C 
BRANCH  10  11
ATOM     11  C   UNL     1       3.565  -2.145   9.424  0.00  0.00    -0.028 A 
ATOM     12  C   UNL     1       3.800  -1.249   8.371  0.00  0.00    +0.005 A 
ATOM     13  C   UNL     1       3.484  -3.516   9.135  0.00  0.00    +0.005 A 
ATOM     14  C   UNL     1       3.974  -1.717   7.066  0.00  0.00    +0.000 A 
ATOM     15  C   UNL     1       3.658  -3.979   7.831  0.00  0.00    +0.000 A 
ATOM     16  C   UNL     1       3.905  -3.079   6.797  0.00  0.00    +0.000 A 
ENDBRANCH  10  11
ENDBRANCH   1  10
TORSDOF 2
ENDMDL
MODEL 3
REMARK VINA RESULT:    -4.444      1.932      2.613
REMARK INTER + INTRA:          -5.118
REMARK INTER:                  -4.938
REMARK INTRA:                  -0.180
REMARK UNBOUND:                -0.155
REMARK  Name = 1550473
REMARK  2 active torsions:
REMARK  status: ('A' for Active; 'I' for Inactive)
REMARK    1  A    between atoms: N_1  and  C_4
REMARK    2  A    between atoms: C_4  and  C_5
REMARK                            x       y       z     vdW  Elec       q    Type
REMARK                         _______ _______ _______ _____ _____    ______ ____
ROOT
ATOM      1  N   UNL     1       3.950  -5.615   8.984  0.00  0.00    -0.354 N 
ATOM      2  N   UNL     1       2.223  -6.789   9.985  0.00  0.00    -0.372 N 
ATOM      3  N   UNL     1       3.350  -7.752   8.233  0.00  0.00    -0.372 N 
ATOM      4  C   UNL     1       3.186  -6.713   9.059  0.00  0.00    +0.166 C 
ATOM      5  H   UNL     1       3.755  -4.849   9.619  0.00  0.00    +0.163 HD
ATOM      6  H   UNL     1       1.633  -7.606  10.067  0.00  0.00    +0.159 HD
ATOM      7  H   UNL     1       2.060  -6.041  10.648  0.00  0.00    +0.159 HD
ATOM      8  H   UNL     1       4.056  -7.755   7.509  0.00  0.00    +0.159 HD
ATOM      9  H   UNL     1       2.762  -8.574   8.293  0.00  0.00    +0.159 HD
ENDROOT
BRANCH   1  10
ATOM     10  C   UNL     1       5.061  -5.453   8.047  0.00  0.00    +0.151 C 
BRANCH  10  11
ATOM     11  C   UNL     1       4.621  -4.571   6.912  0.00  0.00    -0.028 A 
ATOM     12  C   UNL     1       4.531  -5.079   5.608  0.00  0.00    +0.005 A 
ATOM     13  C   UNL     1       4.289  -3.225   7.135  0.00  0.00    +0.005 A 
ATOM     14  C   UNL     1       4.094  -4.268   4.558  0.00  0.00    +0.000 A 
ATOM     15  C   UNL     1       3.854  -2.418   6.084  0.00  0.00    +0.000 A 
ATOM     16  C   UNL     1       3.755  -2.940   4.796  0.00  0.00    +0.000 A 
ENDBRANCH  10  11
ENDBRANCH   1  10
TORSDOF 2
ENDMDL
MODEL 4
REMARK VINA RESULT:    -4.388      2.909      4.382
REMARK INTER + INTRA:          -5.056
REMARK INTER:                  -4.920
REMARK INTRA:                  -0.136
REMARK UNBOUND:                -0.155
REMARK  Name = 1550473
REMARK  2 active torsions:
REMARK  status: ('A' for Active; 'I' for Inactive)
REMARK    1  A    between atoms: N_1  and  C_4
REMARK    2  A    between atoms: C_4  and  C_5
REMARK                            x       y       z     vdW  Elec       q    Type
REMARK                         _______ _______ _______ _____ _____    ______ ____
ROOT
ATOM      1  N   UNL     1       2.634  -6.099   9.650  0.00  0.00    -0.354 N 
ATOM      2  N   UNL     1       2.129  -8.133  10.637  0.00  0.00    -0.372 N 
ATOM      3  N   UNL     1       0.682  -7.265   9.081  0.00  0.00    -0.372 N 
ATOM      4  C   UNL     1       1.816  -7.152   9.781  0.00  0.00    +0.166 C 
ATOM      5  H   UNL     1       3.464  -6.059  10.231  0.00  0.00    +0.163 HD
ATOM      6  H   UNL     1       1.532  -8.941  10.755  0.00  0.00    +0.159 HD
ATOM      7  H   UNL     1       2.981  -8.112  11.183  0.00  0.00    +0.159 HD
ATOM      8  H   UNL     1       0.386  -6.556   8.423  0.00  0.00    +0.159 HD
ATOM      9  H   UNL     1       0.066  -8.060   9.194  0.00  0.00    +0.159 HD
ENDROOT
BRANCH   1  10
ATOM     10  C   UNL     1       2.413  -5.004   8.707  0.00  0.00    +0.151 C 
BRANCH  10  11
ATOM     11  C   UNL     1       2.846  -3.713   9.344  0.00  0.00    -0.028 A 
ATOM     12  C   UNL     1       2.935  -3.602  10.739  0.00  0.00    +0.005 A 
ATOM     13  C   UNL     1       3.174  -2.598   8.558  0.00  0.00    +0.005 A 
ATOM     14  C   UNL     1       3.366  -2.412  11.330  0.00  0.00    +0.000 A 
ATOM     15  C   UNL     1       3.603  -1.411   9.152  0.00  0.00    +0.000 A 
ATOM     16  C   UNL     1       3.701  -1.319  10.538  0.00  0.00    +0.000 A 
ENDBRANCH  10  11
ENDBRANCH   1  10
TORSDOF 2
ENDMDL
MODEL 5
REMARK VINA RESULT:    -4.362     14.097     14.207
REMARK INTER + INTRA:          -5.027
REMARK INTER:                  -4.905
REMARK INTRA:                  -0.122
REMARK UNBOUND:                -0.155
REMARK  Name = 1550473
REMARK  2 active torsions:
REMARK  status: ('A' for Active; 'I' for Inactive)
REMARK    1  A    between atoms: N_1  and  C_4
REMARK    2  A    between atoms: C_4  and  C_5
REMARK                            x       y       z     vdW  Elec       q    Type
REMARK                         _______ _______ _______ _____ _____    ______ ____
ROOT
ATOM      1  N   UNL     1      -9.044  -3.117   2.045  0.00  0.00    -0.354 N 
ATOM      2  N   UNL     1     -10.475  -1.996   3.480  0.00  0.00    -0.372 N 
ATOM      3  N   UNL     1     -10.402  -4.288   3.554  0.00  0.00    -0.372 N 
ATOM      4  C   UNL     1      -9.965  -3.144   3.018  0.00  0.00    +0.166 C 
ATOM      5  H   UNL     1      -8.777  -2.219   1.660  0.00  0.00    +0.163 HD
ATOM      6  H   UNL     1     -11.169  -1.985   4.216  0.00  0.00    +0.159 HD
ATOM      7  H   UNL     1     -10.173  -1.097   3.125  0.00  0.00    +0.159 HD
ATOM      8  H   UNL     1     -10.061  -5.189   3.246  0.00  0.00    +0.159 HD
ATOM      9  H   UNL     1     -11.104  -4.298   4.283  0.00  0.00    +0.159 HD
ENDROOT
BRANCH   1  10
ATOM     10  C   UNL     1      -8.387  -4.308   1.509  0.00  0.00    +0.151 C 
BRANCH  10  11
ATOM     11  C   UNL     1      -7.646  -3.936   0.254  0.00  0.00    -0.028 A 
ATOM     12  C   UNL     1      -7.411  -2.590  -0.062  0.00  0.00    +0.005 A 
ATOM     13  C   UNL     1      -7.170  -4.926  -0.619  0.00  0.00    +0.005 A 
ATOM     14  C   UNL     1      -6.697  -2.245  -1.212  0.00  0.00    +0.000 A 
ATOM     15  C   UNL     1      -6.458  -4.578  -1.767  0.00  0.00    +0.000 A 
ATOM     16  C   UNL     1      -6.219  -3.238  -2.062  0.00  0.00    +0.000 A 
ENDBRANCH  10  11
ENDBRANCH   1  10
TORSDOF 2
ENDMDL
MODEL 6
REMARK VINA RESULT:    -4.355     13.096     14.854
REMARK INTER + INTRA:          -5.019
REMARK INTER:                  -4.840
REMARK INTRA:                  -0.179
REMARK UNBOUND:                -0.155
REMARK  Name = 1550473
REMARK  2 active torsions:
REMARK  status: ('A' for Active; 'I' for Inactive)
REMARK    1  A    between atoms: N_1  and  C_4
REMARK    2  A    between atoms: C_4  and  C_5
REMARK                            x       y       z     vdW  Elec       q    Type
REMARK                         _______ _______ _______ _____ _____    ______ ____
ROOT
ATOM      1  N   UNL     1      -0.323  -3.497  -7.354  0.00  0.00    -0.354 N 
ATOM      2  N   UNL     1      -0.919  -4.866  -9.125  0.00  0.00    -0.372 N 
ATOM      3  N   UNL     1      -2.415  -4.553  -7.413  0.00  0.00    -0.372 N 
ATOM      4  C   UNL     1      -1.217  -4.297  -7.951  0.00  0.00    +0.166 C 
ATOM      5  H   UNL     1       0.578  -3.368  -7.799  0.00  0.00    +0.163 HD
ATOM      6  H   UNL     1      -1.575  -5.471  -9.600  0.00  0.00    +0.159 HD
ATOM      7  H   UNL     1      -0.035  -4.698  -9.589  0.00  0.00    +0.159 HD
ATOM      8  H   UNL     1      -2.699  -4.158  -6.526  0.00  0.00    +0.159 HD
ATOM      9  H   UNL     1      -3.080  -5.165  -7.868  0.00  0.00    +0.159 HD
ENDROOT
BRANCH   1  10
ATOM     10  C   UNL     1      -0.570  -2.786  -6.101  0.00  0.00    +0.151 C 
BRANCH  10  11
ATOM     11  C   UNL     1       0.168  -3.479  -4.990  0.00  0.00    -0.028 A 
ATOM     12  C   UNL     1       1.547  -3.285  -4.821  0.00  0.00    +0.005 A 
ATOM     13  C   UNL     1      -0.506  -4.326  -4.097  0.00  0.00    +0.005 A 
ATOM     14  C   UNL     1       2.228  -3.905  -3.771  0.00  0.00    +0.000 A 
ATOM     15  C   UNL     1       0.177  -4.944  -3.050  0.00  0.00    +0.000 A 
ATOM     16  C   UNL     1       1.543  -4.731  -2.885  0.00  0.00    +0.000 A 
ENDBRANCH  10  11
ENDBRANCH   1  10
TORSDOF 2
ENDMDL
MODEL 7
REMARK VINA RESULT:    -4.298     15.561     16.440
REMARK INTER + INTRA:          -4.955
REMARK INTER:                  -4.827
REMARK INTRA:                  -0.128
REMARK UNBOUND:                -0.155
REMARK  Name = 1550473
REMARK  2 active torsions:
REMARK  status: ('A' for Active; 'I' for Inactive)
REMARK    1  A    between atoms: N_1  and  C_4
REMARK    2  A    between atoms: C_4  and  C_5
REMARK                            x       y       z     vdW  Elec       q    Type
REMARK                         _______ _______ _______ _____ _____    ______ ____
ROOT
ATOM      1  N   UNL     1     -11.509   3.909   7.773  0.00  0.00    -0.354 N 
ATOM      2  N   UNL     1     -12.220   5.734   6.536  0.00  0.00    -0.372 N 
ATOM      3  N   UNL     1     -13.766   4.174   7.201  0.00  0.00    -0.372 N 
ATOM      4  C   UNL     1     -12.497   4.592   7.178  0.00  0.00    +0.166 C 
ATOM      5  H   UNL     1     -10.563   4.264   7.694  0.00  0.00    +0.163 HD
ATOM      6  H   UNL     1     -12.945   6.273   6.081  0.00  0.00    +0.159 HD
ATOM      7  H   UNL     1     -11.281   6.110   6.498  0.00  0.00    +0.159 HD
ATOM      8  H   UNL     1     -14.040   3.317   7.663  0.00  0.00    +0.159 HD
ATOM      9  H   UNL     1     -14.504   4.693   6.741  0.00  0.00    +0.159 HD
ENDROOT
BRANCH   1  10
ATOM     10  C   UNL     1     -11.712   2.683   8.543  0.00  0.00    +0.151 C 
BRANCH  10  11
ATOM     11  C   UNL     1     -10.573   1.739   8.272  0.00  0.00    -0.028 A 
ATOM     12  C   UNL     1      -9.847   1.177   9.332  0.00  0.00    +0.005 A 
ATOM     13  C   UNL     1     -10.220   1.398   6.957  0.00  0.00    +0.005 A 
ATOM     14  C   UNL     1      -8.808   0.277   9.081  0.00  0.00    +0.000 A 
ATOM     15  C   UNL     1      -9.182   0.499   6.712  0.00  0.00    +0.000 A 
ATOM     16  C   UNL     1      -8.478  -0.063   7.774  0.00  0.00    +0.000 A 
ENDBRANCH  10  11
ENDBRANCH   1  10
TORSDOF 2
ENDMDL
MODEL 8
REMARK VINA RESULT:    -4.297      1.669      2.993
REMARK INTER + INTRA:          -4.955
REMARK INTER:                  -4.822
REMARK INTRA:                  -0.133
REMARK UNBOUND:                -0.155
REMARK  Name = 1550473
REMARK  2 active torsions:
REMARK  status: ('A' for Active; 'I' for Inactive)
REMARK    1  A    between atoms: N_1  and  C_4
REMARK    2  A    between atoms: C_4  and  C_5
REMARK                            x       y       z     vdW  Elec       q    Type
REMARK                         _______ _______ _______ _____ _____    ______ ____
ROOT
ATOM      1  N   UNL     1       2.903  -4.785  10.380  0.00  0.00    -0.354 N 
ATOM      2  N   UNL     1       3.382  -6.984  10.925  0.00  0.00    -0.372 N 
ATOM      3  N   UNL     1       4.606  -5.307  11.902  0.00  0.00    -0.372 N 
ATOM      4  C   UNL     1       3.629  -5.677  11.067  0.00  0.00    +0.166 C 
ATOM      5  H   UNL     1       2.197  -5.130   9.740  0.00  0.00    +0.163 HD
ATOM      6  H   UNL     1       3.911  -7.680  11.433  0.00  0.00    +0.159 HD
ATOM      7  H   UNL     1       2.645  -7.325  10.319  0.00  0.00    +0.159 HD
ATOM      8  H   UNL     1       4.847  -4.336  12.049  0.00  0.00    +0.159 HD
ATOM      9  H   UNL     1       5.155  -5.990  12.410  0.00  0.00    +0.159 HD
ENDROOT
BRANCH   1  10
ATOM     10  C   UNL     1       3.056  -3.336  10.503  0.00  0.00    +0.151 C 
BRANCH  10  11
ATOM     11  C   UNL     1       3.428  -2.766   9.162  0.00  0.00    -0.028 A 
ATOM     12  C   UNL     1       3.675  -3.613   8.072  0.00  0.00    +0.005 A 
ATOM     13  C   UNL     1       3.529  -1.379   8.974  0.00  0.00    +0.005 A 
ATOM     14  C   UNL     1       3.991  -3.082   6.819  0.00  0.00    +0.000 A 
ATOM     15  C   UNL     1       3.846  -0.853   7.722  0.00  0.00    +0.000 A 
ATOM     16  C   UNL     1       4.075  -1.705   6.644  0.00  0.00    +0.000 A 
ENDBRANCH  10  11
ENDBRANCH   1  10
TORSDOF 2
ENDMDL
MODEL 9
REMARK VINA RESULT:    -4.137      2.627      3.756
REMARK INTER + INTRA:          -4.776
REMARK INTER:                  -4.625
REMARK INTRA:                  -0.151
REMARK UNBOUND:                -0.155
REMARK  Name = 1550473
REMARK  2 active torsions:
REMARK  status: ('A' for Active; 'I' for Inactive)
REMARK    1  A    between atoms: N_1  and  C_4
REMARK    2  A    between atoms: C_4  and  C_5
REMARK                            x       y       z     vdW  Elec       q    Type
REMARK                         _______ _______ _______ _____ _____    ______ ____
ROOT
ATOM      1  N   UNL     1       6.972  -4.069  10.133  0.00  0.00    -0.354 N 
ATOM      2  N   UNL     1       9.210  -3.745  10.634  0.00  0.00    -0.372 N 
ATOM      3  N   UNL     1       7.627  -2.600  11.838  0.00  0.00    -0.372 N 
ATOM      4  C   UNL     1       7.920  -3.471  10.867  0.00  0.00    +0.166 C 
ATOM      5  H   UNL     1       7.261  -4.697   9.392  0.00  0.00    +0.163 HD
ATOM      6  H   UNL     1       9.947  -3.312  11.174  0.00  0.00    +0.159 HD
ATOM      7  H   UNL     1       9.494  -4.408   9.923  0.00  0.00    +0.159 HD
ATOM      8  H   UNL     1       6.673  -2.346  12.059  0.00  0.00    +0.159 HD
ATOM      9  H   UNL     1       8.352  -2.147  12.381  0.00  0.00    +0.159 HD
ENDROOT
BRANCH   1  10
ATOM     10  C   UNL     1       5.537  -3.881  10.342  0.00  0.00    +0.151 C 
BRANCH  10  11
ATOM     11  C   UNL     1       4.944  -3.234   9.120  0.00  0.00    -0.028 A 
ATOM     12  C   UNL     1       4.747  -3.976   7.947  0.00  0.00    +0.005 A 
ATOM     13  C   UNL     1       4.571  -1.881   9.132  0.00  0.00    +0.005 A 
ATOM     14  C   UNL     1       4.168  -3.384   6.821  0.00  0.00    +0.000 A 
ATOM     15  C   UNL     1       3.994  -1.294   8.007  0.00  0.00    +0.000 A 
ATOM     16  C   UNL     1       3.791  -2.046   6.852  0.00  0.00    +0.000 A 
ENDBRANCH  10  11
ENDBRANCH   1  10
TORSDOF 2
ENDMDL
