MODEL 1
REMARK VINA RESULT:    -6.477      0.000      0.000
REMARK INTER + INTRA:          -7.367
REMARK INTER:                  -7.234
REMARK INTRA:                  -0.134
REMARK UNBOUND:                -0.134
REMARK  Name = 1550473
REMARK  2 active torsions:
REMARK  status: ('A' for Active; 'I' for Inactive)
REMARK    1  A    between atoms: N_1  and  C_4
REMARK    2  A    between atoms: C_4  and  C_5
REMARK                            x       y       z     vdW  Elec       q    Type
REMARK                         _______ _______ _______ _____ _____    ______ ____
ROOT
ATOM      1  N   UNL     1       1.142  13.104  12.551  0.00  0.00    -0.354 N 
ATOM      2  N   UNL     1      -1.161  13.138  12.306  0.00  0.00    -0.372 N 
ATOM      3  N   UNL     1      -0.155  14.770  13.568  0.00  0.00    -0.372 N 
ATOM      4  C   UNL     1      -0.043  13.673  12.812  0.00  0.00    +0.166 C 
ATOM      5  H   UNL     1       1.157  12.256  11.996  0.00  0.00    +0.163 HD
ATOM      6  H   UNL     1      -2.069  13.547  12.483  0.00  0.00    +0.159 HD
ATOM      7  H   UNL     1      -1.138  12.317  11.714  0.00  0.00    +0.159 HD
ATOM      8  H   UNL     1       0.650  15.218  13.984  0.00  0.00    +0.159 HD
ATOM      9  H   UNL     1      -1.056  15.187  13.766  0.00  0.00    +0.159 HD
ENDROOT
BRANCH   1  10
ATOM     10  C   UNL     1       2.424  13.638  13.009  0.00  0.00    +0.151 C 
BRANCH  10  11
ATOM     11  C   UNL     1       3.362  12.495  13.282  0.00  0.00    -0.028 A 
ATOM     12  C   UNL     1       2.871  11.188  13.423  0.00  0.00    +0.005 A 
ATOM     13  C   UNL     1       4.744  12.711  13.395  0.00  0.00    +0.005 A 
ATOM     14  C   UNL     1       3.746  10.122  13.647  0.00  0.00    +0.000 A 
ATOM     15  C   UNL     1       5.614  11.644  13.620  0.00  0.00    +0.000 A 
ATOM     16  C   UNL     1       5.115  10.349  13.743  0.00  0.00    +0.000 A 
ENDBRANCH  10  11
ENDBRANCH   1  10
TORSDOF 2
ENDMDL
MODEL 2
REMARK VINA RESULT:    -5.675     21.412     22.434
REMARK INTER + INTRA:          -6.471
REMARK INTER:                  -6.298
REMARK INTRA:                  -0.173
REMARK UNBOUND:                -0.134
REMARK  Name = 1550473
REMARK  2 active torsions:
REMARK  status: ('A' for Active; 'I' for Inactive)
REMARK    1  A    between atoms: N_1  and  C_4
REMARK    2  A    between atoms: C_4  and  C_5
REMARK                            x       y       z     vdW  Elec       q    Type
REMARK                         _______ _______ _______ _____ _____    ______ ____
ROOT
ATOM      1  N   UNL     1       2.707  -2.697  -0.687  0.00  0.00    -0.354 N 
ATOM      2  N   UNL     1       2.858  -2.185   1.567  0.00  0.00    -0.372 N 
ATOM      3  N   UNL     1       0.781  -2.448   0.626  0.00  0.00    -0.372 N 
ATOM      4  C   UNL     1       2.111  -2.447   0.487  0.00  0.00    +0.166 C 
ATOM      5  H   UNL     1       3.718  -2.651  -0.734  0.00  0.00    +0.163 HD
ATOM      6  H   UNL     1       2.437  -1.996   2.466  0.00  0.00    +0.159 HD
ATOM      7  H   UNL     1       3.870  -2.185   1.528  0.00  0.00    +0.159 HD
ATOM      8  H   UNL     1       0.162  -2.633  -0.152  0.00  0.00    +0.159 HD
ATOM      9  H   UNL     1       0.341  -2.250   1.515  0.00  0.00    +0.159 HD
ENDROOT
BRANCH   1  10
ATOM     10  C   UNL     1       1.987  -3.045  -1.911  0.00  0.00    +0.151 C 
BRANCH  10  11
ATOM     11  C   UNL     1       2.211  -4.501  -2.215  0.00  0.00    -0.028 A 
ATOM     12  C   UNL     1       1.389  -5.482  -1.641  0.00  0.00    +0.005 A 
ATOM     13  C   UNL     1       3.239  -4.905  -3.080  0.00  0.00    +0.005 A 
ATOM     14  C   UNL     1       1.577  -6.833  -1.946  0.00  0.00    +0.000 A 
ATOM     15  C   UNL     1       3.425  -6.254  -3.381  0.00  0.00    +0.000 A 
ATOM     16  C   UNL     1       2.592  -7.217  -2.816  0.00  0.00    +0.000 A 
ENDBRANCH  10  11
ENDBRANCH   1  10
TORSDOF 2
ENDMDL
MODEL 3
REMARK VINA RESULT:    -5.286     14.932     15.746
REMARK INTER + INTRA:          -6.038
REMARK INTER:                  -5.917
REMARK INTRA:                  -0.121
REMARK UNBOUND:                -0.134
REMARK  Name = 1550473
REMARK  2 active torsions:
REMARK  status: ('A' for Active; 'I' for Inactive)
REMARK    1  A    between atoms: N_1  and  C_4
REMARK    2  A    between atoms: C_4  and  C_5
REMARK                            x       y       z     vdW  Elec       q    Type
REMARK                         _______ _______ _______ _____ _____    ______ ____
ROOT
ATOM      1  N   UNL     1       3.430  -2.076  16.425  0.00  0.00    -0.354 N 
ATOM      2  N   UNL     1       5.428  -2.424  15.307  0.00  0.00    -0.372 N 
ATOM      3  N   UNL     1       5.412  -2.504  17.600  0.00  0.00    -0.372 N 
ATOM      4  C   UNL     1       4.745  -2.333  16.454  0.00  0.00    +0.166 C 
ATOM      5  H   UNL     1       2.989  -1.926  15.526  0.00  0.00    +0.163 HD
ATOM      6  H   UNL     1       6.420  -2.621  15.297  0.00  0.00    +0.159 HD
ATOM      7  H   UNL     1       4.975  -2.320  14.407  0.00  0.00    +0.159 HD
ATOM      8  H   UNL     1       4.956  -2.442  18.500  0.00  0.00    +0.159 HD
ATOM      9  H   UNL     1       6.408  -2.690  17.611  0.00  0.00    +0.159 HD
ENDROOT
BRANCH   1  10
ATOM     10  C   UNL     1       2.584  -2.009  17.616  0.00  0.00    +0.151 C 
BRANCH  10  11
ATOM     11  C   UNL     1       1.142  -1.972  17.191  0.00  0.00    -0.028 A 
ATOM     12  C   UNL     1       0.121  -2.239  18.115  0.00  0.00    +0.005 A 
ATOM     13  C   UNL     1       0.789  -1.665  15.868  0.00  0.00    +0.005 A 
ATOM     14  C   UNL     1      -1.220  -2.175  17.729  0.00  0.00    +0.000 A 
ATOM     15  C   UNL     1      -0.551  -1.603  15.486  0.00  0.00    +0.000 A 
ATOM     16  C   UNL     1      -1.555  -1.856  16.417  0.00  0.00    +0.000 A 
ENDBRANCH  10  11
ENDBRANCH   1  10
TORSDOF 2
ENDMDL
MODEL 4
REMARK VINA RESULT:    -5.155     22.487     23.514
REMARK INTER + INTRA:          -5.892
REMARK INTER:                  -5.735
REMARK INTRA:                  -0.156
REMARK UNBOUND:                -0.134
REMARK  Name = 1550473
REMARK  2 active torsions:
REMARK  status: ('A' for Active; 'I' for Inactive)
REMARK    1  A    between atoms: N_1  and  C_4
REMARK    2  A    between atoms: C_4  and  C_5
REMARK                            x       y       z     vdW  Elec       q    Type
REMARK                         _______ _______ _______ _____ _____    ______ ____
ROOT
ATOM      1  N   UNL     1       1.684  -3.916  -1.812  0.00  0.00    -0.354 N 
ATOM      2  N   UNL     1       2.118  -1.703  -1.283  0.00  0.00    -0.372 N 
ATOM      3  N   UNL     1       2.674  -3.336   0.231  0.00  0.00    -0.372 N 
ATOM      4  C   UNL     1       2.157  -3.001  -0.956  0.00  0.00    +0.166 C 
ATOM      5  H   UNL     1       1.277  -3.595  -2.683  0.00  0.00    +0.163 HD
ATOM      6  H   UNL     1       2.471  -0.990  -0.658  0.00  0.00    +0.159 HD
ATOM      7  H   UNL     1       1.753  -1.389  -2.173  0.00  0.00    +0.159 HD
ATOM      8  H   UNL     1       2.726  -4.297   0.540  0.00  0.00    +0.159 HD
ATOM      9  H   UNL     1       3.021  -2.636   0.875  0.00  0.00    +0.159 HD
ENDROOT
BRANCH   1  10
ATOM     10  C   UNL     1       1.728  -5.358  -1.575  0.00  0.00    +0.151 C 
BRANCH  10  11
ATOM     11  C   UNL     1       2.848  -5.954  -2.382  0.00  0.00    -0.028 A 
ATOM     12  C   UNL     1       3.505  -7.112  -1.941  0.00  0.00    +0.005 A 
ATOM     13  C   UNL     1       3.254  -5.369  -3.591  0.00  0.00    +0.005 A 
ATOM     14  C   UNL     1       4.526  -7.683  -2.705  0.00  0.00    +0.000 A 
ATOM     15  C   UNL     1       4.274  -5.942  -4.350  0.00  0.00    +0.000 A 
ATOM     16  C   UNL     1       4.908  -7.100  -3.908  0.00  0.00    +0.000 A 
ENDBRANCH  10  11
ENDBRANCH   1  10
TORSDOF 2
ENDMDL
MODEL 5
REMARK VINA RESULT:    -5.047     13.258     13.748
REMARK INTER + INTRA:          -5.771
REMARK INTER:                  -5.659
REMARK INTRA:                  -0.112
REMARK UNBOUND:                -0.134
REMARK  Name = 1550473
REMARK  2 active torsions:
REMARK  status: ('A' for Active; 'I' for Inactive)
REMARK    1  A    between atoms: N_1  and  C_4
REMARK    2  A    between atoms: C_4  and  C_5
REMARK                            x       y       z     vdW  Elec       q    Type
REMARK                         _______ _______ _______ _____ _____    ______ ____
ROOT
ATOM      1  N   UNL     1       0.403   7.519   2.424  0.00  0.00    -0.354 N 
ATOM      2  N   UNL     1      -0.511   9.392   3.435  0.00  0.00    -0.372 N 
ATOM      3  N   UNL     1       0.851   8.018   4.670  0.00  0.00    -0.372 N 
ATOM      4  C   UNL     1       0.255   8.296   3.506  0.00  0.00    +0.166 C 
ATOM      5  H   UNL     1      -0.100   7.768   1.580  0.00  0.00    +0.163 HD
ATOM      6  H   UNL     1      -0.638   9.999   4.234  0.00  0.00    +0.159 HD
ATOM      7  H   UNL     1      -0.975   9.663   2.577  0.00  0.00    +0.159 HD
ATOM      8  H   UNL     1       1.437   7.202   4.790  0.00  0.00    +0.159 HD
ATOM      9  H   UNL     1       0.726   8.607   5.483  0.00  0.00    +0.159 HD
ENDROOT
BRANCH   1  10
ATOM     10  C   UNL     1       1.257   6.333   2.380  0.00  0.00    +0.151 C 
BRANCH  10  11
ATOM     11  C   UNL     1       1.303   5.813   0.970  0.00  0.00    -0.028 A 
ATOM     12  C   UNL     1       1.210   4.438   0.714  0.00  0.00    +0.005 A 
ATOM     13  C   UNL     1       1.434   6.693  -0.116  0.00  0.00    +0.005 A 
ATOM     14  C   UNL     1       1.223   3.957  -0.597  0.00  0.00    +0.000 A 
ATOM     15  C   UNL     1       1.447   6.209  -1.424  0.00  0.00    +0.000 A 
ATOM     16  C   UNL     1       1.339   4.841  -1.664  0.00  0.00    +0.000 A 
ENDBRANCH  10  11
ENDBRANCH   1  10
TORSDOF 2
ENDMDL
MODEL 6
REMARK VINA RESULT:    -4.992     43.431     44.296
REMARK INTER + INTRA:          -5.710
REMARK INTER:                  -5.566
REMARK INTRA:                  -0.144
REMARK UNBOUND:                -0.134
REMARK  Name = 1550473
REMARK  2 active torsions:
REMARK  status: ('A' for Active; 'I' for Inactive)
REMARK    1  A    between atoms: N_1  and  C_4
REMARK    2  A    between atoms: C_4  and  C_5
REMARK                            x       y       z     vdW  Elec       q    Type
REMARK                         _______ _______ _______ _____ _____    ______ ____
ROOT
ATOM      1  N   UNL     1     -16.891 -13.684 -18.906  0.00  0.00    -0.354 N 
ATOM      2  N   UNL     1     -18.639 -14.430 -17.582  0.00  0.00    -0.372 N 
ATOM      3  N   UNL     1     -16.771 -15.746 -17.799  0.00  0.00    -0.372 N 
ATOM      4  C   UNL     1     -17.421 -14.618 -18.104  0.00  0.00    +0.166 C 
ATOM      5  H   UNL     1     -17.447 -12.864 -19.123  0.00  0.00    +0.163 HD
ATOM      6  H   UNL     1     -19.063 -15.116 -16.971  0.00  0.00    +0.159 HD
ATOM      7  H   UNL     1     -19.173 -13.589 -17.764  0.00  0.00    +0.159 HD
ATOM      8  H   UNL     1     -15.851 -15.950 -18.166  0.00  0.00    +0.159 HD
ATOM      9  H   UNL     1     -17.184 -16.449 -17.199  0.00  0.00    +0.159 HD
ENDROOT
BRANCH   1  10
ATOM     10  C   UNL     1     -15.551 -13.766 -19.483  0.00  0.00    +0.151 C 
BRANCH  10  11
ATOM     11  C   UNL     1     -14.567 -13.144 -18.531  0.00  0.00    -0.028 A 
ATOM     12  C   UNL     1     -14.869 -11.938 -17.882  0.00  0.00    +0.005 A 
ATOM     13  C   UNL     1     -13.333 -13.759 -18.268  0.00  0.00    +0.005 A 
ATOM     14  C   UNL     1     -13.969 -11.375 -16.974  0.00  0.00    +0.000 A 
ATOM     15  C   UNL     1     -12.436 -13.194 -17.362  0.00  0.00    +0.000 A 
ATOM     16  C   UNL     1     -12.756 -12.003 -16.713  0.00  0.00    +0.000 A 
ENDBRANCH  10  11
ENDBRANCH   1  10
TORSDOF 2
ENDMDL
MODEL 7
REMARK VINA RESULT:    -4.971     22.215     23.343
REMARK INTER + INTRA:          -5.686
REMARK INTER:                  -5.543
REMARK INTRA:                  -0.142
REMARK UNBOUND:                -0.134
REMARK  Name = 1550473
REMARK  2 active torsions:
REMARK  status: ('A' for Active; 'I' for Inactive)
REMARK    1  A    between atoms: N_1  and  C_4
REMARK    2  A    between atoms: C_4  and  C_5
REMARK                            x       y       z     vdW  Elec       q    Type
REMARK                         _______ _______ _______ _____ _____    ______ ____
ROOT
ATOM      1  N   UNL     1       2.861  -5.501   0.885  0.00  0.00    -0.354 N 
ATOM      2  N   UNL     1       1.700  -4.220   2.425  0.00  0.00    -0.372 N 
ATOM      3  N   UNL     1       1.045  -6.390   2.068  0.00  0.00    -0.372 N 
ATOM      4  C   UNL     1       1.875  -5.381   1.783  0.00  0.00    +0.166 C 
ATOM      5  H   UNL     1       3.437  -4.689   0.691  0.00  0.00    +0.163 HD
ATOM      6  H   UNL     1       0.966  -4.101   3.111  0.00  0.00    +0.159 HD
ATOM      7  H   UNL     1       2.306  -3.425   2.264  0.00  0.00    +0.159 HD
ATOM      8  H   UNL     1       1.120  -7.290   1.614  0.00  0.00    +0.159 HD
ATOM      9  H   UNL     1       0.297  -6.286   2.743  0.00  0.00    +0.159 HD
ENDROOT
BRANCH   1  10
ATOM     10  C   UNL     1       3.170  -6.738   0.169  0.00  0.00    +0.151 C 
BRANCH  10  11
ATOM     11  C   UNL     1       3.324  -6.433  -1.295  0.00  0.00    -0.028 A 
ATOM     12  C   UNL     1       3.707  -7.438  -2.195  0.00  0.00    +0.005 A 
ATOM     13  C   UNL     1       3.082  -5.142  -1.790  0.00  0.00    +0.005 A 
ATOM     14  C   UNL     1       3.820  -7.163  -3.560  0.00  0.00    +0.000 A 
ATOM     15  C   UNL     1       3.198  -4.871  -3.153  0.00  0.00    +0.000 A 
ATOM     16  C   UNL     1       3.564  -5.882  -4.038  0.00  0.00    +0.000 A 
ENDBRANCH  10  11
ENDBRANCH   1  10
TORSDOF 2
ENDMDL
MODEL 8
REMARK VINA RESULT:    -4.945     11.504     12.105
REMARK INTER + INTRA:          -5.657
REMARK INTER:                  -5.497
REMARK INTRA:                  -0.160
REMARK UNBOUND:                -0.134
REMARK  Name = 1550473
REMARK  2 active torsions:
REMARK  status: ('A' for Active; 'I' for Inactive)
REMARK    1  A    between atoms: N_1  and  C_4
REMARK    2  A    between atoms: C_4  and  C_5
REMARK                            x       y       z     vdW  Elec       q    Type
REMARK                         _______ _______ _______ _____ _____    ______ ____
ROOT
ATOM      1  N   UNL     1      -1.075   8.343   3.628  0.00  0.00    -0.354 N 
ATOM      2  N   UNL     1      -0.540  10.504   4.266  0.00  0.00    -0.372 N 
ATOM      3  N   UNL     1      -0.223   8.794   5.763  0.00  0.00    -0.372 N 
ATOM      4  C   UNL     1      -0.616   9.198   4.551  0.00  0.00    +0.166 C 
ATOM      5  H   UNL     1      -1.386   8.716   2.738  0.00  0.00    +0.163 HD
ATOM      6  H   UNL     1      -0.194  11.173   4.941  0.00  0.00    +0.159 HD
ATOM      7  H   UNL     1      -0.808  10.868   3.360  0.00  0.00    +0.159 HD
ATOM      8  H   UNL     1      -0.261   7.823   6.043  0.00  0.00    +0.159 HD
ATOM      9  H   UNL     1       0.115   9.450   6.457  0.00  0.00    +0.159 HD
ENDROOT
BRANCH   1  10
ATOM     10  C   UNL     1      -1.148   6.895   3.818  0.00  0.00    +0.151 C 
BRANCH  10  11
ATOM     11  C   UNL     1      -0.206   6.225   2.856  0.00  0.00    -0.028 A 
ATOM     12  C   UNL     1       1.127   5.982   3.218  0.00  0.00    +0.005 A 
ATOM     13  C   UNL     1      -0.642   5.826   1.584  0.00  0.00    +0.005 A 
ATOM     14  C   UNL     1       1.995   5.333   2.336  0.00  0.00    +0.000 A 
ATOM     15  C   UNL     1       0.228   5.179   0.706  0.00  0.00    +0.000 A 
ATOM     16  C   UNL     1       1.545   4.931   1.083  0.00  0.00    +0.000 A 
ENDBRANCH  10  11
ENDBRANCH   1  10
TORSDOF 2
ENDMDL
MODEL 9
REMARK VINA RESULT:    -4.920      8.301      9.204
REMARK INTER + INTRA:          -5.629
REMARK INTER:                  -5.515
REMARK INTRA:                  -0.113
REMARK UNBOUND:                -0.134
REMARK  Name = 1550473
REMARK  2 active torsions:
REMARK  status: ('A' for Active; 'I' for Inactive)
REMARK    1  A    between atoms: N_1  and  C_4
REMARK    2  A    between atoms: C_4  and  C_5
REMARK                            x       y       z     vdW  Elec       q    Type
REMARK                         _______ _______ _______ _____ _____    ______ ____
ROOT
ATOM      1  N   UNL     1      -0.851   9.499   4.923  0.00  0.00    -0.354 N 
ATOM      2  N   UNL     1      -1.031  10.921   3.104  0.00  0.00    -0.372 N 
ATOM      3  N   UNL     1      -0.135   8.832   2.794  0.00  0.00    -0.372 N 
ATOM      4  C   UNL     1      -0.670   9.739   3.618  0.00  0.00    +0.166 C 
ATOM      5  H   UNL     1      -1.234  10.239   5.500  0.00  0.00    +0.163 HD
ATOM      6  H   UNL     1      -0.910  11.131   2.123  0.00  0.00    +0.159 HD
ATOM      7  H   UNL     1      -1.456  11.642   3.675  0.00  0.00    +0.159 HD
ATOM      8  H   UNL     1       0.165   7.923   3.120  0.00  0.00    +0.159 HD
ATOM      9  H   UNL     1       0.006   9.027   1.810  0.00  0.00    +0.159 HD
ENDROOT
BRANCH   1  10
ATOM     10  C   UNL     1      -0.541   8.225   5.570  0.00  0.00    +0.151 C 
BRANCH  10  11
ATOM     11  C   UNL     1      -0.987   8.283   7.006  0.00  0.00    -0.028 A 
ATOM     12  C   UNL     1      -1.454   7.129   7.653  0.00  0.00    +0.005 A 
ATOM     13  C   UNL     1      -0.938   9.486   7.726  0.00  0.00    +0.005 A 
ATOM     14  C   UNL     1      -1.840   7.176   8.995  0.00  0.00    +0.000 A 
ATOM     15  C   UNL     1      -1.325   9.528   9.065  0.00  0.00    +0.000 A 
ATOM     16  C   UNL     1      -1.773   8.372   9.700  0.00  0.00    +0.000 A 
ENDBRANCH  10  11
ENDBRANCH   1  10
TORSDOF 2
ENDMDL
