MODEL 1
REMARK VINA RESULT:    -5.335      0.000      0.000
REMARK INTER + INTRA:          -6.087
REMARK INTER:                  -5.959
REMARK INTRA:                  -0.127
REMARK UNBOUND:                -0.127
REMARK  Name = 1550473
REMARK  2 active torsions:
REMARK  status: ('A' for Active; 'I' for Inactive)
REMARK    1  A    between atoms: N_1  and  C_4
REMARK    2  A    between atoms: C_4  and  C_5
REMARK                            x       y       z     vdW  Elec       q    Type
REMARK                         _______ _______ _______ _____ _____    ______ ____
ROOT
ATOM      1  N   UNL     1      -4.342  -3.206 -12.532  0.00  0.00    -0.354 N 
ATOM      2  N   UNL     1      -5.141  -3.366 -10.364  0.00  0.00    -0.372 N 
ATOM      3  N   UNL     1      -2.968  -2.708 -10.700  0.00  0.00    -0.372 N 
ATOM      4  C   UNL     1      -4.142  -3.092 -11.212  0.00  0.00    +0.166 C 
ATOM      5  H   UNL     1      -5.245  -3.531 -12.856  0.00  0.00    +0.163 HD
ATOM      6  H   UNL     1      -5.021  -3.285  -9.363  0.00  0.00    +0.159 HD
ATOM      7  H   UNL     1      -6.057  -3.646 -10.693  0.00  0.00    +0.159 HD
ATOM      8  H   UNL     1      -2.173  -2.492 -11.286  0.00  0.00    +0.159 HD
ATOM      9  H   UNL     1      -2.826  -2.632  -9.700  0.00  0.00    +0.159 HD
ENDROOT
BRANCH   1  10
ATOM     10  C   UNL     1      -3.337  -2.880 -13.542  0.00  0.00    +0.151 C 
BRANCH  10  11
ATOM     11  C   UNL     1      -4.024  -2.631 -14.857  0.00  0.00    -0.028 A 
ATOM     12  C   UNL     1      -5.424  -2.604 -14.934  0.00  0.00    +0.005 A 
ATOM     13  C   UNL     1      -3.280  -2.417 -16.027  0.00  0.00    +0.005 A 
ATOM     14  C   UNL     1      -6.062  -2.343 -16.149  0.00  0.00    +0.000 A 
ATOM     15  C   UNL     1      -3.922  -2.158 -17.239  0.00  0.00    +0.000 A 
ATOM     16  C   UNL     1      -5.312  -2.119 -17.298  0.00  0.00    +0.000 A 
ENDBRANCH  10  11
ENDBRANCH   1  10
TORSDOF 2
ENDMDL
MODEL 2
REMARK VINA RESULT:    -4.944      2.545      3.205
REMARK INTER + INTRA:          -5.649
REMARK INTER:                  -5.538
REMARK INTRA:                  -0.111
REMARK UNBOUND:                -0.127
REMARK  Name = 1550473
REMARK  2 active torsions:
REMARK  status: ('A' for Active; 'I' for Inactive)
REMARK    1  A    between atoms: N_1  and  C_4
REMARK    2  A    between atoms: C_4  and  C_5
REMARK                            x       y       z     vdW  Elec       q    Type
REMARK                         _______ _______ _______ _____ _____    ______ ____
ROOT
ATOM      1  N   UNL     1      -1.655  -3.976 -14.328  0.00  0.00    -0.354 N 
ATOM      2  N   UNL     1      -0.605  -5.431 -12.863  0.00  0.00    -0.372 N 
ATOM      3  N   UNL     1       0.563  -3.623 -13.659  0.00  0.00    -0.372 N 
ATOM      4  C   UNL     1      -0.570  -4.332 -13.627  0.00  0.00    +0.166 C 
ATOM      5  H   UNL     1      -2.473  -4.573 -14.285  0.00  0.00    +0.163 HD
ATOM      6  H   UNL     1       0.197  -5.723 -12.321  0.00  0.00    +0.159 HD
ATOM      7  H   UNL     1      -1.439  -6.000 -12.786  0.00  0.00    +0.159 HD
ATOM      8  H   UNL     1       0.656  -2.787 -14.220  0.00  0.00    +0.159 HD
ATOM      9  H   UNL     1       1.380  -3.905 -13.132  0.00  0.00    +0.159 HD
ENDROOT
BRANCH   1  10
ATOM     10  C   UNL     1      -1.739  -2.769 -15.147  0.00  0.00    +0.151 C 
BRANCH  10  11
ATOM     11  C   UNL     1      -3.162  -2.577 -15.594  0.00  0.00    -0.028 A 
ATOM     12  C   UNL     1      -3.453  -2.271 -16.931  0.00  0.00    +0.005 A 
ATOM     13  C   UNL     1      -4.224  -2.704 -14.686  0.00  0.00    +0.005 A 
ATOM     14  C   UNL     1      -4.777  -2.122 -17.353  0.00  0.00    +0.000 A 
ATOM     15  C   UNL     1      -5.544  -2.554 -15.111  0.00  0.00    +0.000 A 
ATOM     16  C   UNL     1      -5.820  -2.265 -16.445  0.00  0.00    +0.000 A 
ENDBRANCH  10  11
ENDBRANCH   1  10
TORSDOF 2
ENDMDL
MODEL 3
REMARK VINA RESULT:    -4.827     31.716     33.296
REMARK INTER + INTRA:          -5.519
REMARK INTER:                  -5.420
REMARK INTRA:                  -0.099
REMARK UNBOUND:                -0.127
REMARK  Name = 1550473
REMARK  2 active torsions:
REMARK  status: ('A' for Active; 'I' for Inactive)
REMARK    1  A    between atoms: N_1  and  C_4
REMARK    2  A    between atoms: C_4  and  C_5
REMARK                            x       y       z     vdW  Elec       q    Type
REMARK                         _______ _______ _______ _____ _____    ______ ____
ROOT
ATOM      1  N   UNL     1       0.761   0.083  17.436  0.00  0.00    -0.354 N 
ATOM      2  N   UNL     1       0.758  -2.103  16.669  0.00  0.00    -0.372 N 
ATOM      3  N   UNL     1      -1.077  -1.323  17.806  0.00  0.00    -0.372 N 
ATOM      4  C   UNL     1       0.145  -1.100  17.310  0.00  0.00    +0.166 C 
ATOM      5  H   UNL     1       1.699   0.179  17.064  0.00  0.00    +0.163 HD
ATOM      6  H   UNL     1       0.316  -3.005  16.555  0.00  0.00    +0.159 HD
ATOM      7  H   UNL     1       1.677  -1.990  16.258  0.00  0.00    +0.159 HD
ATOM      8  H   UNL     1      -1.590  -0.610  18.305  0.00  0.00    +0.159 HD
ATOM      9  H   UNL     1      -1.530  -2.223  17.713  0.00  0.00    +0.159 HD
ENDROOT
BRANCH   1  10
ATOM     10  C   UNL     1       0.160   1.255  18.068  0.00  0.00    +0.151 C 
BRANCH  10  11
ATOM     11  C   UNL     1       1.248   2.220  18.451  0.00  0.00    -0.028 A 
ATOM     12  C   UNL     1       1.465   3.383  17.698  0.00  0.00    +0.005 A 
ATOM     13  C   UNL     1       2.062   1.979  19.568  0.00  0.00    +0.005 A 
ATOM     14  C   UNL     1       2.456   4.295  18.070  0.00  0.00    +0.000 A 
ATOM     15  C   UNL     1       3.051   2.891  19.936  0.00  0.00    +0.000 A 
ATOM     16  C   UNL     1       3.246   4.050  19.188  0.00  0.00    +0.000 A 
ENDBRANCH  10  11
ENDBRANCH   1  10
TORSDOF 2
ENDMDL
MODEL 4
REMARK VINA RESULT:    -4.617      1.546      2.341
REMARK INTER + INTRA:          -5.284
REMARK INTER:                  -5.136
REMARK INTRA:                  -0.148
REMARK UNBOUND:                -0.127
REMARK  Name = 1550473
REMARK  2 active torsions:
REMARK  status: ('A' for Active; 'I' for Inactive)
REMARK    1  A    between atoms: N_1  and  C_4
REMARK    2  A    between atoms: C_4  and  C_5
REMARK                            x       y       z     vdW  Elec       q    Type
REMARK                         _______ _______ _______ _____ _____    ______ ____
ROOT
ATOM      1  N   UNL     1      -2.769  -3.520 -12.882  0.00  0.00    -0.354 N 
ATOM      2  N   UNL     1      -1.676  -5.438 -12.181  0.00  0.00    -0.372 N 
ATOM      3  N   UNL     1      -3.908  -5.198 -11.708  0.00  0.00    -0.372 N 
ATOM      4  C   UNL     1      -2.794  -4.707 -12.260  0.00  0.00    +0.166 C 
ATOM      5  H   UNL     1      -1.886  -3.190 -13.254  0.00  0.00    +0.163 HD
ATOM      6  H   UNL     1      -1.665  -6.339 -11.721  0.00  0.00    +0.159 HD
ATOM      7  H   UNL     1      -0.805  -5.127 -12.594  0.00  0.00    +0.159 HD
ATOM      8  H   UNL     1      -4.784  -4.693 -11.728  0.00  0.00    +0.159 HD
ATOM      9  H   UNL     1      -3.915  -6.092 -11.233  0.00  0.00    +0.159 HD
ENDROOT
BRANCH   1  10
ATOM     10  C   UNL     1      -3.944  -2.671 -13.070  0.00  0.00    +0.151 C 
BRANCH  10  11
ATOM     11  C   UNL     1      -4.221  -2.535 -14.542  0.00  0.00    -0.028 A 
ATOM     12  C   UNL     1      -3.166  -2.513 -15.466  0.00  0.00    +0.005 A 
ATOM     13  C   UNL     1      -5.536  -2.432 -15.020  0.00  0.00    +0.005 A 
ATOM     14  C   UNL     1      -3.424  -2.417 -16.836  0.00  0.00    +0.000 A 
ATOM     15  C   UNL     1      -5.790  -2.335 -16.388  0.00  0.00    +0.000 A 
ATOM     16  C   UNL     1      -4.733  -2.330 -17.295  0.00  0.00    +0.000 A 
ENDBRANCH  10  11
ENDBRANCH   1  10
TORSDOF 2
ENDMDL
MODEL 5
REMARK VINA RESULT:    -4.607     28.599     29.853
REMARK INTER + INTRA:          -5.273
REMARK INTER:                  -5.124
REMARK INTRA:                  -0.149
REMARK UNBOUND:                -0.127
REMARK  Name = 1550473
REMARK  2 active torsions:
REMARK  status: ('A' for Active; 'I' for Inactive)
REMARK    1  A    between atoms: N_1  and  C_4
REMARK    2  A    between atoms: C_4  and  C_5
REMARK                            x       y       z     vdW  Elec       q    Type
REMARK                         _______ _______ _______ _____ _____    ______ ____
ROOT
ATOM      1  N   UNL     1      -4.485  -4.449  14.131  0.00  0.00    -0.354 N 
ATOM      2  N   UNL     1      -5.524  -6.519  14.079  0.00  0.00    -0.372 N 
ATOM      3  N   UNL     1      -6.530  -4.800  15.219  0.00  0.00    -0.372 N 
ATOM      4  C   UNL     1      -5.508  -5.241  14.479  0.00  0.00    +0.166 C 
ATOM      5  H   UNL     1      -3.725  -4.852  13.594  0.00  0.00    +0.163 HD
ATOM      6  H   UNL     1      -6.284  -7.139  14.323  0.00  0.00    +0.159 HD
ATOM      7  H   UNL     1      -4.786  -6.906  13.504  0.00  0.00    +0.159 HD
ATOM      8  H   UNL     1      -6.575  -3.848  15.557  0.00  0.00    +0.159 HD
ATOM      9  H   UNL     1      -7.295  -5.409  15.484  0.00  0.00    +0.159 HD
ENDROOT
BRANCH   1  10
ATOM     10  C   UNL     1      -4.398  -3.030  14.469  0.00  0.00    +0.151 C 
BRANCH  10  11
ATOM     11  C   UNL     1      -3.230  -2.815  15.392  0.00  0.00    -0.028 A 
ATOM     12  C   UNL     1      -3.428  -2.310  16.686  0.00  0.00    +0.005 A 
ATOM     13  C   UNL     1      -1.923  -3.120  14.981  0.00  0.00    +0.005 A 
ATOM     14  C   UNL     1      -2.347  -2.139  17.553  0.00  0.00    +0.000 A 
ATOM     15  C   UNL     1      -0.846  -2.947  15.850  0.00  0.00    +0.000 A 
ATOM     16  C   UNL     1      -1.059  -2.459  17.137  0.00  0.00    +0.000 A 
ENDBRANCH  10  11
ENDBRANCH   1  10
TORSDOF 2
ENDMDL
MODEL 6
REMARK VINA RESULT:    -4.605     32.127     33.366
REMARK INTER + INTRA:          -5.271
REMARK INTER:                  -5.134
REMARK INTRA:                  -0.138
REMARK UNBOUND:                -0.127
REMARK  Name = 1550473
REMARK  2 active torsions:
REMARK  status: ('A' for Active; 'I' for Inactive)
REMARK    1  A    between atoms: N_1  and  C_4
REMARK    2  A    between atoms: C_4  and  C_5
REMARK                            x       y       z     vdW  Elec       q    Type
REMARK                         _______ _______ _______ _____ _____    ______ ____
ROOT
ATOM      1  N   UNL     1      -1.888  -0.729  18.766  0.00  0.00    -0.354 N 
ATOM      2  N   UNL     1      -3.579  -1.641  17.473  0.00  0.00    -0.372 N 
ATOM      3  N   UNL     1      -1.632  -2.825  17.748  0.00  0.00    -0.372 N 
ATOM      4  C   UNL     1      -2.353  -1.728  18.004  0.00  0.00    +0.166 C 
ATOM      5  H   UNL     1      -2.472   0.089  18.897  0.00  0.00    +0.163 HD
ATOM      6  H   UNL     1      -3.958  -2.380  16.896  0.00  0.00    +0.159 HD
ATOM      7  H   UNL     1      -4.178  -0.843  17.643  0.00  0.00    +0.159 HD
ATOM      8  H   UNL     1      -0.698  -2.949  18.114  0.00  0.00    +0.159 HD
ATOM      9  H   UNL     1      -1.990  -3.570  17.164  0.00  0.00    +0.159 HD
ENDROOT
BRANCH   1  10
ATOM     10  C   UNL     1      -0.589  -0.749  19.435  0.00  0.00    +0.151 C 
BRANCH  10  11
ATOM     11  C   UNL     1       0.091   0.576  19.228  0.00  0.00    -0.028 A 
ATOM     12  C   UNL     1       0.198   1.128  17.942  0.00  0.00    +0.005 A 
ATOM     13  C   UNL     1       0.625   1.289  20.312  0.00  0.00    +0.005 A 
ATOM     14  C   UNL     1       0.802   2.373  17.752  0.00  0.00    +0.000 A 
ATOM     15  C   UNL     1       1.228   2.531  20.119  0.00  0.00    +0.000 A 
ATOM     16  C   UNL     1       1.315   3.074  18.839  0.00  0.00    +0.000 A 
ENDBRANCH  10  11
ENDBRANCH   1  10
TORSDOF 2
ENDMDL
MODEL 7
REMARK VINA RESULT:    -4.595     29.189     30.559
REMARK INTER + INTRA:          -5.260
REMARK INTER:                  -5.127
REMARK INTRA:                  -0.133
REMARK UNBOUND:                -0.127
REMARK  Name = 1550473
REMARK  2 active torsions:
REMARK  status: ('A' for Active; 'I' for Inactive)
REMARK    1  A    between atoms: N_1  and  C_4
REMARK    2  A    between atoms: C_4  and  C_5
REMARK                            x       y       z     vdW  Elec       q    Type
REMARK                         _______ _______ _______ _____ _____    ______ ____
ROOT
ATOM      1  N   UNL     1       0.181  -2.451  17.050  0.00  0.00    -0.354 N 
ATOM      2  N   UNL     1       1.204  -0.725  18.207  0.00  0.00    -0.372 N 
ATOM      3  N   UNL     1       1.031  -0.579  15.924  0.00  0.00    -0.372 N 
ATOM      4  C   UNL     1       0.799  -1.262  17.050  0.00  0.00    +0.166 C 
ATOM      5  H   UNL     1       0.063  -2.932  17.934  0.00  0.00    +0.163 HD
ATOM      6  H   UNL     1       1.669   0.172  18.239  0.00  0.00    +0.159 HD
ATOM      7  H   UNL     1       1.043  -1.187  19.094  0.00  0.00    +0.159 HD
ATOM      8  H   UNL     1       0.755  -0.932  15.017  0.00  0.00    +0.159 HD
ATOM      9  H   UNL     1       1.506   0.315  15.934  0.00  0.00    +0.159 HD
ENDROOT
BRANCH   1  10
ATOM     10  C   UNL     1      -0.346  -3.098  15.850  0.00  0.00    +0.151 C 
BRANCH  10  11
ATOM     11  C   UNL     1      -1.828  -2.851  15.770  0.00  0.00    -0.028 A 
ATOM     12  C   UNL     1      -2.563  -2.549  16.925  0.00  0.00    +0.005 A 
ATOM     13  C   UNL     1      -2.501  -2.911  14.540  0.00  0.00    +0.005 A 
ATOM     14  C   UNL     1      -3.933  -2.290  16.847  0.00  0.00    +0.000 A 
ATOM     15  C   UNL     1      -3.870  -2.653  14.466  0.00  0.00    +0.000 A 
ATOM     16  C   UNL     1      -4.585  -2.340  15.619  0.00  0.00    +0.000 A 
ENDBRANCH  10  11
ENDBRANCH   1  10
TORSDOF 2
ENDMDL
MODEL 8
REMARK VINA RESULT:    -4.588     17.500     18.741
REMARK INTER + INTRA:          -5.252
REMARK INTER:                  -5.156
REMARK INTRA:                  -0.095
REMARK UNBOUND:                -0.127
REMARK  Name = 1550473
REMARK  2 active torsions:
REMARK  status: ('A' for Active; 'I' for Inactive)
REMARK    1  A    between atoms: N_1  and  C_4
REMARK    2  A    between atoms: C_4  and  C_5
REMARK                            x       y       z     vdW  Elec       q    Type
REMARK                         _______ _______ _______ _____ _____    ______ ____
ROOT
ATOM      1  N   UNL     1      14.409  -9.519 -12.367  0.00  0.00    -0.354 N 
ATOM      2  N   UNL     1      15.901 -10.915 -11.276  0.00  0.00    -0.372 N 
ATOM      3  N   UNL     1      15.704 -11.067 -13.557  0.00  0.00    -0.372 N 
ATOM      4  C   UNL     1      15.329 -10.492 -12.410  0.00  0.00    +0.166 C 
ATOM      5  H   UNL     1      14.146  -9.145 -11.463  0.00  0.00    +0.163 HD
ATOM      6  H   UNL     1      16.600 -11.645 -11.278  0.00  0.00    +0.159 HD
ATOM      7  H   UNL     1      15.669 -10.508 -10.378  0.00  0.00    +0.159 HD
ATOM      8  H   UNL     1      15.306 -10.798 -14.447  0.00  0.00    +0.159 HD
ATOM      9  H   UNL     1      16.394 -11.808 -13.578  0.00  0.00    +0.159 HD
ENDROOT
BRANCH   1  10
ATOM     10  C   UNL     1      13.766  -8.949 -13.550  0.00  0.00    +0.151 C 
BRANCH  10  11
ATOM     11  C   UNL     1      12.461  -8.321 -13.144  0.00  0.00    -0.028 A 
ATOM     12  C   UNL     1      12.417  -6.986 -12.713  0.00  0.00    +0.005 A 
ATOM     13  C   UNL     1      11.264  -9.052 -13.193  0.00  0.00    +0.005 A 
ATOM     14  C   UNL     1      11.202  -6.393 -12.365  0.00  0.00    +0.000 A 
ATOM     15  C   UNL     1      10.053  -8.456 -12.844  0.00  0.00    +0.000 A 
ATOM     16  C   UNL     1      10.022  -7.126 -12.432  0.00  0.00    +0.000 A 
ENDBRANCH  10  11
ENDBRANCH   1  10
TORSDOF 2
ENDMDL
MODEL 9
REMARK VINA RESULT:    -4.512     28.829     30.595
REMARK INTER + INTRA:          -5.166
REMARK INTER:                  -5.049
REMARK INTRA:                  -0.118
REMARK UNBOUND:                -0.127
REMARK  Name = 1550473
REMARK  2 active torsions:
REMARK  status: ('A' for Active; 'I' for Inactive)
REMARK    1  A    between atoms: N_1  and  C_4
REMARK    2  A    between atoms: C_4  and  C_5
REMARK                            x       y       z     vdW  Elec       q    Type
REMARK                         _______ _______ _______ _____ _____    ______ ____
ROOT
ATOM      1  N   UNL     1      -3.763  -2.743  15.539  0.00  0.00    -0.354 N 
ATOM      2  N   UNL     1      -6.039  -2.550  15.160  0.00  0.00    -0.372 N 
ATOM      3  N   UNL     1      -4.819  -4.003  13.869  0.00  0.00    -0.372 N 
ATOM      4  C   UNL     1      -4.858  -3.102  14.856  0.00  0.00    +0.166 C 
ATOM      5  H   UNL     1      -3.854  -2.032  16.256  0.00  0.00    +0.163 HD
ATOM      6  H   UNL     1      -6.884  -2.804  14.664  0.00  0.00    +0.159 HD
ATOM      7  H   UNL     1      -6.135  -1.874  15.907  0.00  0.00    +0.159 HD
ATOM      8  H   UNL     1      -3.958  -4.451  13.587  0.00  0.00    +0.159 HD
ATOM      9  H   UNL     1      -5.651  -4.261  13.353  0.00  0.00    +0.159 HD
ENDROOT
BRANCH   1  10
ATOM     10  C   UNL     1      -2.438  -3.323  15.323  0.00  0.00    +0.151 C 
BRANCH  10  11
ATOM     11  C   UNL     1      -1.451  -2.646  16.234  0.00  0.00    -0.028 A 
ATOM     12  C   UNL     1      -1.875  -2.070  17.440  0.00  0.00    +0.005 A 
ATOM     13  C   UNL     1      -0.090  -2.583  15.899  0.00  0.00    +0.005 A 
ATOM     14  C   UNL     1      -0.954  -1.467  18.301  0.00  0.00    +0.000 A 
ATOM     15  C   UNL     1       0.826  -1.980  16.760  0.00  0.00    +0.000 A 
ATOM     16  C   UNL     1       0.394  -1.424  17.962  0.00  0.00    +0.000 A 
ENDBRANCH  10  11
ENDBRANCH   1  10
TORSDOF 2
ENDMDL
