MODEL 1
REMARK VINA RESULT:    -5.543      0.000      0.000
REMARK INTER + INTRA:          -6.351
REMARK INTER:                  -6.191
REMARK INTRA:                  -0.160
REMARK UNBOUND:                -0.160
REMARK  Name = 1550473
REMARK  2 active torsions:
REMARK  status: ('A' for Active; 'I' for Inactive)
REMARK    1  A    between atoms: N_1  and  C_4
REMARK    2  A    between atoms: C_4  and  C_5
REMARK                            x       y       z     vdW  Elec       q    Type
REMARK                         _______ _______ _______ _____ _____    ______ ____
ROOT
ATOM      1  N   UNL     1      -8.011   0.257  -4.313  0.00  0.00    -0.354 N 
ATOM      2  N   UNL     1      -7.140   0.326  -6.458  0.00  0.00    -0.372 N 
ATOM      3  N   UNL     1      -8.362  -1.507  -5.815  0.00  0.00    -0.372 N 
ATOM      4  C   UNL     1      -7.844  -0.311  -5.514  0.00  0.00    +0.166 C 
ATOM      5  H   UNL     1      -7.568   1.152  -4.138  0.00  0.00    +0.163 HD
ATOM      6  H   UNL     1      -7.001  -0.077  -7.375  0.00  0.00    +0.159 HD
ATOM      7  H   UNL     1      -6.737   1.241  -6.295  0.00  0.00    +0.159 HD
ATOM      8  H   UNL     1      -8.898  -2.042  -5.145  0.00  0.00    +0.159 HD
ATOM      9  H   UNL     1      -8.223  -1.932  -6.723  0.00  0.00    +0.159 HD
ENDROOT
BRANCH   1  10
ATOM     10  C   UNL     1      -8.805  -0.328  -3.234  0.00  0.00    +0.151 C 
BRANCH  10  11
ATOM     11  C   UNL     1      -7.902  -0.642  -2.074  0.00  0.00    -0.028 A 
ATOM     12  C   UNL     1      -7.669   0.313  -1.073  0.00  0.00    +0.005 A 
ATOM     13  C   UNL     1      -7.279  -1.896  -1.966  0.00  0.00    +0.005 A 
ATOM     14  C   UNL     1      -6.854   0.011   0.020  0.00  0.00    +0.000 A 
ATOM     15  C   UNL     1      -6.466  -2.193  -0.873  0.00  0.00    +0.000 A 
ATOM     16  C   UNL     1      -6.255  -1.240   0.121  0.00  0.00    +0.000 A 
ENDBRANCH  10  11
ENDBRANCH   1  10
TORSDOF 2
ENDMDL
MODEL 2
REMARK VINA RESULT:    -5.374      9.788     11.197
REMARK INTER + INTRA:          -6.163
REMARK INTER:                  -5.997
REMARK INTRA:                  -0.166
REMARK UNBOUND:                -0.160
REMARK  Name = 1550473
REMARK  2 active torsions:
REMARK  status: ('A' for Active; 'I' for Inactive)
REMARK    1  A    between atoms: N_1  and  C_4
REMARK    2  A    between atoms: C_4  and  C_5
REMARK                            x       y       z     vdW  Elec       q    Type
REMARK                         _______ _______ _______ _____ _____    ______ ____
ROOT
ATOM      1  N   UNL     1      -1.945 -10.922  -2.404  0.00  0.00    -0.354 N 
ATOM      2  N   UNL     1      -3.639 -12.113  -1.369  0.00  0.00    -0.372 N 
ATOM      3  N   UNL     1      -3.088 -10.038  -0.559  0.00  0.00    -0.372 N 
ATOM      4  C   UNL     1      -2.879 -11.014  -1.449  0.00  0.00    +0.166 C 
ATOM      5  H   UNL     1      -1.816 -11.709  -3.030  0.00  0.00    +0.163 HD
ATOM      6  H   UNL     1      -4.355 -12.210  -0.661  0.00  0.00    +0.159 HD
ATOM      7  H   UNL     1      -3.540 -12.879  -2.024  0.00  0.00    +0.159 HD
ATOM      8  H   UNL     1      -2.544  -9.186  -0.562  0.00  0.00    +0.159 HD
ATOM      9  H   UNL     1      -3.791 -10.122   0.164  0.00  0.00    +0.159 HD
ENDROOT
BRANCH   1  10
ATOM     10  C   UNL     1      -1.101  -9.746  -2.611  0.00  0.00    +0.151 C 
BRANCH  10  11
ATOM     11  C   UNL     1      -1.608  -8.981  -3.803  0.00  0.00    -0.028 A 
ATOM     12  C   UNL     1      -1.729  -7.584  -3.753  0.00  0.00    +0.005 A 
ATOM     13  C   UNL     1      -1.964  -9.646  -4.986  0.00  0.00    +0.005 A 
ATOM     14  C   UNL     1      -2.172  -6.870  -4.869  0.00  0.00    +0.000 A 
ATOM     15  C   UNL     1      -2.407  -8.930  -6.098  0.00  0.00    +0.000 A 
ATOM     16  C   UNL     1      -2.508  -7.542  -6.040  0.00  0.00    +0.000 A 
ENDBRANCH  10  11
ENDBRANCH   1  10
TORSDOF 2
ENDMDL
MODEL 3
REMARK VINA RESULT:    -5.319     10.229     11.372
REMARK INTER + INTRA:          -6.101
REMARK INTER:                  -5.969
REMARK INTRA:                  -0.133
REMARK UNBOUND:                -0.160
REMARK  Name = 1550473
REMARK  2 active torsions:
REMARK  status: ('A' for Active; 'I' for Inactive)
REMARK    1  A    between atoms: N_1  and  C_4
REMARK    2  A    between atoms: C_4  and  C_5
REMARK                            x       y       z     vdW  Elec       q    Type
REMARK                         _______ _______ _______ _____ _____    ______ ____
ROOT
ATOM      1  N   UNL     1      -2.244 -11.584  -5.680  0.00  0.00    -0.354 N 
ATOM      2  N   UNL     1      -2.677 -13.841  -5.396  0.00  0.00    -0.372 N 
ATOM      3  N   UNL     1      -3.914 -12.659  -6.925  0.00  0.00    -0.372 N 
ATOM      4  C   UNL     1      -2.944 -12.679  -6.004  0.00  0.00    +0.166 C 
ATOM      5  H   UNL     1      -1.543 -11.659  -4.952  0.00  0.00    +0.163 HD
ATOM      6  H   UNL     1      -3.186 -14.685  -5.622  0.00  0.00    +0.159 HD
ATOM      7  H   UNL     1      -1.944 -13.923  -4.702  0.00  0.00    +0.159 HD
ATOM      8  H   UNL     1      -4.169 -11.812  -7.415  0.00  0.00    +0.159 HD
ATOM      9  H   UNL     1      -4.443 -13.490  -7.156  0.00  0.00    +0.159 HD
ENDROOT
BRANCH   1  10
ATOM     10  C   UNL     1      -2.420 -10.282  -6.321  0.00  0.00    +0.151 C 
BRANCH  10  11
ATOM     11  C   UNL     1      -2.168  -9.198  -5.309  0.00  0.00    -0.028 A 
ATOM     12  C   UNL     1      -2.280  -7.847  -5.670  0.00  0.00    +0.005 A 
ATOM     13  C   UNL     1      -1.823  -9.516  -3.986  0.00  0.00    +0.005 A 
ATOM     14  C   UNL     1      -2.075  -6.841  -4.723  0.00  0.00    +0.000 A 
ATOM     15  C   UNL     1      -1.619  -8.508  -3.044  0.00  0.00    +0.000 A 
ATOM     16  C   UNL     1      -1.747  -7.171  -3.412  0.00  0.00    +0.000 A 
ENDBRANCH  10  11
ENDBRANCH   1  10
TORSDOF 2
ENDMDL
MODEL 4
REMARK VINA RESULT:    -5.318     16.129     17.601
REMARK INTER + INTRA:          -6.100
REMARK INTER:                  -5.977
REMARK INTRA:                  -0.124
REMARK UNBOUND:                -0.160
REMARK  Name = 1550473
REMARK  2 active torsions:
REMARK  status: ('A' for Active; 'I' for Inactive)
REMARK    1  A    between atoms: N_1  and  C_4
REMARK    2  A    between atoms: C_4  and  C_5
REMARK                            x       y       z     vdW  Elec       q    Type
REMARK                         _______ _______ _______ _____ _____    ______ ____
ROOT
ATOM      1  N   UNL     1       6.743  -3.953 -12.390  0.00  0.00    -0.354 N 
ATOM      2  N   UNL     1       6.363  -6.187 -11.908  0.00  0.00    -0.372 N 
ATOM      3  N   UNL     1       7.864  -5.647 -13.558  0.00  0.00    -0.372 N 
ATOM      4  C   UNL     1       6.994  -5.248 -12.624  0.00  0.00    +0.166 C 
ATOM      5  H   UNL     1       6.050  -3.717 -11.689  0.00  0.00    +0.163 HD
ATOM      6  H   UNL     1       6.535  -7.171 -12.060  0.00  0.00    +0.159 HD
ATOM      7  H   UNL     1       5.705  -5.946 -11.177  0.00  0.00    +0.159 HD
ATOM      8  H   UNL     1       8.369  -4.989 -14.136  0.00  0.00    +0.159 HD
ATOM      9  H   UNL     1       8.041  -6.629 -13.733  0.00  0.00    +0.159 HD
ENDROOT
BRANCH   1  10
ATOM     10  C   UNL     1       7.416  -2.852 -13.077  0.00  0.00    +0.151 C 
BRANCH  10  11
ATOM     11  C   UNL     1       6.707  -1.566 -12.755  0.00  0.00    -0.028 A 
ATOM     12  C   UNL     1       7.273  -0.333 -13.109  0.00  0.00    +0.005 A 
ATOM     13  C   UNL     1       5.464  -1.574 -12.102  0.00  0.00    +0.005 A 
ATOM     14  C   UNL     1       6.601   0.861 -12.838  0.00  0.00    +0.000 A 
ATOM     15  C   UNL     1       4.796  -0.379 -11.832  0.00  0.00    +0.000 A 
ATOM     16  C   UNL     1       5.364   0.838 -12.202  0.00  0.00    +0.000 A 
ENDBRANCH  10  11
ENDBRANCH   1  10
TORSDOF 2
ENDMDL
MODEL 5
REMARK VINA RESULT:    -4.908      8.867      9.688
REMARK INTER + INTRA:          -5.642
REMARK INTER:                  -5.510
REMARK INTRA:                  -0.132
REMARK UNBOUND:                -0.160
REMARK  Name = 1550473
REMARK  2 active torsions:
REMARK  status: ('A' for Active; 'I' for Inactive)
REMARK    1  A    between atoms: N_1  and  C_4
REMARK    2  A    between atoms: C_4  and  C_5
REMARK                            x       y       z     vdW  Elec       q    Type
REMARK                         _______ _______ _______ _____ _____    ______ ____
ROOT
ATOM      1  N   UNL     1      -7.821  -5.296   5.430  0.00  0.00    -0.354 N 
ATOM      2  N   UNL     1      -5.746  -4.294   5.663  0.00  0.00    -0.372 N 
ATOM      3  N   UNL     1      -7.523  -3.018   4.971  0.00  0.00    -0.372 N 
ATOM      4  C   UNL     1      -7.045  -4.207   5.352  0.00  0.00    +0.166 C 
ATOM      5  H   UNL     1      -7.392  -6.175   5.697  0.00  0.00    +0.163 HD
ATOM      6  H   UNL     1      -5.137  -3.489   5.617  0.00  0.00    +0.159 HD
ATOM      7  H   UNL     1      -5.330  -5.164   5.973  0.00  0.00    +0.159 HD
ATOM      8  H   UNL     1      -8.493  -2.887   4.717  0.00  0.00    +0.159 HD
ATOM      9  H   UNL     1      -6.926  -2.202   4.907  0.00  0.00    +0.159 HD
ENDROOT
BRANCH   1  10
ATOM     10  C   UNL     1      -9.259  -5.297   5.166  0.00  0.00    +0.151 C 
BRANCH  10  11
ATOM     11  C   UNL     1      -9.538  -6.165   3.970  0.00  0.00    -0.028 A 
ATOM     12  C   UNL     1      -8.493  -6.838   3.320  0.00  0.00    +0.005 A 
ATOM     13  C   UNL     1     -10.846  -6.323   3.486  0.00  0.00    +0.005 A 
ATOM     14  C   UNL     1      -8.756  -7.669   2.228  0.00  0.00    +0.000 A 
ATOM     15  C   UNL     1     -11.103  -7.152   2.394  0.00  0.00    +0.000 A 
ATOM     16  C   UNL     1     -10.059  -7.827   1.767  0.00  0.00    +0.000 A 
ENDBRANCH  10  11
ENDBRANCH   1  10
TORSDOF 2
ENDMDL
MODEL 6
REMARK VINA RESULT:    -4.805      9.487     10.777
REMARK INTER + INTRA:          -5.527
REMARK INTER:                  -5.429
REMARK INTRA:                  -0.098
REMARK UNBOUND:                -0.160
REMARK  Name = 1550473
REMARK  2 active torsions:
REMARK  status: ('A' for Active; 'I' for Inactive)
REMARK    1  A    between atoms: N_1  and  C_4
REMARK    2  A    between atoms: C_4  and  C_5
REMARK                            x       y       z     vdW  Elec       q    Type
REMARK                         _______ _______ _______ _____ _____    ______ ____
ROOT
ATOM      1  N   UNL     1      -2.321 -11.457  -4.759  0.00  0.00    -0.354 N 
ATOM      2  N   UNL     1      -3.548 -11.798  -6.694  0.00  0.00    -0.372 N 
ATOM      3  N   UNL     1      -1.913 -10.188  -6.686  0.00  0.00    -0.372 N 
ATOM      4  C   UNL     1      -2.585 -11.143  -6.035  0.00  0.00    +0.166 C 
ATOM      5  H   UNL     1      -2.887 -12.170  -4.313  0.00  0.00    +0.163 HD
ATOM      6  H   UNL     1      -3.767 -11.585  -7.658  0.00  0.00    +0.159 HD
ATOM      7  H   UNL     1      -4.081 -12.541  -6.259  0.00  0.00    +0.159 HD
ATOM      8  H   UNL     1      -1.178  -9.653  -6.243  0.00  0.00    +0.159 HD
ATOM      9  H   UNL     1      -2.125  -9.952  -7.648  0.00  0.00    +0.159 HD
ENDROOT
BRANCH   1  10
ATOM     10  C   UNL     1      -1.257 -10.842  -3.969  0.00  0.00    +0.151 C 
BRANCH  10  11
ATOM     11  C   UNL     1      -1.819  -9.666  -3.219  0.00  0.00    -0.028 A 
ATOM     12  C   UNL     1      -1.679  -8.365  -3.725  0.00  0.00    +0.005 A 
ATOM     13  C   UNL     1      -2.498  -9.846  -2.004  0.00  0.00    +0.005 A 
ATOM     14  C   UNL     1      -2.227  -7.276  -3.044  0.00  0.00    +0.000 A 
ATOM     15  C   UNL     1      -3.044  -8.755  -1.327  0.00  0.00    +0.000 A 
ATOM     16  C   UNL     1      -2.910  -7.471  -1.848  0.00  0.00    +0.000 A 
ENDBRANCH  10  11
ENDBRANCH   1  10
TORSDOF 2
ENDMDL
MODEL 7
REMARK VINA RESULT:    -4.760     17.140     18.498
REMARK INTER + INTRA:          -5.477
REMARK INTER:                  -5.334
REMARK INTRA:                  -0.144
REMARK UNBOUND:                -0.160
REMARK  Name = 1550473
REMARK  2 active torsions:
REMARK  status: ('A' for Active; 'I' for Inactive)
REMARK    1  A    between atoms: N_1  and  C_4
REMARK    2  A    between atoms: C_4  and  C_5
REMARK                            x       y       z     vdW  Elec       q    Type
REMARK                         _______ _______ _______ _____ _____    ______ ____
ROOT
ATOM      1  N   UNL     1       7.290  -5.876 -11.811  0.00  0.00    -0.354 N 
ATOM      2  N   UNL     1       6.068  -7.839 -11.687  0.00  0.00    -0.372 N 
ATOM      3  N   UNL     1       7.618  -7.602 -13.362  0.00  0.00    -0.372 N 
ATOM      4  C   UNL     1       7.002  -7.093 -12.290  0.00  0.00    +0.166 C 
ATOM      5  H   UNL     1       6.766  -5.535 -11.014  0.00  0.00    +0.163 HD
ATOM      6  H   UNL     1       5.831  -8.763 -12.023  0.00  0.00    +0.159 HD
ATOM      7  H   UNL     1       5.577  -7.514 -10.862  0.00  0.00    +0.159 HD
ATOM      8  H   UNL     1       8.328  -7.088 -13.865  0.00  0.00    +0.159 HD
ATOM      9  H   UNL     1       7.387  -8.520 -13.720  0.00  0.00    +0.159 HD
ENDROOT
BRANCH   1  10
ATOM     10  C   UNL     1       8.328  -5.006 -12.362  0.00  0.00    +0.151 C 
BRANCH  10  11
ATOM     11  C   UNL     1       7.744  -3.643 -12.614  0.00  0.00    -0.028 A 
ATOM     12  C   UNL     1       6.469  -3.315 -12.131  0.00  0.00    +0.005 A 
ATOM     13  C   UNL     1       8.464  -2.674 -13.329  0.00  0.00    +0.005 A 
ATOM     14  C   UNL     1       5.938  -2.039 -12.339  0.00  0.00    +0.000 A 
ATOM     15  C   UNL     1       7.930  -1.402 -13.535  0.00  0.00    +0.000 A 
ATOM     16  C   UNL     1       6.669  -1.084 -13.038  0.00  0.00    +0.000 A 
ENDBRANCH  10  11
ENDBRANCH   1  10
TORSDOF 2
ENDMDL
MODEL 8
REMARK VINA RESULT:    -4.712     16.835     18.302
REMARK INTER + INTRA:          -5.423
REMARK INTER:                  -5.244
REMARK INTRA:                  -0.179
REMARK UNBOUND:                -0.160
REMARK  Name = 1550473
REMARK  2 active torsions:
REMARK  status: ('A' for Active; 'I' for Inactive)
REMARK    1  A    between atoms: N_1  and  C_4
REMARK    2  A    between atoms: C_4  and  C_5
REMARK                            x       y       z     vdW  Elec       q    Type
REMARK                         _______ _______ _______ _____ _____    ______ ____
ROOT
ATOM      1  N   UNL     1       7.822  -3.402 -13.245  0.00  0.00    -0.354 N 
ATOM      2  N   UNL     1       9.659  -4.373 -12.221  0.00  0.00    -0.372 N 
ATOM      3  N   UNL     1       9.989  -2.602 -13.643  0.00  0.00    -0.372 N 
ATOM      4  C   UNL     1       9.146  -3.451 -13.045  0.00  0.00    +0.166 C 
ATOM      5  H   UNL     1       7.240  -4.093 -12.785  0.00  0.00    +0.163 HD
ATOM      6  H   UNL     1      10.653  -4.431 -12.048  0.00  0.00    +0.159 HD
ATOM      7  H   UNL     1       9.070  -5.032 -11.727  0.00  0.00    +0.159 HD
ATOM      8  H   UNL     1       9.666  -1.887 -14.281  0.00  0.00    +0.159 HD
ATOM      9  H   UNL     1      10.988  -2.653 -13.492  0.00  0.00    +0.159 HD
ENDROOT
BRANCH   1  10
ATOM     10  C   UNL     1       7.158  -2.403 -14.081  0.00  0.00    +0.151 C 
BRANCH  10  11
ATOM     11  C   UNL     1       6.677  -1.276 -13.209  0.00  0.00    -0.028 A 
ATOM     12  C   UNL     1       5.810  -1.526 -12.136  0.00  0.00    +0.005 A 
ATOM     13  C   UNL     1       7.089   0.044 -13.449  0.00  0.00    +0.005 A 
ATOM     14  C   UNL     1       5.386  -0.483 -11.308  0.00  0.00    +0.000 A 
ATOM     15  C   UNL     1       6.663   1.083 -12.621  0.00  0.00    +0.000 A 
ATOM     16  C   UNL     1       5.814   0.818 -11.549  0.00  0.00    +0.000 A 
ENDBRANCH  10  11
ENDBRANCH   1  10
TORSDOF 2
ENDMDL
MODEL 9
REMARK VINA RESULT:    -4.697     19.168     20.144
REMARK INTER + INTRA:          -5.407
REMARK INTER:                  -5.265
REMARK INTRA:                  -0.142
REMARK UNBOUND:                -0.160
REMARK  Name = 1550473
REMARK  2 active torsions:
REMARK  status: ('A' for Active; 'I' for Inactive)
REMARK    1  A    between atoms: N_1  and  C_4
REMARK    2  A    between atoms: C_4  and  C_5
REMARK                            x       y       z     vdW  Elec       q    Type
REMARK                         _______ _______ _______ _____ _____    ______ ____
ROOT
ATOM      1  N   UNL     1      10.172  -7.992  -3.178  0.00  0.00    -0.354 N 
ATOM      2  N   UNL     1       8.005  -8.308  -2.421  0.00  0.00    -0.372 N 
ATOM      3  N   UNL     1       8.710  -9.455  -4.280  0.00  0.00    -0.372 N 
ATOM      4  C   UNL     1       8.976  -8.585  -3.300  0.00  0.00    +0.166 C 
ATOM      5  H   UNL     1      10.301  -7.319  -2.431  0.00  0.00    +0.163 HD
ATOM      6  H   UNL     1       7.095  -8.742  -2.486  0.00  0.00    +0.159 HD
ATOM      7  H   UNL     1       8.152  -7.669  -1.649  0.00  0.00    +0.159 HD
ATOM      8  H   UNL     1       9.398  -9.702  -4.978  0.00  0.00    +0.159 HD
ATOM      9  H   UNL     1       7.801  -9.892  -4.368  0.00  0.00    +0.159 HD
ENDROOT
BRANCH   1  10
ATOM     10  C   UNL     1      11.313  -8.265  -4.050  0.00  0.00    +0.151 C 
BRANCH  10  11
ATOM     11  C   UNL     1      11.928  -6.960  -4.476  0.00  0.00    -0.028 A 
ATOM     12  C   UNL     1      13.164  -6.939  -5.138  0.00  0.00    +0.005 A 
ATOM     13  C   UNL     1      11.276  -5.743  -4.227  0.00  0.00    +0.005 A 
ATOM     14  C   UNL     1      13.721  -5.730  -5.561  0.00  0.00    +0.000 A 
ATOM     15  C   UNL     1      11.836  -4.538  -4.650  0.00  0.00    +0.000 A 
ATOM     16  C   UNL     1      13.058  -4.532  -5.319  0.00  0.00    +0.000 A 
ENDBRANCH  10  11
ENDBRANCH   1  10
TORSDOF 2
ENDMDL
