MODEL 1
REMARK VINA RESULT:    -5.981      0.000      0.000
REMARK INTER + INTRA:          -6.812
REMARK INTER:                  -6.681
REMARK INTRA:                  -0.131
REMARK UNBOUND:                -0.131
REMARK  Name = 1550473
REMARK  2 active torsions:
REMARK  status: ('A' for Active; 'I' for Inactive)
REMARK    1  A    between atoms: N_1  and  C_4
REMARK    2  A    between atoms: C_4  and  C_5
REMARK                            x       y       z     vdW  Elec       q    Type
REMARK                         _______ _______ _______ _____ _____    ______ ____
ROOT
ATOM      1  N   UNL     1       5.152  -5.180  10.881  0.00  0.00    -0.354 N 
ATOM      2  N   UNL     1       5.458  -7.357  10.153  0.00  0.00    -0.372 N 
ATOM      3  N   UNL     1       4.781  -5.767   8.643  0.00  0.00    -0.372 N 
ATOM      4  C   UNL     1       5.127  -6.086   9.895  0.00  0.00    +0.166 C 
ATOM      5  H   UNL     1       5.394  -5.491  11.815  0.00  0.00    +0.163 HD
ATOM      6  H   UNL     1       5.452  -8.062   9.428  0.00  0.00    +0.159 HD
ATOM      7  H   UNL     1       5.744  -7.656  11.077  0.00  0.00    +0.159 HD
ATOM      8  H   UNL     1       4.515  -4.827   8.384  0.00  0.00    +0.159 HD
ATOM      9  H   UNL     1       4.757  -6.462   7.907  0.00  0.00    +0.159 HD
ENDROOT
BRANCH   1  10
ATOM     10  C   UNL     1       4.861  -3.760  10.694  0.00  0.00    +0.151 C 
BRANCH  10  11
ATOM     11  C   UNL     1       4.264  -3.209  11.960  0.00  0.00    -0.028 A 
ATOM     12  C   UNL     1       4.169  -4.009  13.108  0.00  0.00    +0.005 A 
ATOM     13  C   UNL     1       3.796  -1.888  12.019  0.00  0.00    +0.005 A 
ATOM     14  C   UNL     1       3.642  -3.489  14.293  0.00  0.00    +0.000 A 
ATOM     15  C   UNL     1       3.269  -1.373  13.203  0.00  0.00    +0.000 A 
ATOM     16  C   UNL     1       3.195  -2.173  14.341  0.00  0.00    +0.000 A 
ENDBRANCH  10  11
ENDBRANCH   1  10
TORSDOF 2
ENDMDL
MODEL 2
REMARK VINA RESULT:    -5.967      6.741      8.073
REMARK INTER + INTRA:          -6.795
REMARK INTER:                  -6.642
REMARK INTRA:                  -0.153
REMARK UNBOUND:                -0.131
REMARK  Name = 1550473
REMARK  2 active torsions:
REMARK  status: ('A' for Active; 'I' for Inactive)
REMARK    1  A    between atoms: N_1  and  C_4
REMARK    2  A    between atoms: C_4  and  C_5
REMARK                            x       y       z     vdW  Elec       q    Type
REMARK                         _______ _______ _______ _____ _____    ______ ____
ROOT
ATOM      1  N   UNL     1       4.508   4.788  11.369  0.00  0.00    -0.354 N 
ATOM      2  N   UNL     1       5.839   5.729   9.724  0.00  0.00    -0.372 N 
ATOM      3  N   UNL     1       6.839   4.870  11.602  0.00  0.00    -0.372 N 
ATOM      4  C   UNL     1       5.722   5.122  10.911  0.00  0.00    +0.166 C 
ATOM      5  H   UNL     1       3.699   5.034  10.811  0.00  0.00    +0.163 HD
ATOM      6  H   UNL     1       6.742   5.990   9.351  0.00  0.00    +0.159 HD
ATOM      7  H   UNL     1       5.032   5.932   9.147  0.00  0.00    +0.159 HD
ATOM      8  H   UNL     1       6.818   4.420  12.507  0.00  0.00    +0.159 HD
ATOM      9  H   UNL     1       7.751   5.134  11.251  0.00  0.00    +0.159 HD
ENDROOT
BRANCH   1  10
ATOM     10  C   UNL     1       4.275   4.077  12.624  0.00  0.00    +0.151 C 
BRANCH  10  11
ATOM     11  C   UNL     1       3.813   2.679  12.318  0.00  0.00    -0.028 A 
ATOM     12  C   UNL     1       3.980   1.652  13.259  0.00  0.00    +0.005 A 
ATOM     13  C   UNL     1       3.201   2.377  11.092  0.00  0.00    +0.005 A 
ATOM     14  C   UNL     1       3.523   0.360  12.987  0.00  0.00    +0.000 A 
ATOM     15  C   UNL     1       2.747   1.085  10.824  0.00  0.00    +0.000 A 
ATOM     16  C   UNL     1       2.906   0.078  11.773  0.00  0.00    +0.000 A 
ENDBRANCH  10  11
ENDBRANCH   1  10
TORSDOF 2
ENDMDL
MODEL 3
REMARK VINA RESULT:    -5.808     12.699     13.699
REMARK INTER + INTRA:          -6.619
REMARK INTER:                  -6.515
REMARK INTRA:                  -0.103
REMARK UNBOUND:                -0.131
REMARK  Name = 1550473
REMARK  2 active torsions:
REMARK  status: ('A' for Active; 'I' for Inactive)
REMARK    1  A    between atoms: N_1  and  C_4
REMARK    2  A    between atoms: C_4  and  C_5
REMARK                            x       y       z     vdW  Elec       q    Type
REMARK                         _______ _______ _______ _____ _____    ______ ____
ROOT
ATOM      1  N   UNL     1      -1.075  -1.572  -0.169  0.00  0.00    -0.354 N 
ATOM      2  N   UNL     1      -2.146  -3.519  -0.824  0.00  0.00    -0.372 N 
ATOM      3  N   UNL     1      -0.555  -2.611  -2.205  0.00  0.00    -0.372 N 
ATOM      4  C   UNL     1      -1.250  -2.554  -1.064  0.00  0.00    +0.166 C 
ATOM      5  H   UNL     1      -1.655  -1.570   0.662  0.00  0.00    +0.163 HD
ATOM      6  H   UNL     1      -2.298  -4.274  -1.479  0.00  0.00    +0.159 HD
ATOM      7  H   UNL     1      -2.692  -3.539   0.029  0.00  0.00    +0.159 HD
ATOM      8  H   UNL     1       0.132  -1.910  -2.448  0.00  0.00    +0.159 HD
ATOM      9  H   UNL     1      -0.701  -3.352  -2.878  0.00  0.00    +0.159 HD
ENDROOT
BRANCH   1  10
ATOM     10  C   UNL     1      -0.087  -0.504  -0.310  0.00  0.00    +0.151 C 
BRANCH  10  11
ATOM     11  C   UNL     1      -0.650   0.765   0.267  0.00  0.00    -0.028 A 
ATOM     12  C   UNL     1      -1.156   1.767  -0.574  0.00  0.00    +0.005 A 
ATOM     13  C   UNL     1      -0.686   0.969   1.655  0.00  0.00    +0.005 A 
ATOM     14  C   UNL     1      -1.707   2.933  -0.036  0.00  0.00    +0.000 A 
ATOM     15  C   UNL     1      -1.235   2.135   2.188  0.00  0.00    +0.000 A 
ATOM     16  C   UNL     1      -1.748   3.116   1.342  0.00  0.00    +0.000 A 
ENDBRANCH  10  11
ENDBRANCH   1  10
TORSDOF 2
ENDMDL
MODEL 4
REMARK VINA RESULT:    -5.714     13.160     14.210
REMARK INTER + INTRA:          -6.513
REMARK INTER:                  -6.368
REMARK INTRA:                  -0.145
REMARK UNBOUND:                -0.131
REMARK  Name = 1550473
REMARK  2 active torsions:
REMARK  status: ('A' for Active; 'I' for Inactive)
REMARK    1  A    between atoms: N_1  and  C_4
REMARK    2  A    between atoms: C_4  and  C_5
REMARK                            x       y       z     vdW  Elec       q    Type
REMARK                         _______ _______ _______ _____ _____    ______ ____
ROOT
ATOM      1  N   UNL     1      -0.766  -2.487   0.321  0.00  0.00    -0.354 N 
ATOM      2  N   UNL     1      -1.743  -4.552   0.697  0.00  0.00    -0.372 N 
ATOM      3  N   UNL     1      -0.699  -4.169  -1.309  0.00  0.00    -0.372 N 
ATOM      4  C   UNL     1      -1.062  -3.723  -0.102  0.00  0.00    +0.166 C 
ATOM      5  H   UNL     1      -1.096  -2.199   1.235  0.00  0.00    +0.163 HD
ATOM      6  H   UNL     1      -1.978  -5.492   0.407  0.00  0.00    +0.159 HD
ATOM      7  H   UNL     1      -2.032  -4.277   1.628  0.00  0.00    +0.159 HD
ATOM      8  H   UNL     1      -0.188  -3.590  -1.963  0.00  0.00    +0.159 HD
ATOM      9  H   UNL     1      -0.935  -5.102  -1.623  0.00  0.00    +0.159 HD
ENDROOT
BRANCH   1  10
ATOM     10  C   UNL     1       0.018  -1.524  -0.451  0.00  0.00    +0.151 C 
BRANCH  10  11
ATOM     11  C   UNL     1      -0.849  -0.342  -0.789  0.00  0.00    -0.028 A 
ATOM     12  C   UNL     1      -0.472   0.951  -0.400  0.00  0.00    +0.005 A 
ATOM     13  C   UNL     1      -2.046  -0.509  -1.502  0.00  0.00    +0.005 A 
ATOM     14  C   UNL     1      -1.262   2.053  -0.739  0.00  0.00    +0.000 A 
ATOM     15  C   UNL     1      -2.832   0.593  -1.837  0.00  0.00    +0.000 A 
ATOM     16  C   UNL     1      -2.439   1.874  -1.458  0.00  0.00    +0.000 A 
ENDBRANCH  10  11
ENDBRANCH   1  10
TORSDOF 2
ENDMDL
MODEL 5
REMARK VINA RESULT:    -5.662      3.121      4.015
REMARK INTER + INTRA:          -6.455
REMARK INTER:                  -6.327
REMARK INTRA:                  -0.129
REMARK UNBOUND:                -0.131
REMARK  Name = 1550473
REMARK  2 active torsions:
REMARK  status: ('A' for Active; 'I' for Inactive)
REMARK    1  A    between atoms: N_1  and  C_4
REMARK    2  A    between atoms: C_4  and  C_5
REMARK                            x       y       z     vdW  Elec       q    Type
REMARK                         _______ _______ _______ _____ _____    ______ ____
ROOT
ATOM      1  N   UNL     1       4.116  -6.079   8.584  0.00  0.00    -0.354 N 
ATOM      2  N   UNL     1       4.942  -7.704  10.012  0.00  0.00    -0.372 N 
ATOM      3  N   UNL     1       2.671  -7.421   9.850  0.00  0.00    -0.372 N 
ATOM      4  C   UNL     1       3.901  -7.057   9.473  0.00  0.00    +0.166 C 
ATOM      5  H   UNL     1       5.073  -5.830   8.363  0.00  0.00    +0.163 HD
ATOM      6  H   UNL     1       4.811  -8.449  10.683  0.00  0.00    +0.159 HD
ATOM      7  H   UNL     1       5.897  -7.485   9.755  0.00  0.00    +0.159 HD
ATOM      8  H   UNL     1       1.843  -6.968   9.485  0.00  0.00    +0.159 HD
ATOM      9  H   UNL     1       2.520  -8.156  10.529  0.00  0.00    +0.159 HD
ENDROOT
BRANCH   1  10
ATOM     10  C   UNL     1       3.050  -5.349   7.898  0.00  0.00    +0.151 C 
BRANCH  10  11
ATOM     11  C   UNL     1       3.199  -3.880   8.183  0.00  0.00    -0.028 A 
ATOM     12  C   UNL     1       3.986  -3.439   9.257  0.00  0.00    +0.005 A 
ATOM     13  C   UNL     1       2.561  -2.924   7.379  0.00  0.00    +0.005 A 
ATOM     14  C   UNL     1       4.149  -2.074   9.504  0.00  0.00    +0.000 A 
ATOM     15  C   UNL     1       2.725  -1.561   7.629  0.00  0.00    +0.000 A 
ATOM     16  C   UNL     1       3.521  -1.137   8.690  0.00  0.00    +0.000 A 
ENDBRANCH  10  11
ENDBRANCH   1  10
TORSDOF 2
ENDMDL
MODEL 6
REMARK VINA RESULT:    -5.582      6.061      7.549
REMARK INTER + INTRA:          -6.365
REMARK INTER:                  -6.243
REMARK INTRA:                  -0.123
REMARK UNBOUND:                -0.131
REMARK  Name = 1550473
REMARK  2 active torsions:
REMARK  status: ('A' for Active; 'I' for Inactive)
REMARK    1  A    between atoms: N_1  and  C_4
REMARK    2  A    between atoms: C_4  and  C_5
REMARK                            x       y       z     vdW  Elec       q    Type
REMARK                         _______ _______ _______ _____ _____    ______ ____
ROOT
ATOM      1  N   UNL     1       3.950   3.655  11.399  0.00  0.00    -0.354 N 
ATOM      2  N   UNL     1       5.420   5.355  11.958  0.00  0.00    -0.372 N 
ATOM      3  N   UNL     1       4.885   5.032   9.750  0.00  0.00    -0.372 N 
ATOM      4  C   UNL     1       4.742   4.670  11.029  0.00  0.00    +0.166 C 
ATOM      5  H   UNL     1       3.908   3.411  12.382  0.00  0.00    +0.163 HD
ATOM      6  H   UNL     1       6.024   6.127  11.709  0.00  0.00    +0.159 HD
ATOM      7  H   UNL     1       5.341   5.138  12.944  0.00  0.00    +0.159 HD
ATOM      8  H   UNL     1       4.406   4.552   9.000  0.00  0.00    +0.159 HD
ATOM      9  H   UNL     1       5.494   5.795   9.480  0.00  0.00    +0.159 HD
ENDROOT
BRANCH   1  10
ATOM     10  C   UNL     1       3.127   2.880  10.472  0.00  0.00    +0.151 C 
BRANCH  10  11
ATOM     11  C   UNL     1       3.274   1.418  10.790  0.00  0.00    -0.028 A 
ATOM     12  C   UNL     1       3.455   0.481   9.762  0.00  0.00    +0.005 A 
ATOM     13  C   UNL     1       3.238   0.963  12.117  0.00  0.00    +0.005 A 
ATOM     14  C   UNL     1       3.621  -0.874  10.058  0.00  0.00    +0.000 A 
ATOM     15  C   UNL     1       3.404  -0.390  12.409  0.00  0.00    +0.000 A 
ATOM     16  C   UNL     1       3.598  -1.309  11.379  0.00  0.00    +0.000 A 
ENDBRANCH  10  11
ENDBRANCH   1  10
TORSDOF 2
ENDMDL
MODEL 7
REMARK VINA RESULT:    -5.511      2.909      3.713
REMARK INTER + INTRA:          -6.287
REMARK INTER:                  -6.158
REMARK INTRA:                  -0.129
REMARK UNBOUND:                -0.131
REMARK  Name = 1550473
REMARK  2 active torsions:
REMARK  status: ('A' for Active; 'I' for Inactive)
REMARK    1  A    between atoms: N_1  and  C_4
REMARK    2  A    between atoms: C_4  and  C_5
REMARK                            x       y       z     vdW  Elec       q    Type
REMARK                         _______ _______ _______ _____ _____    ______ ____
ROOT
ATOM      1  N   UNL     1       2.759  -2.454   7.877  0.00  0.00    -0.354 N 
ATOM      2  N   UNL     1       1.127  -3.621   6.721  0.00  0.00    -0.372 N 
ATOM      3  N   UNL     1       2.765  -4.797   7.815  0.00  0.00    -0.372 N 
ATOM      4  C   UNL     1       2.229  -3.618   7.479  0.00  0.00    +0.166 C 
ATOM      5  H   UNL     1       2.323  -1.594   7.564  0.00  0.00    +0.163 HD
ATOM      6  H   UNL     1       0.702  -4.483   6.408  0.00  0.00    +0.159 HD
ATOM      7  H   UNL     1       0.666  -2.761   6.447  0.00  0.00    +0.159 HD
ATOM      8  H   UNL     1       3.601  -4.863   8.380  0.00  0.00    +0.159 HD
ATOM      9  H   UNL     1       2.362  -5.671   7.502  0.00  0.00    +0.159 HD
ENDROOT
BRANCH   1  10
ATOM     10  C   UNL     1       3.927  -2.343   8.750  0.00  0.00    +0.151 C 
BRANCH  10  11
ATOM     11  C   UNL     1       3.571  -1.497   9.941  0.00  0.00    -0.028 A 
ATOM     12  C   UNL     1       3.814  -1.962  11.242  0.00  0.00    +0.005 A 
ATOM     13  C   UNL     1       2.997  -0.227   9.776  0.00  0.00    +0.005 A 
ATOM     14  C   UNL     1       3.511  -1.164  12.348  0.00  0.00    +0.000 A 
ATOM     15  C   UNL     1       2.696   0.566  10.883  0.00  0.00    +0.000 A 
ATOM     16  C   UNL     1       2.955   0.098  12.169  0.00  0.00    +0.000 A 
ENDBRANCH  10  11
ENDBRANCH   1  10
TORSDOF 2
ENDMDL
MODEL 8
REMARK VINA RESULT:    -5.404      1.832      2.072
REMARK INTER + INTRA:          -6.167
REMARK INTER:                  -5.987
REMARK INTRA:                  -0.179
REMARK UNBOUND:                -0.131
REMARK  Name = 1550473
REMARK  2 active torsions:
REMARK  status: ('A' for Active; 'I' for Inactive)
REMARK    1  A    between atoms: N_1  and  C_4
REMARK    2  A    between atoms: C_4  and  C_5
REMARK                            x       y       z     vdW  Elec       q    Type
REMARK                         _______ _______ _______ _____ _____    ______ ____
ROOT
ATOM      1  N   UNL     1       3.695  -7.002  11.341  0.00  0.00    -0.354 N 
ATOM      2  N   UNL     1       1.887  -8.213  10.551  0.00  0.00    -0.372 N 
ATOM      3  N   UNL     1       2.754  -6.536   9.247  0.00  0.00    -0.372 N 
ATOM      4  C   UNL     1       2.791  -7.240  10.383  0.00  0.00    +0.166 C 
ATOM      5  H   UNL     1       3.651  -7.551  12.192  0.00  0.00    +0.163 HD
ATOM      6  H   UNL     1       1.194  -8.419   9.843  0.00  0.00    +0.159 HD
ATOM      7  H   UNL     1       1.874  -8.791  11.382  0.00  0.00    +0.159 HD
ATOM      8  H   UNL     1       3.404  -5.785   9.061  0.00  0.00    +0.159 HD
ATOM      9  H   UNL     1       2.061  -6.719   8.532  0.00  0.00    +0.159 HD
ENDROOT
BRANCH   1  10
ATOM     10  C   UNL     1       4.756  -6.001  11.234  0.00  0.00    +0.151 C 
BRANCH  10  11
ATOM     11  C   UNL     1       4.343  -4.765  11.985  0.00  0.00    -0.028 A 
ATOM     12  C   UNL     1       4.111  -4.816  13.367  0.00  0.00    +0.005 A 
ATOM     13  C   UNL     1       4.188  -3.539  11.320  0.00  0.00    +0.005 A 
ATOM     14  C   UNL     1       3.757  -3.662  14.070  0.00  0.00    +0.000 A 
ATOM     15  C   UNL     1       3.834  -2.389  12.025  0.00  0.00    +0.000 A 
ATOM     16  C   UNL     1       3.621  -2.450  13.400  0.00  0.00    +0.000 A 
ENDBRANCH  10  11
ENDBRANCH   1  10
TORSDOF 2
ENDMDL
MODEL 9
REMARK VINA RESULT:    -5.389      4.751      6.091
REMARK INTER + INTRA:          -6.150
REMARK INTER:                  -6.033
REMARK INTRA:                  -0.117
REMARK UNBOUND:                -0.131
REMARK  Name = 1550473
REMARK  2 active torsions:
REMARK  status: ('A' for Active; 'I' for Inactive)
REMARK    1  A    between atoms: N_1  and  C_4
REMARK    2  A    between atoms: C_4  and  C_5
REMARK                            x       y       z     vdW  Elec       q    Type
REMARK                         _______ _______ _______ _____ _____    ______ ____
ROOT
ATOM      1  N   UNL     1       3.223   1.550  11.272  0.00  0.00    -0.354 N 
ATOM      2  N   UNL     1       3.421   3.790  11.828  0.00  0.00    -0.372 N 
ATOM      3  N   UNL     1       3.307   3.203   9.612  0.00  0.00    -0.372 N 
ATOM      4  C   UNL     1       3.316   2.833  10.897  0.00  0.00    +0.166 C 
ATOM      5  H   UNL     1       3.266   1.333  12.261  0.00  0.00    +0.163 HD
ATOM      6  H   UNL     1       3.489   4.767  11.576  0.00  0.00    +0.159 HD
ATOM      7  H   UNL     1       3.418   3.574  12.817  0.00  0.00    +0.159 HD
ATOM      8  H   UNL     1       3.237   2.529   8.862  0.00  0.00    +0.159 HD
ATOM      9  H   UNL     1       3.387   4.175   9.340  0.00  0.00    +0.159 HD
ENDROOT
BRANCH   1  10
ATOM     10  C   UNL     1       3.051   0.437  10.340  0.00  0.00    +0.151 C 
BRANCH  10  11
ATOM     11  C   UNL     1       3.442  -0.843  11.026  0.00  0.00    -0.028 A 
ATOM     12  C   UNL     1       3.287  -0.983  12.413  0.00  0.00    +0.005 A 
ATOM     13  C   UNL     1       3.962  -1.921  10.295  0.00  0.00    +0.005 A 
ATOM     14  C   UNL     1       3.622  -2.182  13.047  0.00  0.00    +0.000 A 
ATOM     15  C   UNL     1       4.296  -3.116  10.931  0.00  0.00    +0.000 A 
ATOM     16  C   UNL     1       4.123  -3.247  12.307  0.00  0.00    +0.000 A 
ENDBRANCH  10  11
ENDBRANCH   1  10
TORSDOF 2
ENDMDL
