MODEL 1
REMARK VINA RESULT:    -5.466      0.000      0.000
REMARK INTER + INTRA:          -6.235
REMARK INTER:                  -6.105
REMARK INTRA:                  -0.130
REMARK UNBOUND:                -0.130
REMARK  Name = 1550473
REMARK  2 active torsions:
REMARK  status: ('A' for Active; 'I' for Inactive)
REMARK    1  A    between atoms: N_1  and  C_4
REMARK    2  A    between atoms: C_4  and  C_5
REMARK                            x       y       z     vdW  Elec       q    Type
REMARK                         _______ _______ _______ _____ _____    ______ ____
ROOT
ATOM      1  N   UNL     1       3.995  -1.216  15.575  0.00  0.00    -0.354 N 
ATOM      2  N   UNL     1       1.761  -1.760  15.297  0.00  0.00    -0.372 N 
ATOM      3  N   UNL     1       2.343  -0.264  16.937  0.00  0.00    -0.372 N 
ATOM      4  C   UNL     1       2.714  -1.075  15.940  0.00  0.00    +0.166 C 
ATOM      5  H   UNL     1       4.215  -1.869  14.831  0.00  0.00    +0.163 HD
ATOM      6  H   UNL     1       0.786  -1.672  15.548  0.00  0.00    +0.159 HD
ATOM      7  H   UNL     1       1.979  -2.377  14.524  0.00  0.00    +0.159 HD
ATOM      8  H   UNL     1       3.014   0.276  17.466  0.00  0.00    +0.159 HD
ATOM      9  H   UNL     1       1.373  -0.171  17.211  0.00  0.00    +0.159 HD
ENDROOT
BRANCH   1  10
ATOM     10  C   UNL     1       5.103  -0.475  16.175  0.00  0.00    +0.151 C 
BRANCH  10  11
ATOM     11  C   UNL     1       6.363  -1.286  16.046  0.00  0.00    -0.028 A 
ATOM     12  C   UNL     1       6.301  -2.659  15.769  0.00  0.00    +0.005 A 
ATOM     13  C   UNL     1       7.623  -0.686  16.195  0.00  0.00    +0.005 A 
ATOM     14  C   UNL     1       7.472  -3.407  15.620  0.00  0.00    +0.000 A 
ATOM     15  C   UNL     1       8.789  -1.436  16.046  0.00  0.00    +0.000 A 
ATOM     16  C   UNL     1       8.713  -2.796  15.756  0.00  0.00    +0.000 A 
ENDBRANCH  10  11
ENDBRANCH   1  10
TORSDOF 2
ENDMDL
MODEL 2
REMARK VINA RESULT:    -5.167      0.873      1.705
REMARK INTER + INTRA:          -5.901
REMARK INTER:                  -5.770
REMARK INTRA:                  -0.131
REMARK UNBOUND:                -0.130
REMARK  Name = 1550473
REMARK  2 active torsions:
REMARK  status: ('A' for Active; 'I' for Inactive)
REMARK    1  A    between atoms: N_1  and  C_4
REMARK    2  A    between atoms: C_4  and  C_5
REMARK                            x       y       z     vdW  Elec       q    Type
REMARK                         _______ _______ _______ _____ _____    ______ ____
ROOT
ATOM      1  N   UNL     1       3.504  -1.455  16.428  0.00  0.00    -0.354 N 
ATOM      2  N   UNL     1       1.404  -2.431  16.440  0.00  0.00    -0.372 N 
ATOM      3  N   UNL     1       1.722  -0.499  15.244  0.00  0.00    -0.372 N 
ATOM      4  C   UNL     1       2.223  -1.453  16.036  0.00  0.00    +0.166 C 
ATOM      5  H   UNL     1       3.815  -2.190  17.053  0.00  0.00    +0.163 HD
ATOM      6  H   UNL     1       0.433  -2.458  16.158  0.00  0.00    +0.159 HD
ATOM      7  H   UNL     1       1.729  -3.190  17.028  0.00  0.00    +0.159 HD
ATOM      8  H   UNL     1       2.286   0.270  14.910  0.00  0.00    +0.159 HD
ATOM      9  H   UNL     1       0.750  -0.502  14.961  0.00  0.00    +0.159 HD
ENDROOT
BRANCH   1  10
ATOM     10  C   UNL     1       4.492  -0.466  16.000  0.00  0.00    +0.151 C 
BRANCH  10  11
ATOM     11  C   UNL     1       5.840  -1.126  15.906  0.00  0.00    -0.028 A 
ATOM     12  C   UNL     1       7.014  -0.365  16.002  0.00  0.00    +0.005 A 
ATOM     13  C   UNL     1       5.949  -2.514  15.726  0.00  0.00    +0.005 A 
ATOM     14  C   UNL     1       8.266  -0.982  15.944  0.00  0.00    +0.000 A 
ATOM     15  C   UNL     1       7.201  -3.126  15.669  0.00  0.00    +0.000 A 
ATOM     16  C   UNL     1       8.359  -2.360  15.780  0.00  0.00    +0.000 A 
ENDBRANCH  10  11
ENDBRANCH   1  10
TORSDOF 2
ENDMDL
MODEL 3
REMARK VINA RESULT:    -5.063     26.544     27.924
REMARK INTER + INTRA:          -5.785
REMARK INTER:                  -5.632
REMARK INTRA:                  -0.153
REMARK UNBOUND:                -0.130
REMARK  Name = 1550473
REMARK  2 active torsions:
REMARK  status: ('A' for Active; 'I' for Inactive)
REMARK    1  A    between atoms: N_1  and  C_4
REMARK    2  A    between atoms: C_4  and  C_5
REMARK                            x       y       z     vdW  Elec       q    Type
REMARK                         _______ _______ _______ _____ _____    ______ ____
ROOT
ATOM      1  N   UNL     1      -3.252  16.790  -0.851  0.00  0.00    -0.354 N 
ATOM      2  N   UNL     1      -1.591  15.801   0.425  0.00  0.00    -0.372 N 
ATOM      3  N   UNL     1      -1.031  17.526  -0.980  0.00  0.00    -0.372 N 
ATOM      4  C   UNL     1      -1.967  16.714  -0.479  0.00  0.00    +0.166 C 
ATOM      5  H   UNL     1      -3.908  16.125  -0.457  0.00  0.00    +0.163 HD
ATOM      6  H   UNL     1      -0.630  15.722   0.728  0.00  0.00    +0.159 HD
ATOM      7  H   UNL     1      -2.257  15.168   0.851  0.00  0.00    +0.159 HD
ATOM      8  H   UNL     1      -1.249  18.233  -1.670  0.00  0.00    +0.159 HD
ATOM      9  H   UNL     1      -0.061  17.455  -0.698  0.00  0.00    +0.159 HD
ENDROOT
BRANCH   1  10
ATOM     10  C   UNL     1      -3.774  17.783  -1.788  0.00  0.00    +0.151 C 
BRANCH  10  11
ATOM     11  C   UNL     1      -4.217  17.088  -3.046  0.00  0.00    -0.028 A 
ATOM     12  C   UNL     1      -4.341  17.801  -4.247  0.00  0.00    +0.005 A 
ATOM     13  C   UNL     1      -4.509  15.715  -3.044  0.00  0.00    +0.005 A 
ATOM     14  C   UNL     1      -4.723  17.149  -5.422  0.00  0.00    +0.000 A 
ATOM     15  C   UNL     1      -4.891  15.069  -4.219  0.00  0.00    +0.000 A 
ATOM     16  C   UNL     1      -4.995  15.785  -5.408  0.00  0.00    +0.000 A 
ENDBRANCH  10  11
ENDBRANCH   1  10
TORSDOF 2
ENDMDL
MODEL 4
REMARK VINA RESULT:    -4.734     13.563     15.329
REMARK INTER + INTRA:          -5.417
REMARK INTER:                  -5.250
REMARK INTRA:                  -0.167
REMARK UNBOUND:                -0.130
REMARK  Name = 1550473
REMARK  2 active torsions:
REMARK  status: ('A' for Active; 'I' for Inactive)
REMARK    1  A    between atoms: N_1  and  C_4
REMARK    2  A    between atoms: C_4  and  C_5
REMARK                            x       y       z     vdW  Elec       q    Type
REMARK                         _______ _______ _______ _____ _____    ______ ____
ROOT
ATOM      1  N   UNL     1       2.260  12.541  15.974  0.00  0.00    -0.354 N 
ATOM      2  N   UNL     1       4.516  12.649  15.460  0.00  0.00    -0.372 N 
ATOM      3  N   UNL     1       3.523  10.591  15.667  0.00  0.00    -0.372 N 
ATOM      4  C   UNL     1       3.418  11.923  15.704  0.00  0.00    +0.166 C 
ATOM      5  H   UNL     1       2.253  13.554  16.017  0.00  0.00    +0.163 HD
ATOM      6  H   UNL     1       5.403  12.211  15.249  0.00  0.00    +0.159 HD
ATOM      7  H   UNL     1       4.496  13.662  15.458  0.00  0.00    +0.159 HD
ATOM      8  H   UNL     1       2.733   9.986  15.848  0.00  0.00    +0.159 HD
ATOM      9  H   UNL     1       4.405  10.134  15.469  0.00  0.00    +0.159 HD
ENDROOT
BRANCH   1  10
ATOM     10  C   UNL     1       0.995  11.844  16.202  0.00  0.00    +0.151 C 
BRANCH  10  11
ATOM     11  C   UNL     1       0.061  12.138  15.061  0.00  0.00    -0.028 A 
ATOM     12  C   UNL     1       0.090  11.355  13.897  0.00  0.00    +0.005 A 
ATOM     13  C   UNL     1      -0.860  13.193  15.140  0.00  0.00    +0.005 A 
ATOM     14  C   UNL     1      -0.798  11.609  12.849  0.00  0.00    +0.000 A 
ATOM     15  C   UNL     1      -1.745  13.444  14.091  0.00  0.00    +0.000 A 
ATOM     16  C   UNL     1      -1.716  12.650  12.947  0.00  0.00    +0.000 A 
ENDBRANCH  10  11
ENDBRANCH   1  10
TORSDOF 2
ENDMDL
MODEL 5
REMARK VINA RESULT:    -4.673     22.977     23.589
REMARK INTER + INTRA:          -5.349
REMARK INTER:                  -5.239
REMARK INTRA:                  -0.110
REMARK UNBOUND:                -0.130
REMARK  Name = 1550473
REMARK  2 active torsions:
REMARK  status: ('A' for Active; 'I' for Inactive)
REMARK    1  A    between atoms: N_1  and  C_4
REMARK    2  A    between atoms: C_4  and  C_5
REMARK                            x       y       z     vdW  Elec       q    Type
REMARK                         _______ _______ _______ _____ _____    ______ ____
ROOT
ATOM      1  N   UNL     1       7.492  12.481  -1.996  0.00  0.00    -0.354 N 
ATOM      2  N   UNL     1       7.054  10.251  -2.443  0.00  0.00    -0.372 N 
ATOM      3  N   UNL     1       7.112  11.741  -4.187  0.00  0.00    -0.372 N 
ATOM      4  C   UNL     1       7.222  11.507  -2.875  0.00  0.00    +0.166 C 
ATOM      5  H   UNL     1       7.532  12.244  -1.012  0.00  0.00    +0.163 HD
ATOM      6  H   UNL     1       6.853   9.494  -3.083  0.00  0.00    +0.159 HD
ATOM      7  H   UNL     1       7.140  10.009  -1.464  0.00  0.00    +0.159 HD
ATOM      8  H   UNL     1       7.221  12.668  -4.577  0.00  0.00    +0.159 HD
ATOM      9  H   UNL     1       6.899  10.999  -4.842  0.00  0.00    +0.159 HD
ENDROOT
BRANCH   1  10
ATOM     10  C   UNL     1       7.745  13.872  -2.369  0.00  0.00    +0.151 C 
BRANCH  10  11
ATOM     11  C   UNL     1       8.752  14.459  -1.420  0.00  0.00    -0.028 A 
ATOM     12  C   UNL     1       9.850  15.184  -1.906  0.00  0.00    +0.005 A 
ATOM     13  C   UNL     1       8.612  14.299  -0.033  0.00  0.00    +0.005 A 
ATOM     14  C   UNL     1      10.770  15.756  -1.023  0.00  0.00    +0.000 A 
ATOM     15  C   UNL     1       9.532  14.871   0.845  0.00  0.00    +0.000 A 
ATOM     16  C   UNL     1      10.610  15.601   0.350  0.00  0.00    +0.000 A 
ENDBRANCH  10  11
ENDBRANCH   1  10
TORSDOF 2
ENDMDL
MODEL 6
REMARK VINA RESULT:    -4.629      4.362      5.519
REMARK INTER + INTRA:          -5.300
REMARK INTER:                  -5.149
REMARK INTRA:                  -0.150
REMARK UNBOUND:                -0.130
REMARK  Name = 1550473
REMARK  2 active torsions:
REMARK  status: ('A' for Active; 'I' for Inactive)
REMARK    1  A    between atoms: N_1  and  C_4
REMARK    2  A    between atoms: C_4  and  C_5
REMARK                            x       y       z     vdW  Elec       q    Type
REMARK                         _______ _______ _______ _____ _____    ______ ____
ROOT
ATOM      1  N   UNL     1      10.483  -0.688  17.499  0.00  0.00    -0.354 N 
ATOM      2  N   UNL     1      11.245  -0.715  19.686  0.00  0.00    -0.372 N 
ATOM      3  N   UNL     1       9.751   0.907  19.052  0.00  0.00    -0.372 N 
ATOM      4  C   UNL     1      10.486  -0.163  18.731  0.00  0.00    +0.166 C 
ATOM      5  H   UNL     1      11.085  -1.481  17.312  0.00  0.00    +0.163 HD
ATOM      6  H   UNL     1      11.266  -0.343  20.626  0.00  0.00    +0.159 HD
ATOM      7  H   UNL     1      11.811  -1.536  19.508  0.00  0.00    +0.159 HD
ATOM      8  H   UNL     1       9.162   1.374  18.376  0.00  0.00    +0.159 HD
ATOM      9  H   UNL     1       9.767   1.301  19.984  0.00  0.00    +0.159 HD
ENDROOT
BRANCH   1  10
ATOM     10  C   UNL     1       9.651  -0.195  16.402  0.00  0.00    +0.151 C 
BRANCH  10  11
ATOM     11  C   UNL     1       8.629  -1.241  16.052  0.00  0.00    -0.028 A 
ATOM     12  C   UNL     1       7.305  -0.876  15.769  0.00  0.00    +0.005 A 
ATOM     13  C   UNL     1       8.980  -2.598  15.995  0.00  0.00    +0.005 A 
ATOM     14  C   UNL     1       6.362  -1.844  15.414  0.00  0.00    +0.000 A 
ATOM     15  C   UNL     1       8.036  -3.562  15.641  0.00  0.00    +0.000 A 
ATOM     16  C   UNL     1       6.728  -3.184  15.348  0.00  0.00    +0.000 A 
ENDBRANCH  10  11
ENDBRANCH   1  10
TORSDOF 2
ENDMDL
MODEL 7
REMARK VINA RESULT:    -4.595     27.737     28.891
REMARK INTER + INTRA:          -5.262
REMARK INTER:                  -5.141
REMARK INTRA:                  -0.121
REMARK UNBOUND:                -0.130
REMARK  Name = 1550473
REMARK  2 active torsions:
REMARK  status: ('A' for Active; 'I' for Inactive)
REMARK    1  A    between atoms: N_1  and  C_4
REMARK    2  A    between atoms: C_4  and  C_5
REMARK                            x       y       z     vdW  Elec       q    Type
REMARK                         _______ _______ _______ _____ _____    ______ ____
ROOT
ATOM      1  N   UNL     1      -7.570  17.248  -1.703  0.00  0.00    -0.354 N 
ATOM      2  N   UNL     1      -9.547  16.772  -0.594  0.00  0.00    -0.372 N 
ATOM      3  N   UNL     1      -7.571  16.001   0.281  0.00  0.00    -0.372 N 
ATOM      4  C   UNL     1      -8.214  16.675  -0.678  0.00  0.00    +0.166 C 
ATOM      5  H   UNL     1      -8.118  17.719  -2.414  0.00  0.00    +0.163 HD
ATOM      6  H   UNL     1     -10.060  16.353   0.170  0.00  0.00    +0.159 HD
ATOM      7  H   UNL     1     -10.088  17.282  -1.281  0.00  0.00    +0.159 HD
ATOM      8  H   UNL     1      -6.566  15.887   0.273  0.00  0.00    +0.159 HD
ATOM      9  H   UNL     1      -8.068  15.565   1.048  0.00  0.00    +0.159 HD
ENDROOT
BRANCH   1  10
ATOM     10  C   UNL     1      -6.116  17.247  -1.859  0.00  0.00    +0.151 C 
BRANCH  10  11
ATOM     11  C   UNL     1      -5.771  16.772  -3.243  0.00  0.00    -0.028 A 
ATOM     12  C   UNL     1      -6.119  17.537  -4.366  0.00  0.00    +0.005 A 
ATOM     13  C   UNL     1      -5.090  15.560  -3.439  0.00  0.00    +0.005 A 
ATOM     14  C   UNL     1      -5.771  17.111  -5.650  0.00  0.00    +0.000 A 
ATOM     15  C   UNL     1      -4.746  15.138  -4.723  0.00  0.00    +0.000 A 
ATOM     16  C   UNL     1      -5.084  15.915  -5.828  0.00  0.00    +0.000 A 
ENDBRANCH  10  11
ENDBRANCH   1  10
TORSDOF 2
ENDMDL
MODEL 8
REMARK VINA RESULT:    -4.555      4.447      5.993
REMARK INTER + INTRA:          -5.218
REMARK INTER:                  -5.043
REMARK INTRA:                  -0.174
REMARK UNBOUND:                -0.130
REMARK  Name = 1550473
REMARK  2 active torsions:
REMARK  status: ('A' for Active; 'I' for Inactive)
REMARK    1  A    between atoms: N_1  and  C_4
REMARK    2  A    between atoms: C_4  and  C_5
REMARK                            x       y       z     vdW  Elec       q    Type
REMARK                         _______ _______ _______ _____ _____    ______ ____
ROOT
ATOM      1  N   UNL     1       1.505  -0.200  17.448  0.00  0.00    -0.354 N 
ATOM      2  N   UNL     1       0.227   1.136  16.053  0.00  0.00    -0.372 N 
ATOM      3  N   UNL     1       1.488  -0.544  15.130  0.00  0.00    -0.372 N 
ATOM      4  C   UNL     1       1.083   0.121  16.217  0.00  0.00    +0.166 C 
ATOM      5  H   UNL     1       1.184   0.362  18.228  0.00  0.00    +0.163 HD
ATOM      6  H   UNL     1      -0.112   1.399  15.137  0.00  0.00    +0.159 HD
ATOM      7  H   UNL     1      -0.128   1.667  16.840  0.00  0.00    +0.159 HD
ATOM      8  H   UNL     1       2.138  -1.316  15.185  0.00  0.00    +0.159 HD
ATOM      9  H   UNL     1       1.169  -0.288  14.203  0.00  0.00    +0.159 HD
ENDROOT
BRANCH   1  10
ATOM     10  C   UNL     1       2.395  -1.322  17.741  0.00  0.00    +0.151 C 
BRANCH  10  11
ATOM     11  C   UNL     1       1.603  -2.417  18.400  0.00  0.00    -0.028 A 
ATOM     12  C   UNL     1       1.121  -3.499  17.649  0.00  0.00    +0.005 A 
ATOM     13  C   UNL     1       1.337  -2.382  19.778  0.00  0.00    +0.005 A 
ATOM     14  C   UNL     1       0.411  -4.532  18.266  0.00  0.00    +0.000 A 
ATOM     15  C   UNL     1       0.627  -3.415  20.391  0.00  0.00    +0.000 A 
ATOM     16  C   UNL     1       0.167  -4.491  19.635  0.00  0.00    +0.000 A 
ENDBRANCH  10  11
ENDBRANCH   1  10
TORSDOF 2
ENDMDL
MODEL 9
REMARK VINA RESULT:    -4.550     24.861     26.187
REMARK INTER + INTRA:          -5.211
REMARK INTER:                  -5.062
REMARK INTRA:                  -0.149
REMARK UNBOUND:                -0.130
REMARK  Name = 1550473
REMARK  2 active torsions:
REMARK  status: ('A' for Active; 'I' for Inactive)
REMARK    1  A    between atoms: N_1  and  C_4
REMARK    2  A    between atoms: C_4  and  C_5
REMARK                            x       y       z     vdW  Elec       q    Type
REMARK                         _______ _______ _______ _____ _____    ______ ____
ROOT
ATOM      1  N   UNL     1      -6.484  17.394  -0.223  0.00  0.00    -0.354 N 
ATOM      2  N   UNL     1      -8.168  15.826  -0.483  0.00  0.00    -0.372 N 
ATOM      3  N   UNL     1      -7.159  16.040   1.567  0.00  0.00    -0.372 N 
ATOM      4  C   UNL     1      -7.259  16.430   0.291  0.00  0.00    +0.166 C 
ATOM      5  H   UNL     1      -6.588  17.623  -1.205  0.00  0.00    +0.163 HD
ATOM      6  H   UNL     1      -8.769  15.097  -0.122  0.00  0.00    +0.159 HD
ATOM      7  H   UNL     1      -8.302  16.088  -1.452  0.00  0.00    +0.159 HD
ATOM      8  H   UNL     1      -6.489  16.452   2.202  0.00  0.00    +0.159 HD
ATOM      9  H   UNL     1      -7.744  15.304   1.943  0.00  0.00    +0.159 HD
ENDROOT
BRANCH   1  10
ATOM     10  C   UNL     1      -5.500  18.151   0.549  0.00  0.00    +0.151 C 
BRANCH  10  11
ATOM     11  C   UNL     1      -4.175  17.444   0.484  0.00  0.00    -0.028 A 
ATOM     12  C   UNL     1      -3.464  17.155   1.658  0.00  0.00    +0.005 A 
ATOM     13  C   UNL     1      -3.628  17.055  -0.748  0.00  0.00    +0.005 A 
ATOM     14  C   UNL     1      -2.247  16.471   1.600  0.00  0.00    +0.000 A 
ATOM     15  C   UNL     1      -2.412  16.373  -0.802  0.00  0.00    +0.000 A 
ATOM     16  C   UNL     1      -1.723  16.079   0.373  0.00  0.00    +0.000 A 
ENDBRANCH  10  11
ENDBRANCH   1  10
TORSDOF 2
ENDMDL
