MODEL 1
REMARK VINA RESULT:    -6.523      0.000      0.000
REMARK INTER + INTRA:          -7.404
REMARK INTER:                  -7.285
REMARK INTRA:                  -0.119
REMARK UNBOUND:                -0.119
REMARK  Name = 1550473
REMARK  2 active torsions:
REMARK  status: ('A' for Active; 'I' for Inactive)
REMARK    1  A    between atoms: N_1  and  C_4
REMARK    2  A    between atoms: C_4  and  C_5
REMARK                            x       y       z     vdW  Elec       q    Type
REMARK                         _______ _______ _______ _____ _____    ______ ____
ROOT
ATOM      1  N   UNL     1      -5.899 -11.612  -5.636  0.00  0.00    -0.354 N 
ATOM      2  N   UNL     1      -3.851 -12.122  -6.590  0.00  0.00    -0.372 N 
ATOM      3  N   UNL     1      -4.073 -10.158  -5.425  0.00  0.00    -0.372 N 
ATOM      4  C   UNL     1      -4.620 -11.291  -5.877  0.00  0.00    +0.166 C 
ATOM      5  H   UNL     1      -6.262 -12.471  -6.032  0.00  0.00    +0.163 HD
ATOM      6  H   UNL     1      -2.882 -11.909  -6.784  0.00  0.00    +0.159 HD
ATOM      7  H   UNL     1      -4.204 -13.003  -6.945  0.00  0.00    +0.159 HD
ATOM      8  H   UNL     1      -4.602  -9.486  -4.886  0.00  0.00    +0.159 HD
ATOM      9  H   UNL     1      -3.108  -9.921  -5.619  0.00  0.00    +0.159 HD
ENDROOT
BRANCH   1  10
ATOM     10  C   UNL     1      -6.806 -10.802  -4.825  0.00  0.00    +0.151 C 
BRANCH  10  11
ATOM     11  C   UNL     1      -8.177 -11.418  -4.858  0.00  0.00    -0.028 A 
ATOM     12  C   UNL     1      -9.092 -11.176  -3.822  0.00  0.00    +0.005 A 
ATOM     13  C   UNL     1      -8.570 -12.241  -5.925  0.00  0.00    +0.005 A 
ATOM     14  C   UNL     1     -10.376 -11.725  -3.867  0.00  0.00    +0.000 A 
ATOM     15  C   UNL     1      -9.853 -12.787  -5.966  0.00  0.00    +0.000 A 
ATOM     16  C   UNL     1     -10.756 -12.527  -4.938  0.00  0.00    +0.000 A 
ENDBRANCH  10  11
ENDBRANCH   1  10
TORSDOF 2
ENDMDL
MODEL 2
REMARK VINA RESULT:    -6.469      2.057      2.467
REMARK INTER + INTRA:          -7.344
REMARK INTER:                  -7.210
REMARK INTRA:                  -0.135
REMARK UNBOUND:                -0.119
REMARK  Name = 1550473
REMARK  2 active torsions:
REMARK  status: ('A' for Active; 'I' for Inactive)
REMARK    1  A    between atoms: N_1  and  C_4
REMARK    2  A    between atoms: C_4  and  C_5
REMARK                            x       y       z     vdW  Elec       q    Type
REMARK                         _______ _______ _______ _____ _____    ______ ____
ROOT
ATOM      1  N   UNL     1      -5.659 -11.439  -5.295  0.00  0.00    -0.354 N 
ATOM      2  N   UNL     1      -3.764 -12.750  -5.060  0.00  0.00    -0.372 N 
ATOM      3  N   UNL     1      -3.516 -10.494  -5.396  0.00  0.00    -0.372 N 
ATOM      4  C   UNL     1      -4.324 -11.550  -5.253  0.00  0.00    +0.166 C 
ATOM      5  H   UNL     1      -6.215 -12.282  -5.210  0.00  0.00    +0.163 HD
ATOM      6  H   UNL     1      -2.760 -12.865  -5.020  0.00  0.00    +0.159 HD
ATOM      7  H   UNL     1      -4.323 -13.584  -4.929  0.00  0.00    +0.159 HD
ATOM      8  H   UNL     1      -3.876  -9.561  -5.550  0.00  0.00    +0.159 HD
ATOM      9  H   UNL     1      -2.509 -10.590  -5.370  0.00  0.00    +0.159 HD
ENDROOT
BRANCH   1  10
ATOM     10  C   UNL     1      -6.369 -10.170  -5.446  0.00  0.00    +0.151 C 
BRANCH  10  11
ATOM     11  C   UNL     1      -7.597 -10.391  -6.286  0.00  0.00    -0.028 A 
ATOM     12  C   UNL     1      -7.921 -11.675  -6.748  0.00  0.00    +0.005 A 
ATOM     13  C   UNL     1      -8.443  -9.322  -6.618  0.00  0.00    +0.005 A 
ATOM     14  C   UNL     1      -9.078 -11.887  -7.502  0.00  0.00    +0.000 A 
ATOM     15  C   UNL     1      -9.596  -9.537  -7.372  0.00  0.00    +0.000 A 
ATOM     16  C   UNL     1      -9.915 -10.820  -7.812  0.00  0.00    +0.000 A 
ENDBRANCH  10  11
ENDBRANCH   1  10
TORSDOF 2
ENDMDL
MODEL 3
REMARK VINA RESULT:    -6.221      1.948      2.633
REMARK INTER + INTRA:          -7.067
REMARK INTER:                  -6.936
REMARK INTRA:                  -0.131
REMARK UNBOUND:                -0.119
REMARK  Name = 1550473
REMARK  2 active torsions:
REMARK  status: ('A' for Active; 'I' for Inactive)
REMARK    1  A    between atoms: N_1  and  C_4
REMARK    2  A    between atoms: C_4  and  C_5
REMARK                            x       y       z     vdW  Elec       q    Type
REMARK                         _______ _______ _______ _____ _____    ______ ____
ROOT
ATOM      1  N   UNL     1      -7.427 -11.759  -4.924  0.00  0.00    -0.354 N 
ATOM      2  N   UNL     1      -5.116 -11.800  -4.767  0.00  0.00    -0.372 N 
ATOM      3  N   UNL     1      -6.243  -9.932  -4.056  0.00  0.00    -0.372 N 
ATOM      4  C   UNL     1      -6.278 -11.160  -4.583  0.00  0.00    +0.166 C 
ATOM      5  H   UNL     1      -7.383 -12.679  -5.346  0.00  0.00    +0.163 HD
ATOM      6  H   UNL     1      -4.234 -11.375  -4.516  0.00  0.00    +0.159 HD
ATOM      7  H   UNL     1      -5.079 -12.738  -5.146  0.00  0.00    +0.159 HD
ATOM      8  H   UNL     1      -7.084  -9.393  -3.897  0.00  0.00    +0.159 HD
ATOM      9  H   UNL     1      -5.368  -9.485  -3.810  0.00  0.00    +0.159 HD
ENDROOT
BRANCH   1  10
ATOM     10  C   UNL     1      -8.748 -11.170  -4.714  0.00  0.00    +0.151 C 
BRANCH  10  11
ATOM     11  C   UNL     1      -9.543 -11.282  -5.986  0.00  0.00    -0.028 A 
ATOM     12  C   UNL     1     -10.510 -12.287  -6.136  0.00  0.00    +0.005 A 
ATOM     13  C   UNL     1      -9.337 -10.382  -7.044  0.00  0.00    +0.005 A 
ATOM     14  C   UNL     1     -11.269 -12.372  -7.306  0.00  0.00    +0.000 A 
ATOM     15  C   UNL     1     -10.096 -10.471  -8.210  0.00  0.00    +0.000 A 
ATOM     16  C   UNL     1     -11.064 -11.465  -8.340  0.00  0.00    +0.000 A 
ENDBRANCH  10  11
ENDBRANCH   1  10
TORSDOF 2
ENDMDL
MODEL 4
REMARK VINA RESULT:    -6.144      3.119      4.516
REMARK INTER + INTRA:          -6.981
REMARK INTER:                  -6.839
REMARK INTRA:                  -0.142
REMARK UNBOUND:                -0.119
REMARK  Name = 1550473
REMARK  2 active torsions:
REMARK  status: ('A' for Active; 'I' for Inactive)
REMARK    1  A    between atoms: N_1  and  C_4
REMARK    2  A    between atoms: C_4  and  C_5
REMARK                            x       y       z     vdW  Elec       q    Type
REMARK                         _______ _______ _______ _____ _____    ______ ____
ROOT
ATOM      1  N   UNL     1      -9.551 -11.506  -5.301  0.00  0.00    -0.354 N 
ATOM      2  N   UNL     1      -7.438 -11.697  -4.371  0.00  0.00    -0.372 N 
ATOM      3  N   UNL     1      -8.835 -13.516  -4.332  0.00  0.00    -0.372 N 
ATOM      4  C   UNL     1      -8.623 -12.241  -4.674  0.00  0.00    +0.166 C 
ATOM      5  H   UNL     1      -9.339 -10.536  -5.505  0.00  0.00    +0.163 HD
ATOM      6  H   UNL     1      -6.717 -12.227  -3.902  0.00  0.00    +0.159 HD
ATOM      7  H   UNL     1      -7.212 -10.740  -4.618  0.00  0.00    +0.159 HD
ATOM      8  H   UNL     1      -9.710 -13.984  -4.527  0.00  0.00    +0.159 HD
ATOM      9  H   UNL     1      -8.130 -14.061  -3.851  0.00  0.00    +0.159 HD
ENDROOT
BRANCH   1  10
ATOM     10  C   UNL     1     -10.853 -12.019  -5.722  0.00  0.00    +0.151 C 
BRANCH  10  11
ATOM     11  C   UNL     1     -11.048 -11.722  -7.183  0.00  0.00    -0.028 A 
ATOM     12  C   UNL     1     -10.286 -10.729  -7.816  0.00  0.00    +0.005 A 
ATOM     13  C   UNL     1     -11.991 -12.433  -7.942  0.00  0.00    +0.005 A 
ATOM     14  C   UNL     1     -10.446 -10.473  -9.180  0.00  0.00    +0.000 A 
ATOM     15  C   UNL     1     -12.149 -12.173  -9.303  0.00  0.00    +0.000 A 
ATOM     16  C   UNL     1     -11.374 -11.195  -9.922  0.00  0.00    +0.000 A 
ENDBRANCH  10  11
ENDBRANCH   1  10
TORSDOF 2
ENDMDL
MODEL 5
REMARK VINA RESULT:    -5.773      8.741      9.494
REMARK INTER + INTRA:          -6.567
REMARK INTER:                  -6.412
REMARK INTRA:                  -0.155
REMARK UNBOUND:                -0.119
REMARK  Name = 1550473
REMARK  2 active torsions:
REMARK  status: ('A' for Active; 'I' for Inactive)
REMARK    1  A    between atoms: N_1  and  C_4
REMARK    2  A    between atoms: C_4  and  C_5
REMARK                            x       y       z     vdW  Elec       q    Type
REMARK                         _______ _______ _______ _____ _____    ______ ____
ROOT
ATOM      1  N   UNL     1     -11.066 -14.335 -12.945  0.00  0.00    -0.354 N 
ATOM      2  N   UNL     1     -11.873 -16.125 -14.173  0.00  0.00    -0.372 N 
ATOM      3  N   UNL     1     -10.367 -14.698 -15.152  0.00  0.00    -0.372 N 
ATOM      4  C   UNL     1     -11.095 -15.040 -14.084  0.00  0.00    +0.166 C 
ATOM      5  H   UNL     1     -11.665 -14.629 -12.182  0.00  0.00    +0.163 HD
ATOM      6  H   UNL     1     -11.913 -16.679 -15.019  0.00  0.00    +0.159 HD
ATOM      7  H   UNL     1     -12.436 -16.443 -13.393  0.00  0.00    +0.159 HD
ATOM      8  H   UNL     1      -9.764 -13.886 -15.151  0.00  0.00    +0.159 HD
ATOM      9  H   UNL     1     -10.402 -15.232 -16.011  0.00  0.00    +0.159 HD
ENDROOT
BRANCH   1  10
ATOM     10  C   UNL     1     -10.213 -13.169 -12.726  0.00  0.00    +0.151 C 
BRANCH  10  11
ATOM     11  C   UNL     1     -11.076 -11.942 -12.617  0.00  0.00    -0.028 A 
ATOM     12  C   UNL     1     -12.388 -12.036 -12.130  0.00  0.00    +0.005 A 
ATOM     13  C   UNL     1     -10.585 -10.682 -12.994  0.00  0.00    +0.005 A 
ATOM     14  C   UNL     1     -13.179 -10.892 -12.001  0.00  0.00    +0.000 A 
ATOM     15  C   UNL     1     -11.379  -9.543 -12.864  0.00  0.00    +0.000 A 
ATOM     16  C   UNL     1     -12.675  -9.648 -12.365  0.00  0.00    +0.000 A 
ENDBRANCH  10  11
ENDBRANCH   1  10
TORSDOF 2
ENDMDL
MODEL 6
REMARK VINA RESULT:    -5.392     13.768     15.552
REMARK INTER + INTRA:          -6.141
REMARK INTER:                  -6.019
REMARK INTRA:                  -0.122
REMARK UNBOUND:                -0.119
REMARK  Name = 1550473
REMARK  2 active torsions:
REMARK  status: ('A' for Active; 'I' for Inactive)
REMARK    1  A    between atoms: N_1  and  C_4
REMARK    2  A    between atoms: C_4  and  C_5
REMARK                            x       y       z     vdW  Elec       q    Type
REMARK                         _______ _______ _______ _____ _____    ______ ____
ROOT
ATOM      1  N   UNL     1      -1.093   0.055  -2.177  0.00  0.00    -0.354 N 
ATOM      2  N   UNL     1      -1.511  -1.994  -3.174  0.00  0.00    -0.372 N 
ATOM      3  N   UNL     1      -0.111  -0.512  -4.228  0.00  0.00    -0.372 N 
ATOM      4  C   UNL     1      -0.901  -0.802  -3.189  0.00  0.00    +0.166 C 
ATOM      5  H   UNL     1      -1.728  -0.213  -1.433  0.00  0.00    +0.163 HD
ATOM      6  H   UNL     1      -1.383  -2.662  -3.921  0.00  0.00    +0.159 HD
ATOM      7  H   UNL     1      -2.109  -2.277  -2.407  0.00  0.00    +0.159 HD
ATOM      8  H   UNL     1       0.373   0.372  -4.302  0.00  0.00    +0.159 HD
ATOM      9  H   UNL     1       0.021  -1.164  -4.991  0.00  0.00    +0.159 HD
ENDROOT
BRANCH   1  10
ATOM     10  C   UNL     1      -0.434   1.355  -2.071  0.00  0.00    +0.151 C 
BRANCH  10  11
ATOM     11  C   UNL     1      -0.190   1.665  -0.620  0.00  0.00    -0.028 A 
ATOM     12  C   UNL     1       0.468   0.741   0.205  0.00  0.00    +0.005 A 
ATOM     13  C   UNL     1      -0.610   2.884  -0.064  0.00  0.00    +0.005 A 
ATOM     14  C   UNL     1       0.722   1.041   1.546  0.00  0.00    +0.000 A 
ATOM     15  C   UNL     1      -0.355   3.179   1.275  0.00  0.00    +0.000 A 
ATOM     16  C   UNL     1       0.312   2.258   2.079  0.00  0.00    +0.000 A 
ENDBRANCH  10  11
ENDBRANCH   1  10
TORSDOF 2
ENDMDL
MODEL 7
REMARK VINA RESULT:    -4.948     14.217     15.586
REMARK INTER + INTRA:          -5.645
REMARK INTER:                  -5.488
REMARK INTRA:                  -0.157
REMARK UNBOUND:                -0.119
REMARK  Name = 1550473
REMARK  2 active torsions:
REMARK  status: ('A' for Active; 'I' for Inactive)
REMARK    1  A    between atoms: N_1  and  C_4
REMARK    2  A    between atoms: C_4  and  C_5
REMARK                            x       y       z     vdW  Elec       q    Type
REMARK                         _______ _______ _______ _____ _____    ______ ____
ROOT
ATOM      1  N   UNL     1      -0.414   2.016   0.226  0.00  0.00    -0.354 N 
ATOM      2  N   UNL     1      -0.677   4.293   0.554  0.00  0.00    -0.372 N 
ATOM      3  N   UNL     1      -2.427   3.087  -0.313  0.00  0.00    -0.372 N 
ATOM      4  C   UNL     1      -1.173   3.117   0.152  0.00  0.00    +0.166 C 
ATOM      5  H   UNL     1       0.539   2.110   0.559  0.00  0.00    +0.163 HD
ATOM      6  H   UNL     1      -1.228   5.140   0.514  0.00  0.00    +0.159 HD
ATOM      7  H   UNL     1       0.259   4.376   0.930  0.00  0.00    +0.159 HD
ATOM      8  H   UNL     1      -2.858   2.232  -0.637  0.00  0.00    +0.159 HD
ATOM      9  H   UNL     1      -2.990   3.927  -0.372  0.00  0.00    +0.159 HD
ENDROOT
BRANCH   1  10
ATOM     10  C   UNL     1      -0.876   0.677  -0.136  0.00  0.00    +0.151 C 
BRANCH  10  11
ATOM     11  C   UNL     1      -0.550   0.418  -1.581  0.00  0.00    -0.028 A 
ATOM     12  C   UNL     1       0.746   0.640  -2.069  0.00  0.00    +0.005 A 
ATOM     13  C   UNL     1      -1.530  -0.056  -2.466  0.00  0.00    +0.005 A 
ATOM     14  C   UNL     1       1.058   0.371  -3.404  0.00  0.00    +0.000 A 
ATOM     15  C   UNL     1      -1.216  -0.323  -3.798  0.00  0.00    +0.000 A 
ATOM     16  C   UNL     1       0.079  -0.111  -4.266  0.00  0.00    +0.000 A 
ENDBRANCH  10  11
ENDBRANCH   1  10
TORSDOF 2
ENDMDL
MODEL 8
REMARK VINA RESULT:    -4.943     31.766     32.190
REMARK INTER + INTRA:          -5.639
REMARK INTER:                  -5.543
REMARK INTRA:                  -0.096
REMARK UNBOUND:                -0.119
REMARK  Name = 1550473
REMARK  2 active torsions:
REMARK  status: ('A' for Active; 'I' for Inactive)
REMARK    1  A    between atoms: N_1  and  C_4
REMARK    2  A    between atoms: C_4  and  C_5
REMARK                            x       y       z     vdW  Elec       q    Type
REMARK                         _______ _______ _______ _____ _____    ______ ____
ROOT
ATOM      1  N   UNL     1      -9.377  10.845 -29.445  0.00  0.00    -0.354 N 
ATOM      2  N   UNL     1      -8.515   9.944 -31.397  0.00  0.00    -0.372 N 
ATOM      3  N   UNL     1     -10.156  11.541 -31.543  0.00  0.00    -0.372 N 
ATOM      4  C   UNL     1      -9.357  10.784 -30.783  0.00  0.00    +0.166 C 
ATOM      5  H   UNL     1      -8.768  10.223 -28.926  0.00  0.00    +0.163 HD
ATOM      6  H   UNL     1      -8.475   9.879 -32.405  0.00  0.00    +0.159 HD
ATOM      7  H   UNL     1      -7.875   9.357 -30.876  0.00  0.00    +0.159 HD
ATOM      8  H   UNL     1     -10.818  12.191 -31.141  0.00  0.00    +0.159 HD
ATOM      9  H   UNL     1     -10.139  11.482 -32.553  0.00  0.00    +0.159 HD
ENDROOT
BRANCH   1  10
ATOM     10  C   UNL     1     -10.218  11.764 -28.681  0.00  0.00    +0.151 C 
BRANCH  10  11
ATOM     11  C   UNL     1     -10.474  11.179 -27.319  0.00  0.00    -0.028 A 
ATOM     12  C   UNL     1      -9.508  11.281 -26.308  0.00  0.00    +0.005 A 
ATOM     13  C   UNL     1     -11.683  10.527 -27.032  0.00  0.00    +0.005 A 
ATOM     14  C   UNL     1      -9.757  10.764 -25.034  0.00  0.00    +0.000 A 
ATOM     15  C   UNL     1     -11.928  10.012 -25.760  0.00  0.00    +0.000 A 
ATOM     16  C   UNL     1     -10.966  10.133 -24.760  0.00  0.00    +0.000 A 
ENDBRANCH  10  11
ENDBRANCH   1  10
TORSDOF 2
ENDMDL
MODEL 9
REMARK VINA RESULT:    -4.927      8.463      8.813
REMARK INTER + INTRA:          -5.621
REMARK INTER:                  -5.492
REMARK INTRA:                  -0.129
REMARK UNBOUND:                -0.119
REMARK  Name = 1550473
REMARK  2 active torsions:
REMARK  status: ('A' for Active; 'I' for Inactive)
REMARK    1  A    between atoms: N_1  and  C_4
REMARK    2  A    between atoms: C_4  and  C_5
REMARK                            x       y       z     vdW  Elec       q    Type
REMARK                         _______ _______ _______ _____ _____    ______ ____
ROOT
ATOM      1  N   UNL     1      -8.975 -14.144 -13.319  0.00  0.00    -0.354 N 
ATOM      2  N   UNL     1      -7.751 -16.074 -13.693  0.00  0.00    -0.372 N 
ATOM      3  N   UNL     1      -7.757 -14.435 -15.299  0.00  0.00    -0.372 N 
ATOM      4  C   UNL     1      -8.169 -14.871 -14.103  0.00  0.00    +0.166 C 
ATOM      5  H   UNL     1      -9.276 -14.543 -12.437  0.00  0.00    +0.163 HD
ATOM      6  H   UNL     1      -7.139 -16.643 -14.262  0.00  0.00    +0.159 HD
ATOM      7  H   UNL     1      -8.016 -16.451 -12.791  0.00  0.00    +0.159 HD
ATOM      8  H   UNL     1      -8.041 -13.538 -15.669  0.00  0.00    +0.159 HD
ATOM      9  H   UNL     1      -7.153 -14.996 -15.888  0.00  0.00    +0.159 HD
ENDROOT
BRANCH   1  10
ATOM     10  C   UNL     1      -9.444 -12.799 -13.649  0.00  0.00    +0.151 C 
BRANCH  10  11
ATOM     11  C   UNL     1     -10.761 -12.556 -12.965  0.00  0.00    -0.028 A 
ATOM     12  C   UNL     1     -11.549 -13.633 -12.534  0.00  0.00    +0.005 A 
ATOM     13  C   UNL     1     -11.223 -11.250 -12.740  0.00  0.00    +0.005 A 
ATOM     14  C   UNL     1     -12.758 -13.407 -11.871  0.00  0.00    +0.000 A 
ATOM     15  C   UNL     1     -12.431 -11.029 -12.079  0.00  0.00    +0.000 A 
ATOM     16  C   UNL     1     -13.197 -12.107 -11.643  0.00  0.00    +0.000 A 
ENDBRANCH  10  11
ENDBRANCH   1  10
TORSDOF 2
ENDMDL
