MODEL 1
REMARK VINA RESULT:    -4.360      0.000      0.000
REMARK INTER + INTRA:          -5.003
REMARK INTER:                  -4.869
REMARK INTRA:                  -0.134
REMARK UNBOUND:                -0.134
REMARK  Name = 1550473
REMARK  2 active torsions:
REMARK  status: ('A' for Active; 'I' for Inactive)
REMARK    1  A    between atoms: N_1  and  C_4
REMARK    2  A    between atoms: C_4  and  C_5
REMARK                            x       y       z     vdW  Elec       q    Type
REMARK                         _______ _______ _______ _____ _____    ______ ____
ROOT
ATOM      1  N   UNL     1       2.071   8.390  17.404  0.00  0.00    -0.354 N 
ATOM      2  N   UNL     1       0.192   7.133  16.903  0.00  0.00    -0.372 N 
ATOM      3  N   UNL     1       2.144   6.706  15.776  0.00  0.00    -0.372 N 
ATOM      4  C   UNL     1       1.483   7.417  16.696  0.00  0.00    +0.166 C 
ATOM      5  H   UNL     1       1.507   8.913  18.065  0.00  0.00    +0.163 HD
ATOM      6  H   UNL     1      -0.278   6.402  16.386  0.00  0.00    +0.159 HD
ATOM      7  H   UNL     1      -0.358   7.626  17.597  0.00  0.00    +0.159 HD
ATOM      8  H   UNL     1       3.119   6.875  15.568  0.00  0.00    +0.159 HD
ATOM      9  H   UNL     1       1.688   5.978  15.240  0.00  0.00    +0.159 HD
ENDROOT
BRANCH   1  10
ATOM     10  C   UNL     1       3.486   8.742  17.293  0.00  0.00    +0.151 C 
BRANCH  10  11
ATOM     11  C   UNL     1       3.654   9.761  16.199  0.00  0.00    -0.028 A 
ATOM     12  C   UNL     1       3.034  11.016  16.294  0.00  0.00    +0.005 A 
ATOM     13  C   UNL     1       4.437   9.480  15.069  0.00  0.00    +0.005 A 
ATOM     14  C   UNL     1       3.215  11.973  15.293  0.00  0.00    +0.000 A 
ATOM     15  C   UNL     1       4.614  10.438  14.071  0.00  0.00    +0.000 A 
ATOM     16  C   UNL     1       4.005  11.685  14.185  0.00  0.00    +0.000 A 
ENDBRANCH  10  11
ENDBRANCH   1  10
TORSDOF 2
ENDMDL
MODEL 2
REMARK VINA RESULT:    -4.355      3.737      6.016
REMARK INTER + INTRA:          -4.998
REMARK INTER:                  -4.835
REMARK INTRA:                  -0.164
REMARK UNBOUND:                -0.134
REMARK  Name = 1550473
REMARK  2 active torsions:
REMARK  status: ('A' for Active; 'I' for Inactive)
REMARK    1  A    between atoms: N_1  and  C_4
REMARK    2  A    between atoms: C_4  and  C_5
REMARK                            x       y       z     vdW  Elec       q    Type
REMARK                         _______ _______ _______ _____ _____    ______ ____
ROOT
ATOM      1  N   UNL     1       3.454   6.796  16.945  0.00  0.00    -0.354 N 
ATOM      2  N   UNL     1       4.343   7.798  15.055  0.00  0.00    -0.372 N 
ATOM      3  N   UNL     1       3.969   9.082  16.919  0.00  0.00    -0.372 N 
ATOM      4  C   UNL     1       3.916   7.888  16.320  0.00  0.00    +0.166 C 
ATOM      5  H   UNL     1       3.411   5.927  16.425  0.00  0.00    +0.163 HD
ATOM      6  H   UNL     1       4.700   8.603  14.559  0.00  0.00    +0.159 HD
ATOM      7  H   UNL     1       4.342   6.918  14.554  0.00  0.00    +0.159 HD
ATOM      8  H   UNL     1       3.657   9.218  17.871  0.00  0.00    +0.159 HD
ATOM      9  H   UNL     1       4.313   9.903  16.436  0.00  0.00    +0.159 HD
ENDROOT
BRANCH   1  10
ATOM     10  C   UNL     1       3.016   6.776  18.339  0.00  0.00    +0.151 C 
BRANCH  10  11
ATOM     11  C   UNL     1       4.072   6.109  19.176  0.00  0.00    -0.028 A 
ATOM     12  C   UNL     1       4.749   4.977  18.700  0.00  0.00    +0.005 A 
ATOM     13  C   UNL     1       4.405   6.608  20.445  0.00  0.00    +0.005 A 
ATOM     14  C   UNL     1       5.751   4.375  19.465  0.00  0.00    +0.000 A 
ATOM     15  C   UNL     1       5.405   6.004  21.206  0.00  0.00    +0.000 A 
ATOM     16  C   UNL     1       6.080   4.889  20.714  0.00  0.00    +0.000 A 
ENDBRANCH  10  11
ENDBRANCH   1  10
TORSDOF 2
ENDMDL
MODEL 3
REMARK VINA RESULT:    -4.347     15.220     16.502
REMARK INTER + INTRA:          -4.989
REMARK INTER:                  -4.864
REMARK INTRA:                  -0.125
REMARK UNBOUND:                -0.134
REMARK  Name = 1550473
REMARK  2 active torsions:
REMARK  status: ('A' for Active; 'I' for Inactive)
REMARK    1  A    between atoms: N_1  and  C_4
REMARK    2  A    between atoms: C_4  and  C_5
REMARK                            x       y       z     vdW  Elec       q    Type
REMARK                         _______ _______ _______ _____ _____    ______ ____
ROOT
ATOM      1  N   UNL     1      10.033   0.623   6.819  0.00  0.00    -0.354 N 
ATOM      2  N   UNL     1       9.574   2.750   7.612  0.00  0.00    -0.372 N 
ATOM      3  N   UNL     1      11.667   1.870   7.945  0.00  0.00    -0.372 N 
ATOM      4  C   UNL     1      10.430   1.733   7.454  0.00  0.00    +0.166 C 
ATOM      5  H   UNL     1       9.073   0.570   6.498  0.00  0.00    +0.163 HD
ATOM      6  H   UNL     1       9.846   3.602   8.084  0.00  0.00    +0.159 HD
ATOM      7  H   UNL     1       8.629   2.712   7.249  0.00  0.00    +0.159 HD
ATOM      8  H   UNL     1      12.359   1.137   7.864  0.00  0.00    +0.159 HD
ATOM      9  H   UNL     1      11.955   2.711   8.430  0.00  0.00    +0.159 HD
ENDROOT
BRANCH   1  10
ATOM     10  C   UNL     1      10.903  -0.520   6.548  0.00  0.00    +0.151 C 
BRANCH  10  11
ATOM     11  C   UNL     1      10.856  -0.835   5.079  0.00  0.00    -0.028 A 
ATOM     12  C   UNL     1       9.680  -1.325   4.493  0.00  0.00    +0.005 A 
ATOM     13  C   UNL     1      11.984  -0.642   4.266  0.00  0.00    +0.005 A 
ATOM     14  C   UNL     1       9.627  -1.589   3.122  0.00  0.00    +0.000 A 
ATOM     15  C   UNL     1      11.927  -0.908   2.898  0.00  0.00    +0.000 A 
ATOM     16  C   UNL     1      10.748  -1.379   2.326  0.00  0.00    +0.000 A 
ENDBRANCH  10  11
ENDBRANCH   1  10
TORSDOF 2
ENDMDL
MODEL 4
REMARK VINA RESULT:    -4.329     15.343     16.670
REMARK INTER + INTRA:          -4.969
REMARK INTER:                  -4.819
REMARK INTRA:                  -0.150
REMARK UNBOUND:                -0.134
REMARK  Name = 1550473
REMARK  2 active torsions:
REMARK  status: ('A' for Active; 'I' for Inactive)
REMARK    1  A    between atoms: N_1  and  C_4
REMARK    2  A    between atoms: C_4  and  C_5
REMARK                            x       y       z     vdW  Elec       q    Type
REMARK                         _______ _______ _______ _____ _____    ______ ____
ROOT
ATOM      1  N   UNL     1      11.144   1.220   6.396  0.00  0.00    -0.354 N 
ATOM      2  N   UNL     1       9.706   2.633   7.537  0.00  0.00    -0.372 N 
ATOM      3  N   UNL     1       9.687   0.393   8.035  0.00  0.00    -0.372 N 
ATOM      4  C   UNL     1      10.187   1.404   7.316  0.00  0.00    +0.166 C 
ATOM      5  H   UNL     1      11.459   2.023   5.864  0.00  0.00    +0.163 HD
ATOM      6  H   UNL     1       8.987   2.803   8.228  0.00  0.00    +0.159 HD
ATOM      7  H   UNL     1      10.056   3.440   7.036  0.00  0.00    +0.159 HD
ATOM      8  H   UNL     1      10.003  -0.560   7.912  0.00  0.00    +0.159 HD
ATOM      9  H   UNL     1       8.958   0.541   8.722  0.00  0.00    +0.159 HD
ENDROOT
BRANCH   1  10
ATOM     10  C   UNL     1      11.773  -0.069   6.116  0.00  0.00    +0.151 C 
BRANCH  10  11
ATOM     11  C   UNL     1      11.331  -0.548   4.761  0.00  0.00    -0.028 A 
ATOM     12  C   UNL     1      12.242  -0.615   3.697  0.00  0.00    +0.005 A 
ATOM     13  C   UNL     1      10.003  -0.942   4.536  0.00  0.00    +0.005 A 
ATOM     14  C   UNL     1      11.839  -1.088   2.446  0.00  0.00    +0.000 A 
ATOM     15  C   UNL     1       9.604  -1.413   3.285  0.00  0.00    +0.000 A 
ATOM     16  C   UNL     1      10.523  -1.488   2.241  0.00  0.00    +0.000 A 
ENDBRANCH  10  11
ENDBRANCH   1  10
TORSDOF 2
ENDMDL
MODEL 5
REMARK VINA RESULT:    -4.135     20.550     21.855
REMARK INTER + INTRA:          -4.752
REMARK INTER:                  -4.628
REMARK INTRA:                  -0.124
REMARK UNBOUND:                -0.134
REMARK  Name = 1550473
REMARK  2 active torsions:
REMARK  status: ('A' for Active; 'I' for Inactive)
REMARK    1  A    between atoms: N_1  and  C_4
REMARK    2  A    between atoms: C_4  and  C_5
REMARK                            x       y       z     vdW  Elec       q    Type
REMARK                         _______ _______ _______ _____ _____    ______ ____
ROOT
ATOM      1  N   UNL     1       0.703  12.013  -4.159  0.00  0.00    -0.354 N 
ATOM      2  N   UNL     1       0.069  11.564  -1.977  0.00  0.00    -0.372 N 
ATOM      3  N   UNL     1       1.983  12.774  -2.349  0.00  0.00    -0.372 N 
ATOM      4  C   UNL     1       0.925  12.121  -2.842  0.00  0.00    +0.166 C 
ATOM      5  H   UNL     1      -0.101  11.479  -4.469  0.00  0.00    +0.163 HD
ATOM      6  H   UNL     1       0.208  11.632  -0.978  0.00  0.00    +0.159 HD
ATOM      7  H   UNL     1      -0.758  11.070  -2.289  0.00  0.00    +0.159 HD
ATOM      8  H   UNL     1       2.669  13.212  -2.949  0.00  0.00    +0.159 HD
ATOM      9  H   UNL     1       2.146  12.843  -1.352  0.00  0.00    +0.159 HD
ENDROOT
BRANCH   1  10
ATOM     10  C   UNL     1       1.545  12.628  -5.183  0.00  0.00    +0.151 C 
BRANCH  10  11
ATOM     11  C   UNL     1       1.709  11.667  -6.328  0.00  0.00    -0.028 A 
ATOM     12  C   UNL     1       0.656  10.818  -6.701  0.00  0.00    +0.005 A 
ATOM     13  C   UNL     1       2.913  11.603  -7.046  0.00  0.00    +0.005 A 
ATOM     14  C   UNL     1       0.798   9.946  -7.783  0.00  0.00    +0.000 A 
ATOM     15  C   UNL     1       3.050  10.730  -8.125  0.00  0.00    +0.000 A 
ATOM     16  C   UNL     1       1.992   9.904  -8.495  0.00  0.00    +0.000 A 
ENDBRANCH  10  11
ENDBRANCH   1  10
TORSDOF 2
ENDMDL
MODEL 6
REMARK VINA RESULT:    -4.132     18.253     19.486
REMARK INTER + INTRA:          -4.749
REMARK INTER:                  -4.602
REMARK INTRA:                  -0.147
REMARK UNBOUND:                -0.134
REMARK  Name = 1550473
REMARK  2 active torsions:
REMARK  status: ('A' for Active; 'I' for Inactive)
REMARK    1  A    between atoms: N_1  and  C_4
REMARK    2  A    between atoms: C_4  and  C_5
REMARK                            x       y       z     vdW  Elec       q    Type
REMARK                         _______ _______ _______ _____ _____    ______ ____
ROOT
ATOM      1  N   UNL     1      -0.198  12.605  -1.339  0.00  0.00    -0.354 N 
ATOM      2  N   UNL     1      -0.660  11.727   0.754  0.00  0.00    -0.372 N 
ATOM      3  N   UNL     1       1.521  11.818   0.046  0.00  0.00    -0.372 N 
ATOM      4  C   UNL     1       0.227  12.055  -0.194  0.00  0.00    +0.166 C 
ATOM      5  H   UNL     1      -1.194  12.732  -1.472  0.00  0.00    +0.163 HD
ATOM      6  H   UNL     1      -0.369  11.314   1.630  0.00  0.00    +0.159 HD
ATOM      7  H   UNL     1      -1.652  11.897   0.637  0.00  0.00    +0.159 HD
ATOM      8  H   UNL     1       2.240  12.037  -0.630  0.00  0.00    +0.159 HD
ATOM      9  H   UNL     1       1.831  11.394   0.912  0.00  0.00    +0.159 HD
ENDROOT
BRANCH   1  10
ATOM     10  C   UNL     1       0.691  13.048  -2.412  0.00  0.00    +0.151 C 
BRANCH  10  11
ATOM     11  C   UNL     1       0.325  12.330  -3.681  0.00  0.00    -0.028 A 
ATOM     12  C   UNL     1      -0.944  11.750  -3.831  0.00  0.00    +0.005 A 
ATOM     13  C   UNL     1       1.240  12.229  -4.740  0.00  0.00    +0.005 A 
ATOM     14  C   UNL     1      -1.295  11.109  -5.021  0.00  0.00    +0.000 A 
ATOM     15  C   UNL     1       0.886  11.587  -5.927  0.00  0.00    +0.000 A 
ATOM     16  C   UNL     1      -0.383  11.029  -6.067  0.00  0.00    +0.000 A 
ENDBRANCH  10  11
ENDBRANCH   1  10
TORSDOF 2
ENDMDL
MODEL 7
REMARK VINA RESULT:    -4.126     23.559     24.717
REMARK INTER + INTRA:          -4.743
REMARK INTER:                  -4.630
REMARK INTRA:                  -0.113
REMARK UNBOUND:                -0.134
REMARK  Name = 1550473
REMARK  2 active torsions:
REMARK  status: ('A' for Active; 'I' for Inactive)
REMARK    1  A    between atoms: N_1  and  C_4
REMARK    2  A    between atoms: C_4  and  C_5
REMARK                            x       y       z     vdW  Elec       q    Type
REMARK                         _______ _______ _______ _____ _____    ______ ____
ROOT
ATOM      1  N   UNL     1       5.456   9.976  -8.872  0.00  0.00    -0.354 N 
ATOM      2  N   UNL     1       7.337   8.774  -9.491  0.00  0.00    -0.372 N 
ATOM      3  N   UNL     1       7.522  11.039  -9.175  0.00  0.00    -0.372 N 
ATOM      4  C   UNL     1       6.760   9.940  -9.175  0.00  0.00    +0.166 C 
ATOM      5  H   UNL     1       4.927   9.113  -8.920  0.00  0.00    +0.163 HD
ATOM      6  H   UNL     1       8.319   8.716  -9.721  0.00  0.00    +0.159 HD
ATOM      7  H   UNL     1       6.815   7.906  -9.494  0.00  0.00    +0.159 HD
ATOM      8  H   UNL     1       7.147  11.951  -8.951  0.00  0.00    +0.159 HD
ATOM      9  H   UNL     1       8.505  11.003  -9.414  0.00  0.00    +0.159 HD
ENDROOT
BRANCH   1  10
ATOM     10  C   UNL     1       4.745  11.185  -8.462  0.00  0.00    +0.151 C 
BRANCH  10  11
ATOM     11  C   UNL     1       3.327  10.826  -8.111  0.00  0.00    -0.028 A 
ATOM     12  C   UNL     1       2.639   9.846  -8.841  0.00  0.00    +0.005 A 
ATOM     13  C   UNL     1       2.668  11.459  -7.046  0.00  0.00    +0.005 A 
ATOM     14  C   UNL     1       1.333   9.491  -8.497  0.00  0.00    +0.000 A 
ATOM     15  C   UNL     1       1.363  11.103  -6.706  0.00  0.00    +0.000 A 
ATOM     16  C   UNL     1       0.697  10.117  -7.430  0.00  0.00    +0.000 A 
ENDBRANCH  10  11
ENDBRANCH   1  10
TORSDOF 2
ENDMDL
MODEL 8
REMARK VINA RESULT:    -4.089     16.479     17.865
REMARK INTER + INTRA:          -4.701
REMARK INTER:                  -4.556
REMARK INTRA:                  -0.144
REMARK UNBOUND:                -0.134
REMARK  Name = 1550473
REMARK  2 active torsions:
REMARK  status: ('A' for Active; 'I' for Inactive)
REMARK    1  A    between atoms: N_1  and  C_4
REMARK    2  A    between atoms: C_4  and  C_5
REMARK                            x       y       z     vdW  Elec       q    Type
REMARK                         _______ _______ _______ _____ _____    ______ ____
ROOT
ATOM      1  N   UNL     1       4.436  11.906  -0.120  0.00  0.00    -0.354 N 
ATOM      2  N   UNL     1       6.654  11.263   0.059  0.00  0.00    -0.372 N 
ATOM      3  N   UNL     1       5.013   9.709   0.455  0.00  0.00    -0.372 N 
ATOM      4  C   UNL     1       5.352  10.961   0.131  0.00  0.00    +0.166 C 
ATOM      5  H   UNL     1       4.757  12.844  -0.331  0.00  0.00    +0.163 HD
ATOM      6  H   UNL     1       7.368  10.570   0.240  0.00  0.00    +0.159 HD
ATOM      7  H   UNL     1       6.972  12.190  -0.197  0.00  0.00    +0.159 HD
ATOM      8  H   UNL     1       4.048   9.418   0.532  0.00  0.00    +0.159 HD
ATOM      9  H   UNL     1       5.713   9.004   0.651  0.00  0.00    +0.159 HD
ENDROOT
BRANCH   1  10
ATOM     10  C   UNL     1       2.994  11.667  -0.122  0.00  0.00    +0.151 C 
BRANCH  10  11
ATOM     11  C   UNL     1       2.444  11.989  -1.484  0.00  0.00    -0.028 A 
ATOM     12  C   UNL     1       1.107  11.703  -1.798  0.00  0.00    +0.005 A 
ATOM     13  C   UNL     1       3.253  12.586  -2.463  0.00  0.00    +0.005 A 
ATOM     14  C   UNL     1       0.587  12.030  -3.052  0.00  0.00    +0.000 A 
ATOM     15  C   UNL     1       2.730  12.910  -3.715  0.00  0.00    +0.000 A 
ATOM     16  C   UNL     1       1.397  12.634  -4.008  0.00  0.00    +0.000 A 
ENDBRANCH  10  11
ENDBRANCH   1  10
TORSDOF 2
ENDMDL
MODEL 9
REMARK VINA RESULT:    -4.015      2.563      3.579
REMARK INTER + INTRA:          -4.618
REMARK INTER:                  -4.436
REMARK INTRA:                  -0.183
REMARK UNBOUND:                -0.134
REMARK  Name = 1550473
REMARK  2 active torsions:
REMARK  status: ('A' for Active; 'I' for Inactive)
REMARK    1  A    between atoms: N_1  and  C_4
REMARK    2  A    between atoms: C_4  and  C_5
REMARK                            x       y       z     vdW  Elec       q    Type
REMARK                         _______ _______ _______ _____ _____    ______ ____
ROOT
ATOM      1  N   UNL     1       3.396   9.267  16.319  0.00  0.00    -0.354 N 
ATOM      2  N   UNL     1       4.504   7.674  15.054  0.00  0.00    -0.372 N 
ATOM      3  N   UNL     1       3.005   6.980  16.647  0.00  0.00    -0.372 N 
ATOM      4  C   UNL     1       3.626   7.982  16.017  0.00  0.00    +0.166 C 
ATOM      5  H   UNL     1       3.922   9.979  15.825  0.00  0.00    +0.163 HD
ATOM      6  H   UNL     1       4.696   6.714  14.802  0.00  0.00    +0.159 HD
ATOM      7  H   UNL     1       4.994   8.389  14.531  0.00  0.00    +0.159 HD
ATOM      8  H   UNL     1       2.335   7.145  17.386  0.00  0.00    +0.159 HD
ATOM      9  H   UNL     1       3.192   6.012  16.416  0.00  0.00    +0.159 HD
ENDROOT
BRANCH   1  10
ATOM     10  C   UNL     1       2.420   9.711  17.313  0.00  0.00    +0.151 C 
BRANCH  10  11
ATOM     11  C   UNL     1       1.184  10.194  16.606  0.00  0.00    -0.028 A 
ATOM     12  C   UNL     1       1.164  11.452  15.986  0.00  0.00    +0.005 A 
ATOM     13  C   UNL     1       0.031   9.395  16.547  0.00  0.00    +0.005 A 
ATOM     14  C   UNL     1       0.026  11.888  15.303  0.00  0.00    +0.000 A 
ATOM     15  C   UNL     1      -1.103   9.835  15.866  0.00  0.00    +0.000 A 
ATOM     16  C   UNL     1      -1.105  11.080  15.242  0.00  0.00    +0.000 A 
ENDBRANCH  10  11
ENDBRANCH   1  10
TORSDOF 2
ENDMDL
