MODEL 1
REMARK VINA RESULT:    -5.025      0.000      0.000
REMARK INTER + INTRA:          -5.736
REMARK INTER:                  -5.612
REMARK INTRA:                  -0.124
REMARK UNBOUND:                -0.124
REMARK  Name = 1550473
REMARK  2 active torsions:
REMARK  status: ('A' for Active; 'I' for Inactive)
REMARK    1  A    between atoms: N_1  and  C_4
REMARK    2  A    between atoms: C_4  and  C_5
REMARK                            x       y       z     vdW  Elec       q    Type
REMARK                         _______ _______ _______ _____ _____    ______ ____
ROOT
ATOM      1  N   UNL     1      -8.570  -1.417  -8.976  0.00  0.00    -0.354 N 
ATOM      2  N   UNL     1      -9.885  -3.321  -9.069  0.00  0.00    -0.372 N 
ATOM      3  N   UNL     1      -7.619  -3.523  -9.365  0.00  0.00    -0.372 N 
ATOM      4  C   UNL     1      -8.680  -2.742  -9.137  0.00  0.00    +0.166 C 
ATOM      5  H   UNL     1      -9.416  -0.877  -8.836  0.00  0.00    +0.163 HD
ATOM      6  H   UNL     1      -9.999  -4.319  -9.184  0.00  0.00    +0.159 HD
ATOM      7  H   UNL     1     -10.724  -2.785  -8.883  0.00  0.00    +0.159 HD
ATOM      8  H   UNL     1      -6.682  -3.147  -9.433  0.00  0.00    +0.159 HD
ATOM      9  H   UNL     1      -7.714  -4.523  -9.494  0.00  0.00    +0.159 HD
ENDROOT
BRANCH   1  10
ATOM     10  C   UNL     1      -7.298  -0.696  -8.977  0.00  0.00    +0.151 C 
BRANCH  10  11
ATOM     11  C   UNL     1      -7.472   0.607  -8.247  0.00  0.00    -0.028 A 
ATOM     12  C   UNL     1      -6.353   1.349  -7.839  0.00  0.00    +0.005 A 
ATOM     13  C   UNL     1      -8.752   1.109  -7.966  0.00  0.00    +0.005 A 
ATOM     14  C   UNL     1      -6.514   2.574  -7.187  0.00  0.00    +0.000 A 
ATOM     15  C   UNL     1      -8.908   2.332  -7.314  0.00  0.00    +0.000 A 
ATOM     16  C   UNL     1      -7.789   3.066  -6.927  0.00  0.00    +0.000 A 
ENDBRANCH  10  11
ENDBRANCH   1  10
TORSDOF 2
ENDMDL
MODEL 2
REMARK VINA RESULT:    -4.858      4.235      7.676
REMARK INTER + INTRA:          -5.550
REMARK INTER:                  -5.428
REMARK INTRA:                  -0.123
REMARK UNBOUND:                -0.124
REMARK  Name = 1550473
REMARK  2 active torsions:
REMARK  status: ('A' for Active; 'I' for Inactive)
REMARK    1  A    between atoms: N_1  and  C_4
REMARK    2  A    between atoms: C_4  and  C_5
REMARK                            x       y       z     vdW  Elec       q    Type
REMARK                         _______ _______ _______ _____ _____    ______ ____
ROOT
ATOM      1  N   UNL     1     -10.552  -3.292  -9.775  0.00  0.00    -0.354 N 
ATOM      2  N   UNL     1      -9.232  -1.390  -9.696  0.00  0.00    -0.372 N 
ATOM      3  N   UNL     1      -8.227  -3.446  -9.521  0.00  0.00    -0.372 N 
ATOM      4  C   UNL     1      -9.344  -2.724  -9.664  0.00  0.00    +0.166 C 
ATOM      5  H   UNL     1     -11.362  -2.688  -9.850  0.00  0.00    +0.163 HD
ATOM      6  H   UNL     1      -8.333  -0.933  -9.618  0.00  0.00    +0.159 HD
ATOM      7  H   UNL     1     -10.039  -0.791  -9.818  0.00  0.00    +0.159 HD
ATOM      8  H   UNL     1      -8.244  -4.456  -9.484  0.00  0.00    +0.159 HD
ATOM      9  H   UNL     1      -7.320  -3.007  -9.430  0.00  0.00    +0.159 HD
ENDROOT
BRANCH   1  10
ATOM     10  C   UNL     1     -10.777  -4.736  -9.805  0.00  0.00    +0.151 C 
BRANCH  10  11
ATOM     11  C   UNL     1     -11.444  -5.101 -11.103  0.00  0.00    -0.028 A 
ATOM     12  C   UNL     1     -12.095  -6.335 -11.245  0.00  0.00    +0.005 A 
ATOM     13  C   UNL     1     -11.432  -4.216 -12.191  0.00  0.00    +0.005 A 
ATOM     14  C   UNL     1     -12.740  -6.663 -12.440  0.00  0.00    +0.000 A 
ATOM     15  C   UNL     1     -12.077  -4.547 -13.383  0.00  0.00    +0.000 A 
ATOM     16  C   UNL     1     -12.733  -5.770 -13.506  0.00  0.00    +0.000 A 
ENDBRANCH  10  11
ENDBRANCH   1  10
TORSDOF 2
ENDMDL
MODEL 3
REMARK VINA RESULT:    -4.795     10.853     11.695
REMARK INTER + INTRA:          -5.480
REMARK INTER:                  -5.388
REMARK INTRA:                  -0.092
REMARK UNBOUND:                -0.124
REMARK  Name = 1550473
REMARK  2 active torsions:
REMARK  status: ('A' for Active; 'I' for Inactive)
REMARK    1  A    between atoms: N_1  and  C_4
REMARK    2  A    between atoms: C_4  and  C_5
REMARK                            x       y       z     vdW  Elec       q    Type
REMARK                         _______ _______ _______ _____ _____    ______ ____
ROOT
ATOM      1  N   UNL     1     -14.429   4.156 -14.572  0.00  0.00    -0.354 N 
ATOM      2  N   UNL     1     -14.693   1.977 -13.834  0.00  0.00    -0.372 N 
ATOM      3  N   UNL     1     -13.843   3.542 -12.388  0.00  0.00    -0.372 N 
ATOM      4  C   UNL     1     -14.319   3.240 -13.600  0.00  0.00    +0.166 C 
ATOM      5  H   UNL     1     -14.769   3.857 -15.479  0.00  0.00    +0.163 HD
ATOM      6  H   UNL     1     -14.625   1.265 -13.119  0.00  0.00    +0.159 HD
ATOM      7  H   UNL     1     -15.075   1.691 -14.727  0.00  0.00    +0.159 HD
ATOM      8  H   UNL     1     -13.538   4.476 -12.149  0.00  0.00    +0.159 HD
ATOM      9  H   UNL     1     -13.756   2.841 -11.663  0.00  0.00    +0.159 HD
ENDROOT
BRANCH   1  10
ATOM     10  C   UNL     1     -14.100   5.571 -14.404  0.00  0.00    +0.151 C 
BRANCH  10  11
ATOM     11  C   UNL     1     -14.715   6.355 -15.529  0.00  0.00    -0.028 A 
ATOM     12  C   UNL     1     -15.967   6.968 -15.369  0.00  0.00    +0.005 A 
ATOM     13  C   UNL     1     -14.049   6.495 -16.756  0.00  0.00    +0.005 A 
ATOM     14  C   UNL     1     -16.525   7.722 -16.404  0.00  0.00    +0.000 A 
ATOM     15  C   UNL     1     -14.611   7.248 -17.787  0.00  0.00    +0.000 A 
ATOM     16  C   UNL     1     -15.847   7.864 -17.610  0.00  0.00    +0.000 A 
ENDBRANCH  10  11
ENDBRANCH   1  10
TORSDOF 2
ENDMDL
MODEL 4
REMARK VINA RESULT:    -4.775     37.217     38.076
REMARK INTER + INTRA:          -5.457
REMARK INTER:                  -5.309
REMARK INTRA:                  -0.148
REMARK UNBOUND:                -0.124
REMARK  Name = 1550473
REMARK  2 active torsions:
REMARK  status: ('A' for Active; 'I' for Inactive)
REMARK    1  A    between atoms: N_1  and  C_4
REMARK    2  A    between atoms: C_4  and  C_5
REMARK                            x       y       z     vdW  Elec       q    Type
REMARK                         _______ _______ _______ _____ _____    ______ ____
ROOT
ATOM      1  N   UNL     1      10.154  -4.520  24.356  0.00  0.00    -0.354 N 
ATOM      2  N   UNL     1       8.344  -5.954  24.177  0.00  0.00    -0.372 N 
ATOM      3  N   UNL     1       8.614  -4.306  22.603  0.00  0.00    -0.372 N 
ATOM      4  C   UNL     1       9.048  -4.915  23.711  0.00  0.00    +0.166 C 
ATOM      5  H   UNL     1      10.414  -5.004  25.208  0.00  0.00    +0.163 HD
ATOM      6  H   UNL     1       7.508  -6.277  23.709  0.00  0.00    +0.159 HD
ATOM      7  H   UNL     1       8.631  -6.465  25.002  0.00  0.00    +0.159 HD
ATOM      8  H   UNL     1       9.097  -3.512  22.204  0.00  0.00    +0.159 HD
ATOM      9  H   UNL     1       7.772  -4.608  22.128  0.00  0.00    +0.159 HD
ENDROOT
BRANCH   1  10
ATOM     10  C   UNL     1      11.021  -3.435  23.902  0.00  0.00    +0.151 C 
BRANCH  10  11
ATOM     11  C   UNL     1      11.055  -2.360  24.953  0.00  0.00    -0.028 A 
ATOM     12  C   UNL     1      10.278  -1.201  24.812  0.00  0.00    +0.005 A 
ATOM     13  C   UNL     1      11.858  -2.497  26.096  0.00  0.00    +0.005 A 
ATOM     14  C   UNL     1      10.286  -0.216  25.803  0.00  0.00    +0.000 A 
ATOM     15  C   UNL     1      11.864  -1.511  27.083  0.00  0.00    +0.000 A 
ATOM     16  C   UNL     1      11.076  -0.372  26.937  0.00  0.00    +0.000 A 
ENDBRANCH  10  11
ENDBRANCH   1  10
TORSDOF 2
ENDMDL
MODEL 5
REMARK VINA RESULT:    -4.730      7.066      8.804
REMARK INTER + INTRA:          -5.407
REMARK INTER:                  -5.283
REMARK INTRA:                  -0.124
REMARK UNBOUND:                -0.124
REMARK  Name = 1550473
REMARK  2 active torsions:
REMARK  status: ('A' for Active; 'I' for Inactive)
REMARK    1  A    between atoms: N_1  and  C_4
REMARK    2  A    between atoms: C_4  and  C_5
REMARK                            x       y       z     vdW  Elec       q    Type
REMARK                         _______ _______ _______ _____ _____    ______ ____
ROOT
ATOM      1  N   UNL     1     -12.342  -7.986 -13.213  0.00  0.00    -0.354 N 
ATOM      2  N   UNL     1     -11.483 -10.032 -13.877  0.00  0.00    -0.372 N 
ATOM      3  N   UNL     1     -12.039  -8.489 -15.481  0.00  0.00    -0.372 N 
ATOM      4  C   UNL     1     -11.961  -8.821 -14.189  0.00  0.00    +0.166 C 
ATOM      5  H   UNL     1     -12.286  -8.309 -12.254  0.00  0.00    +0.163 HD
ATOM      6  H   UNL     1     -11.185 -10.683 -14.591  0.00  0.00    +0.159 HD
ATOM      7  H   UNL     1     -11.386 -10.335 -12.915  0.00  0.00    +0.159 HD
ATOM      8  H   UNL     1     -12.396  -7.592 -15.783  0.00  0.00    +0.159 HD
ATOM      9  H   UNL     1     -11.756  -9.131 -16.212  0.00  0.00    +0.159 HD
ENDROOT
BRANCH   1  10
ATOM     10  C   UNL     1     -12.825  -6.626 -13.443  0.00  0.00    +0.151 C 
BRANCH  10  11
ATOM     11  C   UNL     1     -12.179  -5.700 -12.449  0.00  0.00    -0.028 A 
ATOM     12  C   UNL     1     -11.803  -4.403 -12.825  0.00  0.00    +0.005 A 
ATOM     13  C   UNL     1     -11.946  -6.114 -11.128  0.00  0.00    +0.005 A 
ATOM     14  C   UNL     1     -11.230  -3.532 -11.894  0.00  0.00    +0.000 A 
ATOM     15  C   UNL     1     -11.373  -5.242 -10.202  0.00  0.00    +0.000 A 
ATOM     16  C   UNL     1     -11.018  -3.951 -10.584  0.00  0.00    +0.000 A 
ENDBRANCH  10  11
ENDBRANCH   1  10
TORSDOF 2
ENDMDL
MODEL 6
REMARK VINA RESULT:    -4.711     11.638     12.349
REMARK INTER + INTRA:          -5.385
REMARK INTER:                  -5.290
REMARK INTRA:                  -0.095
REMARK UNBOUND:                -0.124
REMARK  Name = 1550473
REMARK  2 active torsions:
REMARK  status: ('A' for Active; 'I' for Inactive)
REMARK    1  A    between atoms: N_1  and  C_4
REMARK    2  A    between atoms: C_4  and  C_5
REMARK                            x       y       z     vdW  Elec       q    Type
REMARK                         _______ _______ _______ _____ _____    ______ ____
ROOT
ATOM      1  N   UNL     1     -15.574   3.041 -15.870  0.00  0.00    -0.354 N 
ATOM      2  N   UNL     1     -15.408   0.736 -16.029  0.00  0.00    -0.372 N 
ATOM      3  N   UNL     1     -16.966   1.640 -14.608  0.00  0.00    -0.372 N 
ATOM      4  C   UNL     1     -15.985   1.821 -15.499  0.00  0.00    +0.166 C 
ATOM      5  H   UNL     1     -14.805   3.110 -16.527  0.00  0.00    +0.163 HD
ATOM      6  H   UNL     1     -15.700  -0.197 -15.772  0.00  0.00    +0.159 HD
ATOM      7  H   UNL     1     -14.671   0.809 -16.721  0.00  0.00    +0.159 HD
ATOM      8  H   UNL     1     -17.438   2.418 -14.167  0.00  0.00    +0.159 HD
ATOM      9  H   UNL     1     -17.264   0.714 -14.329  0.00  0.00    +0.159 HD
ENDROOT
BRANCH   1  10
ATOM     10  C   UNL     1     -16.173   4.286 -15.393  0.00  0.00    +0.151 C 
BRANCH  10  11
ATOM     11  C   UNL     1     -15.750   5.412 -16.296  0.00  0.00    -0.028 A 
ATOM     12  C   UNL     1     -16.690   6.067 -17.105  0.00  0.00    +0.005 A 
ATOM     13  C   UNL     1     -14.412   5.832 -16.342  0.00  0.00    +0.005 A 
ATOM     14  C   UNL     1     -16.303   7.133 -17.921  0.00  0.00    +0.000 A 
ATOM     15  C   UNL     1     -14.030   6.896 -17.159  0.00  0.00    +0.000 A 
ATOM     16  C   UNL     1     -14.976   7.548 -17.947  0.00  0.00    +0.000 A 
ENDBRANCH  10  11
ENDBRANCH   1  10
TORSDOF 2
ENDMDL
MODEL 7
REMARK VINA RESULT:    -4.484     11.884     12.212
REMARK INTER + INTRA:          -5.132
REMARK INTER:                  -4.994
REMARK INTRA:                  -0.138
REMARK UNBOUND:                -0.124
REMARK  Name = 1550473
REMARK  2 active torsions:
REMARK  status: ('A' for Active; 'I' for Inactive)
REMARK    1  A    between atoms: N_1  and  C_4
REMARK    2  A    between atoms: C_4  and  C_5
REMARK                            x       y       z     vdW  Elec       q    Type
REMARK                         _______ _______ _______ _____ _____    ______ ____
ROOT
ATOM      1  N   UNL     1      -8.914  -9.022 -17.077  0.00  0.00    -0.354 N 
ATOM      2  N   UNL     1     -11.095  -8.725 -17.800  0.00  0.00    -0.372 N 
ATOM      3  N   UNL     1     -10.644  -8.600 -15.553  0.00  0.00    -0.372 N 
ATOM      4  C   UNL     1     -10.204  -8.784 -16.802  0.00  0.00    +0.166 C 
ATOM      5  H   UNL     1      -8.649  -9.184 -18.042  0.00  0.00    +0.163 HD
ATOM      6  H   UNL     1     -12.074  -8.544 -17.624  0.00  0.00    +0.159 HD
ATOM      7  H   UNL     1     -10.819  -8.841 -18.767  0.00  0.00    +0.159 HD
ATOM      8  H   UNL     1     -10.024  -8.638 -14.756  0.00  0.00    +0.159 HD
ATOM      9  H   UNL     1     -11.622  -8.429 -15.356  0.00  0.00    +0.159 HD
ENDROOT
BRANCH   1  10
ATOM     10  C   UNL     1      -7.856  -9.053 -16.069  0.00  0.00    +0.151 C 
BRANCH  10  11
ATOM     11  C   UNL     1      -6.662  -8.299 -16.587  0.00  0.00    -0.028 A 
ATOM     12  C   UNL     1      -5.372  -8.611 -16.134  0.00  0.00    +0.005 A 
ATOM     13  C   UNL     1      -6.814  -7.276 -17.535  0.00  0.00    +0.005 A 
ATOM     14  C   UNL     1      -4.260  -7.931 -16.637  0.00  0.00    +0.000 A 
ATOM     15  C   UNL     1      -5.702  -6.600 -18.035  0.00  0.00    +0.000 A 
ATOM     16  C   UNL     1      -4.424  -6.929 -17.587  0.00  0.00    +0.000 A 
ENDBRANCH  10  11
ENDBRANCH   1  10
TORSDOF 2
ENDMDL
MODEL 8
REMARK VINA RESULT:    -4.423     35.992     36.367
REMARK INTER + INTRA:          -5.063
REMARK INTER:                  -4.948
REMARK INTRA:                  -0.115
REMARK UNBOUND:                -0.124
REMARK  Name = 1550473
REMARK  2 active torsions:
REMARK  status: ('A' for Active; 'I' for Inactive)
REMARK    1  A    between atoms: N_1  and  C_4
REMARK    2  A    between atoms: C_4  and  C_5
REMARK                            x       y       z     vdW  Elec       q    Type
REMARK                         _______ _______ _______ _____ _____    ______ ____
ROOT
ATOM      1  N   UNL     1      -0.061  -1.290  27.440  0.00  0.00    -0.354 N 
ATOM      2  N   UNL     1       1.251  -3.185  27.664  0.00  0.00    -0.372 N 
ATOM      3  N   UNL     1       2.145  -1.330  26.650  0.00  0.00    -0.372 N 
ATOM      4  C   UNL     1       1.105  -1.921  27.249  0.00  0.00    +0.166 C 
ATOM      5  H   UNL     1      -0.821  -1.803  27.873  0.00  0.00    +0.163 HD
ATOM      6  H   UNL     1       2.120  -3.685  27.536  0.00  0.00    +0.159 HD
ATOM      7  H   UNL     1       0.505  -3.680  28.137  0.00  0.00    +0.159 HD
ATOM      8  H   UNL     1       2.097  -0.379  26.309  0.00  0.00    +0.159 HD
ATOM      9  H   UNL     1       3.019  -1.818  26.503  0.00  0.00    +0.159 HD
ENDROOT
BRANCH   1  10
ATOM     10  C   UNL     1      -0.307   0.104  27.074  0.00  0.00    +0.151 C 
BRANCH  10  11
ATOM     11  C   UNL     1      -1.763   0.417  27.280  0.00  0.00    -0.028 A 
ATOM     12  C   UNL     1      -2.165   1.695  27.696  0.00  0.00    +0.005 A 
ATOM     13  C   UNL     1      -2.747  -0.558  27.057  0.00  0.00    +0.005 A 
ATOM     14  C   UNL     1      -3.519   1.995  27.859  0.00  0.00    +0.000 A 
ATOM     15  C   UNL     1      -4.098  -0.255  27.221  0.00  0.00    +0.000 A 
ATOM     16  C   UNL     1      -4.484   1.023  27.620  0.00  0.00    +0.000 A 
ENDBRANCH  10  11
ENDBRANCH   1  10
TORSDOF 2
ENDMDL
MODEL 9
REMARK VINA RESULT:    -4.389     14.294     15.287
REMARK INTER + INTRA:          -5.025
REMARK INTER:                  -4.918
REMARK INTRA:                  -0.107
REMARK UNBOUND:                -0.124
REMARK  Name = 1550473
REMARK  2 active torsions:
REMARK  status: ('A' for Active; 'I' for Inactive)
REMARK    1  A    between atoms: N_1  and  C_4
REMARK    2  A    between atoms: C_4  and  C_5
REMARK                            x       y       z     vdW  Elec       q    Type
REMARK                         _______ _______ _______ _____ _____    ______ ____
ROOT
ATOM      1  N   UNL     1       3.374   3.796 -14.799  0.00  0.00    -0.354 N 
ATOM      2  N   UNL     1       2.207   3.209 -12.886  0.00  0.00    -0.372 N 
ATOM      3  N   UNL     1       4.392   2.541 -13.102  0.00  0.00    -0.372 N 
ATOM      4  C   UNL     1       3.334   3.185 -13.607  0.00  0.00    +0.166 C 
ATOM      5  H   UNL     1       2.529   4.241 -15.140  0.00  0.00    +0.163 HD
ATOM      6  H   UNL     1       2.148   2.760 -11.982  0.00  0.00    +0.159 HD
ATOM      7  H   UNL     1       1.378   3.694 -13.209  0.00  0.00    +0.159 HD
ATOM      8  H   UNL     1       5.270   2.480 -13.599  0.00  0.00    +0.159 HD
ATOM      9  H   UNL     1       4.349   2.075 -12.204  0.00  0.00    +0.159 HD
ENDROOT
BRANCH   1  10
ATOM     10  C   UNL     1       4.568   3.874 -15.639  0.00  0.00    +0.151 C 
BRANCH  10  11
ATOM     11  C   UNL     1       4.358   4.923 -16.695  0.00  0.00    -0.028 A 
ATOM     12  C   UNL     1       4.459   4.595 -18.055  0.00  0.00    +0.005 A 
ATOM     13  C   UNL     1       4.051   6.247 -16.343  0.00  0.00    +0.005 A 
ATOM     14  C   UNL     1       4.234   5.563 -19.037  0.00  0.00    +0.000 A 
ATOM     15  C   UNL     1       3.828   7.210 -17.327  0.00  0.00    +0.000 A 
ATOM     16  C   UNL     1       3.917   6.867 -18.674  0.00  0.00    +0.000 A 
ENDBRANCH  10  11
ENDBRANCH   1  10
TORSDOF 2
ENDMDL
