MODEL 1
REMARK VINA RESULT:    -6.132      0.000      0.000
REMARK INTER + INTRA:          -7.026
REMARK INTER:                  -6.849
REMARK INTRA:                  -0.178
REMARK UNBOUND:                -0.178
REMARK  Name = 1550473
REMARK  2 active torsions:
REMARK  status: ('A' for Active; 'I' for Inactive)
REMARK    1  A    between atoms: N_1  and  C_4
REMARK    2  A    between atoms: C_4  and  C_5
REMARK                            x       y       z     vdW  Elec       q    Type
REMARK                         _______ _______ _______ _____ _____    ______ ____
ROOT
ATOM      1  N   UNL     1     -17.824  -2.306 -29.893  0.00  0.00    -0.354 N 
ATOM      2  N   UNL     1     -15.626  -1.890 -30.491  0.00  0.00    -0.372 N 
ATOM      3  N   UNL     1     -17.260  -1.733 -32.094  0.00  0.00    -0.372 N 
ATOM      4  C   UNL     1     -16.919  -1.979 -30.825  0.00  0.00    +0.166 C 
ATOM      5  H   UNL     1     -17.498  -2.509 -28.955  0.00  0.00    +0.163 HD
ATOM      6  H   UNL     1     -14.920  -1.642 -31.171  0.00  0.00    +0.159 HD
ATOM      7  H   UNL     1     -15.308  -2.049 -29.542  0.00  0.00    +0.159 HD
ATOM      8  H   UNL     1     -18.218  -1.789 -32.412  0.00  0.00    +0.159 HD
ATOM      9  H   UNL     1     -16.566  -1.495 -32.792  0.00  0.00    +0.159 HD
ENDROOT
BRANCH   1  10
ATOM     10  C   UNL     1     -19.263  -2.376 -30.140  0.00  0.00    +0.151 C 
BRANCH  10  11
ATOM     11  C   UNL     1     -19.661  -3.816 -30.320  0.00  0.00    -0.028 A 
ATOM     12  C   UNL     1     -19.785  -4.365 -31.604  0.00  0.00    +0.005 A 
ATOM     13  C   UNL     1     -19.909  -4.637 -29.209  0.00  0.00    +0.005 A 
ATOM     14  C   UNL     1     -20.124  -5.710 -31.771  0.00  0.00    +0.000 A 
ATOM     15  C   UNL     1     -20.249  -5.979 -29.380  0.00  0.00    +0.000 A 
ATOM     16  C   UNL     1     -20.354  -6.516 -30.660  0.00  0.00    +0.000 A 
ENDBRANCH  10  11
ENDBRANCH   1  10
TORSDOF 2
ENDMDL
MODEL 2
REMARK VINA RESULT:    -5.486      1.335      2.095
REMARK INTER + INTRA:          -6.305
REMARK INTER:                  -6.204
REMARK INTRA:                  -0.102
REMARK UNBOUND:                -0.178
REMARK  Name = 1550473
REMARK  2 active torsions:
REMARK  status: ('A' for Active; 'I' for Inactive)
REMARK    1  A    between atoms: N_1  and  C_4
REMARK    2  A    between atoms: C_4  and  C_5
REMARK                            x       y       z     vdW  Elec       q    Type
REMARK                         _______ _______ _______ _____ _____    ______ ____
ROOT
ATOM      1  N   UNL     1     -19.059  -1.951 -29.454  0.00  0.00    -0.354 N 
ATOM      2  N   UNL     1     -17.285  -0.596 -30.074  0.00  0.00    -0.372 N 
ATOM      3  N   UNL     1     -16.912  -2.298 -28.581  0.00  0.00    -0.372 N 
ATOM      4  C   UNL     1     -17.762  -1.626 -29.364  0.00  0.00    +0.166 C 
ATOM      5  H   UNL     1     -19.658  -1.383 -30.042  0.00  0.00    +0.163 HD
ATOM      6  H   UNL     1     -16.311  -0.330 -30.029  0.00  0.00    +0.159 HD
ATOM      7  H   UNL     1     -17.877  -0.059 -30.697  0.00  0.00    +0.159 HD
ATOM      8  H   UNL     1     -17.210  -3.081 -28.015  0.00  0.00    +0.159 HD
ATOM      9  H   UNL     1     -15.936  -2.039 -28.514  0.00  0.00    +0.159 HD
ENDROOT
BRANCH   1  10
ATOM     10  C   UNL     1     -19.667  -3.087 -28.764  0.00  0.00    +0.151 C 
BRANCH  10  11
ATOM     11  C   UNL     1     -19.846  -4.217 -29.740  0.00  0.00    -0.028 A 
ATOM     12  C   UNL     1     -20.197  -5.498 -29.290  0.00  0.00    +0.005 A 
ATOM     13  C   UNL     1     -19.671  -4.011 -31.117  0.00  0.00    +0.005 A 
ATOM     14  C   UNL     1     -20.393  -6.540 -30.199  0.00  0.00    +0.000 A 
ATOM     15  C   UNL     1     -19.866  -5.055 -32.022  0.00  0.00    +0.000 A 
ATOM     16  C   UNL     1     -20.230  -6.318 -31.563  0.00  0.00    +0.000 A 
ENDBRANCH  10  11
ENDBRANCH   1  10
TORSDOF 2
ENDMDL
MODEL 3
REMARK VINA RESULT:    -5.148      8.965     10.496
REMARK INTER + INTRA:          -5.927
REMARK INTER:                  -5.823
REMARK INTRA:                  -0.104
REMARK UNBOUND:                -0.178
REMARK  Name = 1550473
REMARK  2 active torsions:
REMARK  status: ('A' for Active; 'I' for Inactive)
REMARK    1  A    between atoms: N_1  and  C_4
REMARK    2  A    between atoms: C_4  and  C_5
REMARK                            x       y       z     vdW  Elec       q    Type
REMARK                         _______ _______ _______ _____ _____    ______ ____
ROOT
ATOM      1  N   UNL     1     -26.000  -6.942 -23.251  0.00  0.00    -0.354 N 
ATOM      2  N   UNL     1     -27.238  -8.034 -21.626  0.00  0.00    -0.372 N 
ATOM      3  N   UNL     1     -24.962  -8.321 -21.666  0.00  0.00    -0.372 N 
ATOM      4  C   UNL     1     -26.056  -7.760 -22.191  0.00  0.00    +0.166 C 
ATOM      5  H   UNL     1     -26.869  -6.572 -23.620  0.00  0.00    +0.163 HD
ATOM      6  H   UNL     1     -27.311  -8.645 -20.824  0.00  0.00    +0.159 HD
ATOM      7  H   UNL     1     -28.100  -7.626 -21.969  0.00  0.00    +0.159 HD
ATOM      8  H   UNL     1     -24.040  -8.160 -22.050  0.00  0.00    +0.159 HD
ATOM      9  H   UNL     1     -25.016  -8.945 -20.870  0.00  0.00    +0.159 HD
ENDROOT
BRANCH   1  10
ATOM     10  C   UNL     1     -24.758  -6.537 -23.906  0.00  0.00    +0.151 C 
BRANCH  10  11
ATOM     11  C   UNL     1     -25.029  -5.341 -24.777  0.00  0.00    -0.028 A 
ATOM     12  C   UNL     1     -24.872  -5.424 -26.169  0.00  0.00    +0.005 A 
ATOM     13  C   UNL     1     -25.450  -4.125 -24.218  0.00  0.00    +0.005 A 
ATOM     14  C   UNL     1     -25.153  -4.323 -26.981  0.00  0.00    +0.000 A 
ATOM     15  C   UNL     1     -25.729  -3.028 -25.033  0.00  0.00    +0.000 A 
ATOM     16  C   UNL     1     -25.583  -3.127 -26.414  0.00  0.00    +0.000 A 
ENDBRANCH  10  11
ENDBRANCH   1  10
TORSDOF 2
ENDMDL
MODEL 4
REMARK VINA RESULT:    -5.029     44.400     45.375
REMARK INTER + INTRA:          -5.794
REMARK INTER:                  -5.679
REMARK INTRA:                  -0.116
REMARK UNBOUND:                -0.178
REMARK  Name = 1550473
REMARK  2 active torsions:
REMARK  status: ('A' for Active; 'I' for Inactive)
REMARK    1  A    between atoms: N_1  and  C_4
REMARK    2  A    between atoms: C_4  and  C_5
REMARK                            x       y       z     vdW  Elec       q    Type
REMARK                         _______ _______ _______ _____ _____    ______ ____
ROOT
ATOM      1  N   UNL     1       5.424  -9.313   8.673  0.00  0.00    -0.354 N 
ATOM      2  N   UNL     1       5.818  -9.686  10.925  0.00  0.00    -0.372 N 
ATOM      3  N   UNL     1       3.796 -10.307  10.035  0.00  0.00    -0.372 N 
ATOM      4  C   UNL     1       5.007  -9.767   9.863  0.00  0.00    +0.166 C 
ATOM      5  H   UNL     1       6.341  -8.887   8.615  0.00  0.00    +0.163 HD
ATOM      6  H   UNL     1       5.533 -10.023  11.834  0.00  0.00    +0.159 HD
ATOM      7  H   UNL     1       6.753  -9.302  10.853  0.00  0.00    +0.159 HD
ATOM      8  H   UNL     1       3.135 -10.392   9.275  0.00  0.00    +0.159 HD
ATOM      9  H   UNL     1       3.488 -10.639  10.941  0.00  0.00    +0.159 HD
ENDROOT
BRANCH   1  10
ATOM     10  C   UNL     1       4.639  -9.404   7.443  0.00  0.00    +0.151 C 
BRANCH  10  11
ATOM     11  C   UNL     1       5.242  -8.495   6.408  0.00  0.00    -0.028 A 
ATOM     12  C   UNL     1       6.621  -8.241   6.400  0.00  0.00    +0.005 A 
ATOM     13  C   UNL     1       4.440  -7.890   5.427  0.00  0.00    +0.005 A 
ATOM     14  C   UNL     1       7.186  -7.422   5.420  0.00  0.00    +0.000 A 
ATOM     15  C   UNL     1       5.008  -7.072   4.451  0.00  0.00    +0.000 A 
ATOM     16  C   UNL     1       6.381  -6.840   4.446  0.00  0.00    +0.000 A 
ENDBRANCH  10  11
ENDBRANCH   1  10
TORSDOF 2
ENDMDL
MODEL 5
REMARK VINA RESULT:    -4.981     44.607     45.584
REMARK INTER + INTRA:          -5.741
REMARK INTER:                  -5.719
REMARK INTRA:                  -0.022
REMARK UNBOUND:                -0.178
REMARK  Name = 1550473
REMARK  2 active torsions:
REMARK  status: ('A' for Active; 'I' for Inactive)
REMARK    1  A    between atoms: N_1  and  C_4
REMARK    2  A    between atoms: C_4  and  C_5
REMARK                            x       y       z     vdW  Elec       q    Type
REMARK                         _______ _______ _______ _____ _____    ______ ____
ROOT
ATOM      1  N   UNL     1       6.504  -9.145   8.556  0.00  0.00    -0.354 N 
ATOM      2  N   UNL     1       5.066  -9.432  10.349  0.00  0.00    -0.372 N 
ATOM      3  N   UNL     1       6.197  -7.446  10.141  0.00  0.00    -0.372 N 
ATOM      4  C   UNL     1       5.933  -8.670   9.671  0.00  0.00    +0.166 C 
ATOM      5  H   UNL     1       6.284 -10.092   8.269  0.00  0.00    +0.163 HD
ATOM      6  H   UNL     1       4.617  -9.099  11.192  0.00  0.00    +0.159 HD
ATOM      7  H   UNL     1       4.814 -10.361  10.035  0.00  0.00    +0.159 HD
ATOM      8  H   UNL     1       6.846  -6.824   9.679  0.00  0.00    +0.159 HD
ATOM      9  H   UNL     1       5.766  -7.100  10.989  0.00  0.00    +0.159 HD
ENDROOT
BRANCH   1  10
ATOM     10  C   UNL     1       7.419  -8.377   7.715  0.00  0.00    +0.151 C 
BRANCH  10  11
ATOM     11  C   UNL     1       6.677  -7.885   6.503  0.00  0.00    -0.028 A 
ATOM     12  C   UNL     1       5.279  -7.970   6.441  0.00  0.00    +0.005 A 
ATOM     13  C   UNL     1       7.367  -7.327   5.415  0.00  0.00    +0.005 A 
ATOM     14  C   UNL     1       4.587  -7.486   5.328  0.00  0.00    +0.000 A 
ATOM     15  C   UNL     1       6.673  -6.846   4.305  0.00  0.00    +0.000 A 
ATOM     16  C   UNL     1       5.283  -6.923   4.263  0.00  0.00    +0.000 A 
ENDBRANCH  10  11
ENDBRANCH   1  10
TORSDOF 2
ENDMDL
MODEL 6
REMARK VINA RESULT:    -4.901     47.092     48.117
REMARK INTER + INTRA:          -5.652
REMARK INTER:                  -5.524
REMARK INTRA:                  -0.128
REMARK UNBOUND:                -0.178
REMARK  Name = 1550473
REMARK  2 active torsions:
REMARK  status: ('A' for Active; 'I' for Inactive)
REMARK    1  A    between atoms: N_1  and  C_4
REMARK    2  A    between atoms: C_4  and  C_5
REMARK                            x       y       z     vdW  Elec       q    Type
REMARK                         _______ _______ _______ _____ _____    ______ ____
ROOT
ATOM      1  N   UNL     1       5.877  22.121   1.566  0.00  0.00    -0.354 N 
ATOM      2  N   UNL     1       4.283  23.641   2.283  0.00  0.00    -0.372 N 
ATOM      3  N   UNL     1       3.884  22.434   0.373  0.00  0.00    -0.372 N 
ATOM      4  C   UNL     1       4.691  22.721   1.400  0.00  0.00    +0.166 C 
ATOM      5  H   UNL     1       6.454  22.405   2.349  0.00  0.00    +0.163 HD
ATOM      6  H   UNL     1       3.392  24.108   2.186  0.00  0.00    +0.159 HD
ATOM      7  H   UNL     1       4.842  23.889   3.090  0.00  0.00    +0.159 HD
ATOM      8  H   UNL     1       4.136  21.754  -0.332  0.00  0.00    +0.159 HD
ATOM      9  H   UNL     1       2.993  22.900   0.252  0.00  0.00    +0.159 HD
ENDROOT
BRANCH   1  10
ATOM     10  C   UNL     1       6.389  21.067   0.692  0.00  0.00    +0.151 C 
BRANCH  10  11
ATOM     11  C   UNL     1       7.341  20.202   1.471  0.00  0.00    -0.028 A 
ATOM     12  C   UNL     1       8.340  19.470   0.812  0.00  0.00    +0.005 A 
ATOM     13  C   UNL     1       7.253  20.115   2.869  0.00  0.00    +0.005 A 
ATOM     14  C   UNL     1       9.243  18.690   1.538  0.00  0.00    +0.000 A 
ATOM     15  C   UNL     1       8.157  19.334   3.590  0.00  0.00    +0.000 A 
ATOM     16  C   UNL     1       9.153  18.624   2.924  0.00  0.00    +0.000 A 
ENDBRANCH  10  11
ENDBRANCH   1  10
TORSDOF 2
ENDMDL
MODEL 7
REMARK VINA RESULT:    -4.815     10.425     11.900
REMARK INTER + INTRA:          -5.556
REMARK INTER:                  -5.407
REMARK INTRA:                  -0.149
REMARK UNBOUND:                -0.178
REMARK  Name = 1550473
REMARK  2 active torsions:
REMARK  status: ('A' for Active; 'I' for Inactive)
REMARK    1  A    between atoms: N_1  and  C_4
REMARK    2  A    between atoms: C_4  and  C_5
REMARK                            x       y       z     vdW  Elec       q    Type
REMARK                         _______ _______ _______ _____ _____    ______ ____
ROOT
ATOM      1  N   UNL     1     -26.691  -8.072 -21.740  0.00  0.00    -0.354 N 
ATOM      2  N   UNL     1     -27.010  -8.101 -19.446  0.00  0.00    -0.372 N 
ATOM      3  N   UNL     1     -24.874  -8.247 -20.271  0.00  0.00    -0.372 N 
ATOM      4  C   UNL     1     -26.187  -8.140 -20.501  0.00  0.00    +0.166 C 
ATOM      5  H   UNL     1     -27.698  -8.022 -21.847  0.00  0.00    +0.163 HD
ATOM      6  H   UNL     1     -26.658  -8.147 -18.499  0.00  0.00    +0.159 HD
ATOM      7  H   UNL     1     -28.012  -8.005 -19.555  0.00  0.00    +0.159 HD
ATOM      8  H   UNL     1     -24.200  -8.288 -21.024  0.00  0.00    +0.159 HD
ATOM      9  H   UNL     1     -24.503  -8.307 -19.330  0.00  0.00    +0.159 HD
ENDROOT
BRANCH   1  10
ATOM     10  C   UNL     1     -25.878  -8.053 -22.954  0.00  0.00    +0.151 C 
BRANCH  10  11
ATOM     11  C   UNL     1     -26.026  -6.715 -23.624  0.00  0.00    -0.028 A 
ATOM     12  C   UNL     1     -24.894  -5.967 -23.979  0.00  0.00    +0.005 A 
ATOM     13  C   UNL     1     -27.296  -6.191 -23.911  0.00  0.00    +0.005 A 
ATOM     14  C   UNL     1     -25.031  -4.738 -24.628  0.00  0.00    +0.000 A 
ATOM     15  C   UNL     1     -27.428  -4.963 -24.558  0.00  0.00    +0.000 A 
ATOM     16  C   UNL     1     -26.295  -4.238 -24.919  0.00  0.00    +0.000 A 
ENDBRANCH  10  11
ENDBRANCH   1  10
TORSDOF 2
ENDMDL
MODEL 8
REMARK VINA RESULT:    -4.683      1.860      3.141
REMARK INTER + INTRA:          -5.408
REMARK INTER:                  -5.279
REMARK INTRA:                  -0.129
REMARK UNBOUND:                -0.178
REMARK  Name = 1550473
REMARK  2 active torsions:
REMARK  status: ('A' for Active; 'I' for Inactive)
REMARK    1  A    between atoms: N_1  and  C_4
REMARK    2  A    between atoms: C_4  and  C_5
REMARK                            x       y       z     vdW  Elec       q    Type
REMARK                         _______ _______ _______ _____ _____    ______ ____
ROOT
ATOM      1  N   UNL     1     -15.976  -0.634 -30.673  0.00  0.00    -0.354 N 
ATOM      2  N   UNL     1     -14.021   0.424 -30.024  0.00  0.00    -0.372 N 
ATOM      3  N   UNL     1     -14.161  -0.445 -32.143  0.00  0.00    -0.372 N 
ATOM      4  C   UNL     1     -14.731  -0.226 -30.954  0.00  0.00    +0.166 C 
ATOM      5  H   UNL     1     -16.340  -0.464 -29.742  0.00  0.00    +0.163 HD
ATOM      6  H   UNL     1     -13.080   0.747 -30.208  0.00  0.00    +0.159 HD
ATOM      7  H   UNL     1     -14.404   0.633 -29.110  0.00  0.00    +0.159 HD
ATOM      8  H   UNL     1     -14.642  -0.935 -32.886  0.00  0.00    +0.159 HD
ATOM      9  H   UNL     1     -13.217  -0.140 -32.342  0.00  0.00    +0.159 HD
ENDROOT
BRANCH   1  10
ATOM     10  C   UNL     1     -16.853  -1.303 -31.632  0.00  0.00    +0.151 C 
BRANCH  10  11
ATOM     11  C   UNL     1     -17.848  -2.146 -30.884  0.00  0.00    -0.028 A 
ATOM     12  C   UNL     1     -17.856  -2.162 -29.481  0.00  0.00    +0.005 A 
ATOM     13  C   UNL     1     -18.790  -2.928 -31.571  0.00  0.00    +0.005 A 
ATOM     14  C   UNL     1     -18.799  -2.922 -28.785  0.00  0.00    +0.000 A 
ATOM     15  C   UNL     1     -19.729  -3.686 -30.873  0.00  0.00    +0.000 A 
ATOM     16  C   UNL     1     -19.735  -3.681 -29.480  0.00  0.00    +0.000 A 
ENDBRANCH  10  11
ENDBRANCH   1  10
TORSDOF 2
ENDMDL
MODEL 9
REMARK VINA RESULT:    -4.593     22.967     23.885
REMARK INTER + INTRA:          -5.308
REMARK INTER:                  -5.189
REMARK INTRA:                  -0.119
REMARK UNBOUND:                -0.178
REMARK  Name = 1550473
REMARK  2 active torsions:
REMARK  status: ('A' for Active; 'I' for Inactive)
REMARK    1  A    between atoms: N_1  and  C_4
REMARK    2  A    between atoms: C_4  and  C_5
REMARK                            x       y       z     vdW  Elec       q    Type
REMARK                         _______ _______ _______ _____ _____    ______ ____
ROOT
ATOM      1  N   UNL     1     -11.922  -1.741  -7.350  0.00  0.00    -0.354 N 
ATOM      2  N   UNL     1     -12.618   0.114  -6.152  0.00  0.00    -0.372 N 
ATOM      3  N   UNL     1     -11.430   0.428  -8.089  0.00  0.00    -0.372 N 
ATOM      4  C   UNL     1     -11.984  -0.410  -7.207  0.00  0.00    +0.166 C 
ATOM      5  H   UNL     1     -12.336  -2.322  -6.631  0.00  0.00    +0.163 HD
ATOM      6  H   UNL     1     -12.684   1.115  -6.019  0.00  0.00    +0.159 HD
ATOM      7  H   UNL     1     -13.071  -0.468  -5.458  0.00  0.00    +0.159 HD
ATOM      8  H   UNL     1     -10.932   0.095  -8.904  0.00  0.00    +0.159 HD
ATOM      9  H   UNL     1     -11.475   1.432  -7.967  0.00  0.00    +0.159 HD
ENDROOT
BRANCH   1  10
ATOM     10  C   UNL     1     -11.302  -2.412  -8.491  0.00  0.00    +0.151 C 
BRANCH  10  11
ATOM     11  C   UNL     1     -11.496  -3.897  -8.352  0.00  0.00    -0.028 A 
ATOM     12  C   UNL     1     -11.413  -4.734  -9.475  0.00  0.00    +0.005 A 
ATOM     13  C   UNL     1     -11.758  -4.474  -7.100  0.00  0.00    +0.005 A 
ATOM     14  C   UNL     1     -11.564  -6.117  -9.342  0.00  0.00    +0.000 A 
ATOM     15  C   UNL     1     -11.909  -5.855  -6.971  0.00  0.00    +0.000 A 
ATOM     16  C   UNL     1     -11.809  -6.676  -8.092  0.00  0.00    +0.000 A 
ENDBRANCH  10  11
ENDBRANCH   1  10
TORSDOF 2
ENDMDL
