MODEL 1
REMARK VINA RESULT:    -4.424      0.000      0.000
REMARK INTER + INTRA:          -5.078
REMARK INTER:                  -4.941
REMARK INTRA:                  -0.138
REMARK UNBOUND:                -0.138
REMARK  Name = 1550473
REMARK  2 active torsions:
REMARK  status: ('A' for Active; 'I' for Inactive)
REMARK    1  A    between atoms: N_1  and  C_4
REMARK    2  A    between atoms: C_4  and  C_5
REMARK                            x       y       z     vdW  Elec       q    Type
REMARK                         _______ _______ _______ _____ _____    ______ ____
ROOT
ATOM      1  N   UNL     1      12.074   4.100   5.443  0.00  0.00    -0.354 N 
ATOM      2  N   UNL     1       9.938   3.205   5.414  0.00  0.00    -0.372 N 
ATOM      3  N   UNL     1      10.766   4.034   7.387  0.00  0.00    -0.372 N 
ATOM      4  C   UNL     1      10.940   3.786   6.085  0.00  0.00    +0.166 C 
ATOM      5  H   UNL     1      12.155   3.859   4.462  0.00  0.00    +0.163 HD
ATOM      6  H   UNL     1       9.069   2.960   5.871  0.00  0.00    +0.159 HD
ATOM      7  H   UNL     1      10.004   3.007   4.423  0.00  0.00    +0.159 HD
ATOM      8  H   UNL     1      11.487   4.464   7.951  0.00  0.00    +0.159 HD
ATOM      9  H   UNL     1       9.909   3.785   7.864  0.00  0.00    +0.159 HD
ENDROOT
BRANCH   1  10
ATOM     10  C   UNL     1      13.205   4.783   6.069  0.00  0.00    +0.151 C 
BRANCH  10  11
ATOM     11  C   UNL     1      13.217   6.220   5.625  0.00  0.00    -0.028 A 
ATOM     12  C   UNL     1      12.282   7.131   6.138  0.00  0.00    +0.005 A 
ATOM     13  C   UNL     1      14.165   6.678   4.697  0.00  0.00    +0.005 A 
ATOM     14  C   UNL     1      12.312   8.473   5.749  0.00  0.00    +0.000 A 
ATOM     15  C   UNL     1      14.191   8.018   4.310  0.00  0.00    +0.000 A 
ATOM     16  C   UNL     1      13.266   8.915   4.838  0.00  0.00    +0.000 A 
ENDBRANCH  10  11
ENDBRANCH   1  10
TORSDOF 2
ENDMDL
MODEL 2
REMARK VINA RESULT:    -4.239     21.720     22.539
REMARK INTER + INTRA:          -4.872
REMARK INTER:                  -4.764
REMARK INTRA:                  -0.108
REMARK UNBOUND:                -0.138
REMARK  Name = 1550473
REMARK  2 active torsions:
REMARK  status: ('A' for Active; 'I' for Inactive)
REMARK    1  A    between atoms: N_1  and  C_4
REMARK    2  A    between atoms: C_4  and  C_5
REMARK                            x       y       z     vdW  Elec       q    Type
REMARK                         _______ _______ _______ _____ _____    ______ ____
ROOT
ATOM      1  N   UNL     1       7.225   2.480 -14.793  0.00  0.00    -0.354 N 
ATOM      2  N   UNL     1       6.905   4.457 -13.629  0.00  0.00    -0.372 N 
ATOM      3  N   UNL     1       9.046   3.786 -14.108  0.00  0.00    -0.372 N 
ATOM      4  C   UNL     1       7.730   3.561 -14.184  0.00  0.00    +0.166 C 
ATOM      5  H   UNL     1       6.219   2.352 -14.790  0.00  0.00    +0.163 HD
ATOM      6  H   UNL     1       7.257   5.284 -13.166  0.00  0.00    +0.159 HD
ATOM      7  H   UNL     1       5.899   4.350 -13.668  0.00  0.00    +0.159 HD
ATOM      8  H   UNL     1       9.723   3.146 -14.502  0.00  0.00    +0.159 HD
ATOM      9  H   UNL     1       9.418   4.602 -13.638  0.00  0.00    +0.159 HD
ENDROOT
BRANCH   1  10
ATOM     10  C   UNL     1       8.035   1.473 -15.475  0.00  0.00    +0.151 C 
BRANCH  10  11
ATOM     11  C   UNL     1       7.220   0.221 -15.646  0.00  0.00    -0.028 A 
ATOM     12  C   UNL     1       6.702  -0.450 -14.528  0.00  0.00    +0.005 A 
ATOM     13  C   UNL     1       6.957  -0.297 -16.924  0.00  0.00    +0.005 A 
ATOM     14  C   UNL     1       5.919  -1.596 -14.688  0.00  0.00    +0.000 A 
ATOM     15  C   UNL     1       6.176  -1.443 -17.079  0.00  0.00    +0.000 A 
ATOM     16  C   UNL     1       5.655  -2.090 -15.961  0.00  0.00    +0.000 A 
ENDBRANCH  10  11
ENDBRANCH   1  10
TORSDOF 2
ENDMDL
MODEL 3
REMARK VINA RESULT:    -4.150     16.798     19.605
REMARK INTER + INTRA:          -4.773
REMARK INTER:                  -4.659
REMARK INTRA:                  -0.114
REMARK UNBOUND:                -0.138
REMARK  Name = 1550473
REMARK  2 active torsions:
REMARK  status: ('A' for Active; 'I' for Inactive)
REMARK    1  A    between atoms: N_1  and  C_4
REMARK    2  A    between atoms: C_4  and  C_5
REMARK                            x       y       z     vdW  Elec       q    Type
REMARK                         _______ _______ _______ _____ _____    ______ ____
ROOT
ATOM      1  N   UNL     1       5.916 -10.557   6.804  0.00  0.00    -0.354 N 
ATOM      2  N   UNL     1       7.477  -8.858   6.605  0.00  0.00    -0.372 N 
ATOM      3  N   UNL     1       7.940 -10.634   7.982  0.00  0.00    -0.372 N 
ATOM      4  C   UNL     1       7.102 -10.029   7.134  0.00  0.00    +0.166 C 
ATOM      5  H   UNL     1       5.314 -10.035   6.178  0.00  0.00    +0.163 HD
ATOM      6  H   UNL     1       8.368  -8.436   6.833  0.00  0.00    +0.159 HD
ATOM      7  H   UNL     1       6.893  -8.360   5.944  0.00  0.00    +0.159 HD
ATOM      8  H   UNL     1       7.714 -11.517   8.420  0.00  0.00    +0.159 HD
ATOM      9  H   UNL     1       8.831 -10.222   8.232  0.00  0.00    +0.159 HD
ENDROOT
BRANCH   1  10
ATOM     10  C   UNL     1       5.437 -11.853   7.282  0.00  0.00    +0.151 C 
BRANCH  10  11
ATOM     11  C   UNL     1       3.982 -11.999   6.929  0.00  0.00    -0.028 A 
ATOM     12  C   UNL     1       3.476 -11.438   5.747  0.00  0.00    +0.005 A 
ATOM     13  C   UNL     1       3.106 -12.702   7.770  0.00  0.00    +0.005 A 
ATOM     14  C   UNL     1       2.132 -11.599   5.404  0.00  0.00    +0.000 A 
ATOM     15  C   UNL     1       1.764 -12.860   7.424  0.00  0.00    +0.000 A 
ATOM     16  C   UNL     1       1.278 -12.311   6.240  0.00  0.00    +0.000 A 
ENDBRANCH  10  11
ENDBRANCH   1  10
TORSDOF 2
ENDMDL
MODEL 4
REMARK VINA RESULT:    -4.104     14.637     15.730
REMARK INTER + INTRA:          -4.721
REMARK INTER:                  -4.630
REMARK INTRA:                  -0.091
REMARK UNBOUND:                -0.138
REMARK  Name = 1550473
REMARK  2 active torsions:
REMARK  status: ('A' for Active; 'I' for Inactive)
REMARK    1  A    between atoms: N_1  and  C_4
REMARK    2  A    between atoms: C_4  and  C_5
REMARK                            x       y       z     vdW  Elec       q    Type
REMARK                         _______ _______ _______ _____ _____    ______ ____
ROOT
ATOM      1  N   UNL     1       0.496  10.258  12.084  0.00  0.00    -0.354 N 
ATOM      2  N   UNL     1       0.609   9.137  10.061  0.00  0.00    -0.372 N 
ATOM      3  N   UNL     1       0.648  11.431  10.062  0.00  0.00    -0.372 N 
ATOM      4  C   UNL     1       0.583  10.286  10.748  0.00  0.00    +0.166 C 
ATOM      5  H   UNL     1       0.419   9.358  12.543  0.00  0.00    +0.163 HD
ATOM      6  H   UNL     1       0.679   9.126   9.052  0.00  0.00    +0.159 HD
ATOM      7  H   UNL     1       0.579   8.238  10.525  0.00  0.00    +0.159 HD
ATOM      8  H   UNL     1       0.627  12.332  10.520  0.00  0.00    +0.159 HD
ATOM      9  H   UNL     1       0.706  11.442   9.051  0.00  0.00    +0.159 HD
ENDROOT
BRANCH   1  10
ATOM     10  C   UNL     1       0.514  11.450  12.930  0.00  0.00    +0.151 C 
BRANCH  10  11
ATOM     11  C   UNL     1       0.295  11.042  14.360  0.00  0.00    -0.028 A 
ATOM     12  C   UNL     1      -0.978  11.141  14.942  0.00  0.00    +0.005 A 
ATOM     13  C   UNL     1       1.354  10.549  15.138  0.00  0.00    +0.005 A 
ATOM     14  C   UNL     1      -1.189  10.734  16.261  0.00  0.00    +0.000 A 
ATOM     15  C   UNL     1       1.139  10.144  16.455  0.00  0.00    +0.000 A 
ATOM     16  C   UNL     1      -0.133  10.234  17.016  0.00  0.00    +0.000 A 
ENDBRANCH  10  11
ENDBRANCH   1  10
TORSDOF 2
ENDMDL
MODEL 5
REMARK VINA RESULT:    -4.009     12.264     13.122
REMARK INTER + INTRA:          -4.616
REMARK INTER:                  -4.442
REMARK INTRA:                  -0.174
REMARK UNBOUND:                -0.138
REMARK  Name = 1550473
REMARK  2 active torsions:
REMARK  status: ('A' for Active; 'I' for Inactive)
REMARK    1  A    between atoms: N_1  and  C_4
REMARK    2  A    between atoms: C_4  and  C_5
REMARK                            x       y       z     vdW  Elec       q    Type
REMARK                         _______ _______ _______ _____ _____    ______ ____
ROOT
ATOM      1  N   UNL     1      15.920  -1.197  -3.423  0.00  0.00    -0.354 N 
ATOM      2  N   UNL     1      15.013  -2.807  -2.027  0.00  0.00    -0.372 N 
ATOM      3  N   UNL     1      13.907  -0.814  -2.285  0.00  0.00    -0.372 N 
ATOM      4  C   UNL     1      14.951  -1.593  -2.587  0.00  0.00    +0.166 C 
ATOM      5  H   UNL     1      16.700  -1.823  -3.587  0.00  0.00    +0.163 HD
ATOM      6  H   UNL     1      14.295  -3.135  -1.396  0.00  0.00    +0.159 HD
ATOM      7  H   UNL     1      15.770  -3.449  -2.229  0.00  0.00    +0.159 HD
ATOM      8  H   UNL     1      13.805   0.116  -2.670  0.00  0.00    +0.159 HD
ATOM      9  H   UNL     1      13.184  -1.119  -1.646  0.00  0.00    +0.159 HD
ENDROOT
BRANCH   1  10
ATOM     10  C   UNL     1      15.920   0.084  -4.127  0.00  0.00    +0.151 C 
BRANCH  10  11
ATOM     11  C   UNL     1      15.297  -0.101  -5.483  0.00  0.00    -0.028 A 
ATOM     12  C   UNL     1      15.766  -1.097  -6.352  0.00  0.00    +0.005 A 
ATOM     13  C   UNL     1      14.234   0.713  -5.903  0.00  0.00    +0.005 A 
ATOM     14  C   UNL     1      15.169  -1.288  -7.600  0.00  0.00    +0.000 A 
ATOM     15  C   UNL     1      13.640   0.519  -7.150  0.00  0.00    +0.000 A 
ATOM     16  C   UNL     1      14.106  -0.484  -7.997  0.00  0.00    +0.000 A 
ENDBRANCH  10  11
ENDBRANCH   1  10
TORSDOF 2
ENDMDL
MODEL 6
REMARK VINA RESULT:    -3.952     22.237     23.771
REMARK INTER + INTRA:          -4.552
REMARK INTER:                  -4.412
REMARK INTRA:                  -0.140
REMARK UNBOUND:                -0.138
REMARK  Name = 1550473
REMARK  2 active torsions:
REMARK  status: ('A' for Active; 'I' for Inactive)
REMARK    1  A    between atoms: N_1  and  C_4
REMARK    2  A    between atoms: C_4  and  C_5
REMARK                            x       y       z     vdW  Elec       q    Type
REMARK                         _______ _______ _______ _____ _____    ______ ____
ROOT
ATOM      1  N   UNL     1     -10.035   5.065  -5.660  0.00  0.00    -0.354 N 
ATOM      2  N   UNL     1     -10.439   5.973  -7.753  0.00  0.00    -0.372 N 
ATOM      3  N   UNL     1      -9.441   3.912  -7.612  0.00  0.00    -0.372 N 
ATOM      4  C   UNL     1      -9.968   4.975  -6.995  0.00  0.00    +0.166 C 
ATOM      5  H   UNL     1     -10.418   5.911  -5.254  0.00  0.00    +0.163 HD
ATOM      6  H   UNL     1     -10.405   5.932  -8.762  0.00  0.00    +0.159 HD
ATOM      7  H   UNL     1     -10.863   6.797  -7.344  0.00  0.00    +0.159 HD
ATOM      8  H   UNL     1      -9.063   3.128  -7.098  0.00  0.00    +0.159 HD
ATOM      9  H   UNL     1      -9.387   3.857  -8.621  0.00  0.00    +0.159 HD
ENDROOT
BRANCH   1  10
ATOM     10  C   UNL     1      -9.599   4.011  -4.747  0.00  0.00    +0.151 C 
BRANCH  10  11
ATOM     11  C   UNL     1      -8.741   4.617  -3.671  0.00  0.00    -0.028 A 
ATOM     12  C   UNL     1      -8.121   5.860  -3.870  0.00  0.00    +0.005 A 
ATOM     13  C   UNL     1      -8.547   3.957  -2.448  0.00  0.00    +0.005 A 
ATOM     14  C   UNL     1      -7.349   6.437  -2.860  0.00  0.00    +0.000 A 
ATOM     15  C   UNL     1      -7.774   4.536  -1.442  0.00  0.00    +0.000 A 
ATOM     16  C   UNL     1      -7.177   5.778  -1.647  0.00  0.00    +0.000 A 
ENDBRANCH  10  11
ENDBRANCH   1  10
TORSDOF 2
ENDMDL
MODEL 7
REMARK VINA RESULT:    -3.921     26.519     27.327
REMARK INTER + INTRA:          -4.517
REMARK INTER:                  -4.417
REMARK INTRA:                  -0.100
REMARK UNBOUND:                -0.138
REMARK  Name = 1550473
REMARK  2 active torsions:
REMARK  status: ('A' for Active; 'I' for Inactive)
REMARK    1  A    between atoms: N_1  and  C_4
REMARK    2  A    between atoms: C_4  and  C_5
REMARK                            x       y       z     vdW  Elec       q    Type
REMARK                         _______ _______ _______ _____ _____    ______ ____
ROOT
ATOM      1  N   UNL     1      -9.153 -10.323   2.247  0.00  0.00    -0.354 N 
ATOM      2  N   UNL     1      -7.336 -11.692   2.678  0.00  0.00    -0.372 N 
ATOM      3  N   UNL     1      -9.241 -12.621   1.800  0.00  0.00    -0.372 N 
ATOM      4  C   UNL     1      -8.591 -11.538   2.238  0.00  0.00    +0.166 C 
ATOM      5  H   UNL     1      -8.618  -9.547   2.619  0.00  0.00    +0.163 HD
ATOM      6  H   UNL     1      -6.884 -12.597   2.680  0.00  0.00    +0.159 HD
ATOM      7  H   UNL     1      -6.787 -10.907   3.007  0.00  0.00    +0.159 HD
ATOM      8  H   UNL     1     -10.193 -12.574   1.460  0.00  0.00    +0.159 HD
ATOM      9  H   UNL     1      -8.810 -13.537   1.805  0.00  0.00    +0.159 HD
ENDROOT
BRANCH   1  10
ATOM     10  C   UNL     1     -10.495 -10.039   1.739  0.00  0.00    +0.151 C 
BRANCH  10  11
ATOM     11  C   UNL     1     -10.715  -8.551   1.740  0.00  0.00    -0.028 A 
ATOM     12  C   UNL     1     -10.602  -7.815   2.929  0.00  0.00    +0.005 A 
ATOM     13  C   UNL     1     -11.032  -7.871   0.554  0.00  0.00    +0.005 A 
ATOM     14  C   UNL     1     -10.778  -6.429   2.924  0.00  0.00    +0.000 A 
ATOM     15  C   UNL     1     -11.207  -6.487   0.554  0.00  0.00    +0.000 A 
ATOM     16  C   UNL     1     -11.077  -5.766   1.739  0.00  0.00    +0.000 A 
ENDBRANCH  10  11
ENDBRANCH   1  10
TORSDOF 2
ENDMDL
MODEL 8
REMARK VINA RESULT:    -3.821     23.611     24.679
REMARK INTER + INTRA:          -4.405
REMARK INTER:                  -4.275
REMARK INTRA:                  -0.130
REMARK UNBOUND:                -0.138
REMARK  Name = 1550473
REMARK  2 active torsions:
REMARK  status: ('A' for Active; 'I' for Inactive)
REMARK    1  A    between atoms: N_1  and  C_4
REMARK    2  A    between atoms: C_4  and  C_5
REMARK                            x       y       z     vdW  Elec       q    Type
REMARK                         _______ _______ _______ _____ _____    ______ ____
ROOT
ATOM      1  N   UNL     1       4.596  -6.098 -15.944  0.00  0.00    -0.354 N 
ATOM      2  N   UNL     1       3.621  -8.122 -15.382  0.00  0.00    -0.372 N 
ATOM      3  N   UNL     1       2.353  -6.541 -16.458  0.00  0.00    -0.372 N 
ATOM      4  C   UNL     1       3.527  -6.906 -15.933  0.00  0.00    +0.166 C 
ATOM      5  H   UNL     1       5.449  -6.422 -15.502  0.00  0.00    +0.163 HD
ATOM      6  H   UNL     1       2.832  -8.755 -15.362  0.00  0.00    +0.159 HD
ATOM      7  H   UNL     1       4.487  -8.461 -14.982  0.00  0.00    +0.159 HD
ATOM      8  H   UNL     1       2.216  -5.634 -16.884  0.00  0.00    +0.159 HD
ATOM      9  H   UNL     1       1.549  -7.156 -16.438  0.00  0.00    +0.159 HD
ENDROOT
BRANCH   1  10
ATOM     10  C   UNL     1       4.615  -4.775 -16.566  0.00  0.00    +0.151 C 
BRANCH  10  11
ATOM     11  C   UNL     1       5.363  -3.823 -15.674  0.00  0.00    -0.028 A 
ATOM     12  C   UNL     1       5.109  -2.445 -15.731  0.00  0.00    +0.005 A 
ATOM     13  C   UNL     1       6.324  -4.294 -14.766  0.00  0.00    +0.005 A 
ATOM     14  C   UNL     1       5.781  -1.564 -14.882  0.00  0.00    +0.000 A 
ATOM     15  C   UNL     1       6.994  -3.410 -13.920  0.00  0.00    +0.000 A 
ATOM     16  C   UNL     1       6.721  -2.046 -13.977  0.00  0.00    +0.000 A 
ENDBRANCH  10  11
ENDBRANCH   1  10
TORSDOF 2
ENDMDL
MODEL 9
REMARK VINA RESULT:    -3.820      9.037     10.114
REMARK INTER + INTRA:          -4.404
REMARK INTER:                  -4.273
REMARK INTRA:                  -0.131
REMARK UNBOUND:                -0.138
REMARK  Name = 1550473
REMARK  2 active torsions:
REMARK  status: ('A' for Active; 'I' for Inactive)
REMARK    1  A    between atoms: N_1  and  C_4
REMARK    2  A    between atoms: C_4  and  C_5
REMARK                            x       y       z     vdW  Elec       q    Type
REMARK                         _______ _______ _______ _____ _____    ______ ____
ROOT
ATOM      1  N   UNL     1       6.002  11.242   0.161  0.00  0.00    -0.354 N 
ATOM      2  N   UNL     1       5.125  12.081  -1.812  0.00  0.00    -0.372 N 
ATOM      3  N   UNL     1       4.103  10.281  -0.821  0.00  0.00    -0.372 N 
ATOM      4  C   UNL     1       5.080  11.194  -0.811  0.00  0.00    +0.166 C 
ATOM      5  H   UNL     1       6.735  11.939   0.095  0.00  0.00    +0.163 HD
ATOM      6  H   UNL     1       4.441  12.072  -2.557  0.00  0.00    +0.159 HD
ATOM      7  H   UNL     1       5.831  12.806  -1.851  0.00  0.00    +0.159 HD
ATOM      8  H   UNL     1       4.018   9.580  -0.097  0.00  0.00    +0.159 HD
ATOM      9  H   UNL     1       3.416  10.248  -1.564  0.00  0.00    +0.159 HD
ENDROOT
BRANCH   1  10
ATOM     10  C   UNL     1       6.011  10.356   1.323  0.00  0.00    +0.151 C 
BRANCH  10  11
ATOM     11  C   UNL     1       6.016  11.189   2.575  0.00  0.00    -0.028 A 
ATOM     12  C   UNL     1       5.660  12.545   2.530  0.00  0.00    +0.005 A 
ATOM     13  C   UNL     1       6.370  10.626   3.811  0.00  0.00    +0.005 A 
ATOM     14  C   UNL     1       5.636  13.311   3.698  0.00  0.00    +0.000 A 
ATOM     15  C   UNL     1       6.345  11.395   4.975  0.00  0.00    +0.000 A 
ATOM     16  C   UNL     1       5.975  12.737   4.918  0.00  0.00    +0.000 A 
ENDBRANCH  10  11
ENDBRANCH   1  10
TORSDOF 2
ENDMDL
