MODEL 1
REMARK VINA RESULT:    -5.539      0.000      0.000
REMARK INTER + INTRA:          -6.294
REMARK INTER:                  -6.186
REMARK INTRA:                  -0.107
REMARK UNBOUND:                -0.107
REMARK  Name = 1550473
REMARK  2 active torsions:
REMARK  status: ('A' for Active; 'I' for Inactive)
REMARK    1  A    between atoms: N_1  and  C_4
REMARK    2  A    between atoms: C_4  and  C_5
REMARK                            x       y       z     vdW  Elec       q    Type
REMARK                         _______ _______ _______ _____ _____    ______ ____
ROOT
ATOM      1  N   UNL     1      21.401  22.440  21.535  0.00  0.00    -0.354 N 
ATOM      2  N   UNL     1      23.504  23.360  21.848  0.00  0.00    -0.372 N 
ATOM      3  N   UNL     1      23.267  21.604  20.390  0.00  0.00    -0.372 N 
ATOM      4  C   UNL     1      22.711  22.460  21.254  0.00  0.00    +0.166 C 
ATOM      5  H   UNL     1      21.046  23.096  22.222  0.00  0.00    +0.163 HD
ATOM      6  H   UNL     1      24.495  23.401  21.654  0.00  0.00    +0.159 HD
ATOM      7  H   UNL     1      23.138  24.044  22.500  0.00  0.00    +0.159 HD
ATOM      8  H   UNL     1      22.725  20.897  19.912  0.00  0.00    +0.159 HD
ATOM      9  H   UNL     1      24.260  21.622  20.191  0.00  0.00    +0.159 HD
ENDROOT
BRANCH   1  10
ATOM     10  C   UNL     1      20.443  21.536  20.902  0.00  0.00    +0.151 C 
BRANCH  10  11
ATOM     11  C   UNL     1      19.323  21.254  21.866  0.00  0.00    -0.028 A 
ATOM     12  C   UNL     1      18.943  19.934  22.149  0.00  0.00    +0.005 A 
ATOM     13  C   UNL     1      18.642  22.303  22.503  0.00  0.00    +0.005 A 
ATOM     14  C   UNL     1      17.923  19.671  23.067  0.00  0.00    +0.000 A 
ATOM     15  C   UNL     1      17.624  22.036  23.418  0.00  0.00    +0.000 A 
ATOM     16  C   UNL     1      17.266  20.720  23.702  0.00  0.00    +0.000 A 
ENDBRANCH  10  11
ENDBRANCH   1  10
TORSDOF 2
ENDMDL
MODEL 2
REMARK VINA RESULT:    -5.474     18.155     19.299
REMARK INTER + INTRA:          -6.221
REMARK INTER:                  -6.091
REMARK INTRA:                  -0.130
REMARK UNBOUND:                -0.107
REMARK  Name = 1550473
REMARK  2 active torsions:
REMARK  status: ('A' for Active; 'I' for Inactive)
REMARK    1  A    between atoms: N_1  and  C_4
REMARK    2  A    between atoms: C_4  and  C_5
REMARK                            x       y       z     vdW  Elec       q    Type
REMARK                         _______ _______ _______ _____ _____    ______ ____
ROOT
ATOM      1  N   UNL     1      16.780   6.783  13.279  0.00  0.00    -0.354 N 
ATOM      2  N   UNL     1      16.637   9.094  13.211  0.00  0.00    -0.372 N 
ATOM      3  N   UNL     1      18.640   8.092  12.712  0.00  0.00    -0.372 N 
ATOM      4  C   UNL     1      17.356   7.974  13.067  0.00  0.00    +0.166 C 
ATOM      5  H   UNL     1      15.811   6.763  13.575  0.00  0.00    +0.163 HD
ATOM      6  H   UNL     1      17.043  10.007  13.055  0.00  0.00    +0.159 HD
ATOM      7  H   UNL     1      15.656   9.069  13.463  0.00  0.00    +0.159 HD
ATOM      8  H   UNL     1      19.238   7.285  12.592  0.00  0.00    +0.159 HD
ATOM      9  H   UNL     1      19.068   8.997  12.562  0.00  0.00    +0.159 HD
ENDROOT
BRANCH   1  10
ATOM     10  C   UNL     1      17.460   5.502  13.096  0.00  0.00    +0.151 C 
BRANCH  10  11
ATOM     11  C   UNL     1      16.444   4.453  12.739  0.00  0.00    -0.028 A 
ATOM     12  C   UNL     1      16.777   3.091  12.795  0.00  0.00    +0.005 A 
ATOM     13  C   UNL     1      15.144   4.813  12.351  0.00  0.00    +0.005 A 
ATOM     14  C   UNL     1      15.824   2.115  12.492  0.00  0.00    +0.000 A 
ATOM     15  C   UNL     1      14.197   3.836  12.049  0.00  0.00    +0.000 A 
ATOM     16  C   UNL     1      14.536   2.487  12.122  0.00  0.00    +0.000 A 
ENDBRANCH  10  11
ENDBRANCH   1  10
TORSDOF 2
ENDMDL
MODEL 3
REMARK VINA RESULT:    -5.429      3.075      4.031
REMARK INTER + INTRA:          -6.171
REMARK INTER:                  -6.061
REMARK INTRA:                  -0.110
REMARK UNBOUND:                -0.107
REMARK  Name = 1550473
REMARK  2 active torsions:
REMARK  status: ('A' for Active; 'I' for Inactive)
REMARK    1  A    between atoms: N_1  and  C_4
REMARK    2  A    between atoms: C_4  and  C_5
REMARK                            x       y       z     vdW  Elec       q    Type
REMARK                         _______ _______ _______ _____ _____    ______ ____
ROOT
ATOM      1  N   UNL     1      18.433  24.668  22.219  0.00  0.00    -0.354 N 
ATOM      2  N   UNL     1      19.519  26.646  21.695  0.00  0.00    -0.372 N 
ATOM      3  N   UNL     1      17.254  26.687  22.059  0.00  0.00    -0.372 N 
ATOM      4  C   UNL     1      18.392  25.988  21.995  0.00  0.00    +0.166 C 
ATOM      5  H   UNL     1      19.322  24.191  22.125  0.00  0.00    +0.163 HD
ATOM      6  H   UNL     1      19.519  27.642  21.524  0.00  0.00    +0.159 HD
ATOM      7  H   UNL     1      20.414  26.174  21.647  0.00  0.00    +0.159 HD
ATOM      8  H   UNL     1      16.368  26.249  22.275  0.00  0.00    +0.159 HD
ATOM      9  H   UNL     1      17.232  27.683  21.880  0.00  0.00    +0.159 HD
ENDROOT
BRANCH   1  10
ATOM     10  C   UNL     1      17.272  23.868  22.605  0.00  0.00    +0.151 C 
BRANCH  10  11
ATOM     11  C   UNL     1      17.664  22.417  22.636  0.00  0.00    -0.028 A 
ATOM     12  C   UNL     1      18.407  21.857  21.586  0.00  0.00    +0.005 A 
ATOM     13  C   UNL     1      17.300  21.597  23.715  0.00  0.00    +0.005 A 
ATOM     14  C   UNL     1      18.797  20.517  21.628  0.00  0.00    +0.000 A 
ATOM     15  C   UNL     1      17.691  20.258  23.753  0.00  0.00    +0.000 A 
ATOM     16  C   UNL     1      18.441  19.719  22.711  0.00  0.00    +0.000 A 
ENDBRANCH  10  11
ENDBRANCH   1  10
TORSDOF 2
ENDMDL
MODEL 4
REMARK VINA RESULT:    -5.241     77.057     77.951
REMARK INTER + INTRA:          -5.961
REMARK INTER:                  -5.805
REMARK INTRA:                  -0.156
REMARK UNBOUND:                -0.107
REMARK  Name = 1550473
REMARK  2 active torsions:
REMARK  status: ('A' for Active; 'I' for Inactive)
REMARK    1  A    between atoms: N_1  and  C_4
REMARK    2  A    between atoms: C_4  and  C_5
REMARK                            x       y       z     vdW  Elec       q    Type
REMARK                         _______ _______ _______ _____ _____    ______ ____
ROOT
ATOM      1  N   UNL     1     -15.202 -17.338 -37.121  0.00  0.00    -0.354 N 
ATOM      2  N   UNL     1     -16.039 -18.202 -39.100  0.00  0.00    -0.372 N 
ATOM      3  N   UNL     1     -16.715 -16.115 -38.427  0.00  0.00    -0.372 N 
ATOM      4  C   UNL     1     -15.981 -17.211 -38.203  0.00  0.00    +0.166 C 
ATOM      5  H   UNL     1     -14.694 -18.206 -36.993  0.00  0.00    +0.163 HD
ATOM      6  H   UNL     1     -16.616 -18.133 -39.928  0.00  0.00    +0.159 HD
ATOM      7  H   UNL     1     -15.495 -19.050 -38.993  0.00  0.00    +0.159 HD
ATOM      8  H   UNL     1     -16.721 -15.334 -37.786  0.00  0.00    +0.159 HD
ATOM      9  H   UNL     1     -17.308 -16.032 -39.244  0.00  0.00    +0.159 HD
ENDROOT
BRANCH   1  10
ATOM     10  C   UNL     1     -15.027 -16.295 -36.112  0.00  0.00    +0.151 C 
BRANCH  10  11
ATOM     11  C   UNL     1     -13.619 -15.771 -36.186  0.00  0.00    -0.028 A 
ATOM     12  C   UNL     1     -13.372 -14.448 -36.581  0.00  0.00    +0.005 A 
ATOM     13  C   UNL     1     -12.529 -16.590 -35.858  0.00  0.00    +0.005 A 
ATOM     14  C   UNL     1     -12.067 -13.951 -36.622  0.00  0.00    +0.000 A 
ATOM     15  C   UNL     1     -11.227 -16.091 -35.900  0.00  0.00    +0.000 A 
ATOM     16  C   UNL     1     -10.997 -14.771 -36.280  0.00  0.00    +0.000 A 
ENDBRANCH  10  11
ENDBRANCH   1  10
TORSDOF 2
ENDMDL
MODEL 5
REMARK VINA RESULT:    -5.154     32.308     33.259
REMARK INTER + INTRA:          -5.864
REMARK INTER:                  -5.744
REMARK INTRA:                  -0.120
REMARK UNBOUND:                -0.107
REMARK  Name = 1550473
REMARK  2 active torsions:
REMARK  status: ('A' for Active; 'I' for Inactive)
REMARK    1  A    between atoms: N_1  and  C_4
REMARK    2  A    between atoms: C_4  and  C_5
REMARK                            x       y       z     vdW  Elec       q    Type
REMARK                         _______ _______ _______ _____ _____    ______ ____
ROOT
ATOM      1  N   UNL     1      -0.141   4.429   0.024  0.00  0.00    -0.354 N 
ATOM      2  N   UNL     1      -0.897   2.514  -1.036  0.00  0.00    -0.372 N 
ATOM      3  N   UNL     1      -2.417   3.874   0.015  0.00  0.00    -0.372 N 
ATOM      4  C   UNL     1      -1.149   3.619  -0.324  0.00  0.00    +0.166 C 
ATOM      5  H   UNL     1       0.802   4.164  -0.239  0.00  0.00    +0.163 HD
ATOM      6  H   UNL     1      -1.639   1.885  -1.317  0.00  0.00    +0.159 HD
ATOM      7  H   UNL     1       0.040   2.275  -1.337  0.00  0.00    +0.159 HD
ATOM      8  H   UNL     1      -2.673   4.688   0.557  0.00  0.00    +0.159 HD
ATOM      9  H   UNL     1      -3.171   3.251  -0.246  0.00  0.00    +0.159 HD
ENDROOT
BRANCH   1  10
ATOM     10  C   UNL     1      -0.314   5.684   0.752  0.00  0.00    +0.151 C 
BRANCH  10  11
ATOM     11  C   UNL     1       0.418   5.597   2.063  0.00  0.00    -0.028 A 
ATOM     12  C   UNL     1       0.880   4.361   2.539  0.00  0.00    +0.005 A 
ATOM     13  C   UNL     1       0.657   6.747   2.831  0.00  0.00    +0.005 A 
ATOM     14  C   UNL     1       1.586   4.283   3.742  0.00  0.00    +0.000 A 
ATOM     15  C   UNL     1       1.362   6.665   4.032  0.00  0.00    +0.000 A 
ATOM     16  C   UNL     1       1.828   5.433   4.486  0.00  0.00    +0.000 A 
ENDBRANCH  10  11
ENDBRANCH   1  10
TORSDOF 2
ENDMDL
MODEL 6
REMARK VINA RESULT:    -5.063     54.219     55.320
REMARK INTER + INTRA:          -5.762
REMARK INTER:                  -5.666
REMARK INTRA:                  -0.096
REMARK UNBOUND:                -0.107
REMARK  Name = 1550473
REMARK  2 active torsions:
REMARK  status: ('A' for Active; 'I' for Inactive)
REMARK    1  A    between atoms: N_1  and  C_4
REMARK    2  A    between atoms: C_4  and  C_5
REMARK                            x       y       z     vdW  Elec       q    Type
REMARK                         _______ _______ _______ _____ _____    ______ ____
ROOT
ATOM      1  N   UNL     1     -12.145 -10.892  -6.677  0.00  0.00    -0.354 N 
ATOM      2  N   UNL     1     -10.030  -9.982  -6.429  0.00  0.00    -0.372 N 
ATOM      3  N   UNL     1     -10.814 -10.407  -8.544  0.00  0.00    -0.372 N 
ATOM      4  C   UNL     1     -11.011 -10.433  -7.221  0.00  0.00    +0.166 C 
ATOM      5  H   UNL     1     -12.221 -10.914  -5.667  0.00  0.00    +0.163 HD
ATOM      6  H   UNL     1      -9.164  -9.626  -6.811  0.00  0.00    +0.159 HD
ATOM      7  H   UNL     1     -10.126  -9.962  -5.421  0.00  0.00    +0.159 HD
ATOM      8  H   UNL     1     -11.512 -10.739  -9.196  0.00  0.00    +0.159 HD
ATOM      9  H   UNL     1      -9.949 -10.065  -8.944  0.00  0.00    +0.159 HD
ENDROOT
BRANCH   1  10
ATOM     10  C   UNL     1     -13.295 -11.356  -7.453  0.00  0.00    +0.151 C 
BRANCH  10  11
ATOM     11  C   UNL     1     -14.142 -12.249  -6.589  0.00  0.00    -0.028 A 
ATOM     12  C   UNL     1     -15.233 -11.727  -5.879  0.00  0.00    +0.005 A 
ATOM     13  C   UNL     1     -13.862 -13.620  -6.481  0.00  0.00    +0.005 A 
ATOM     14  C   UNL     1     -16.038 -12.562  -5.100  0.00  0.00    +0.000 A 
ATOM     15  C   UNL     1     -14.668 -14.450  -5.701  0.00  0.00    +0.000 A 
ATOM     16  C   UNL     1     -15.757 -13.921  -5.014  0.00  0.00    +0.000 A 
ENDBRANCH  10  11
ENDBRANCH   1  10
TORSDOF 2
ENDMDL
MODEL 7
REMARK VINA RESULT:    -4.976     34.784     35.854
REMARK INTER + INTRA:          -5.665
REMARK INTER:                  -5.535
REMARK INTRA:                  -0.130
REMARK UNBOUND:                -0.107
REMARK  Name = 1550473
REMARK  2 active torsions:
REMARK  status: ('A' for Active; 'I' for Inactive)
REMARK    1  A    between atoms: N_1  and  C_4
REMARK    2  A    between atoms: C_4  and  C_5
REMARK                            x       y       z     vdW  Elec       q    Type
REMARK                         _______ _______ _______ _____ _____    ______ ____
ROOT
ATOM      1  N   UNL     1      -1.350   2.212   1.759  0.00  0.00    -0.354 N 
ATOM      2  N   UNL     1      -2.614   3.406   0.230  0.00  0.00    -0.372 N 
ATOM      3  N   UNL     1      -0.358   3.804   0.355  0.00  0.00    -0.372 N 
ATOM      4  C   UNL     1      -1.430   3.134   0.791  0.00  0.00    +0.166 C 
ATOM      5  H   UNL     1      -2.204   1.761   2.066  0.00  0.00    +0.163 HD
ATOM      6  H   UNL     1      -2.705   4.095  -0.505  0.00  0.00    +0.159 HD
ATOM      7  H   UNL     1      -3.459   2.921   0.506  0.00  0.00    +0.159 HD
ATOM      8  H   UNL     1       0.564   3.650   0.741  0.00  0.00    +0.159 HD
ATOM      9  H   UNL     1      -0.430   4.505  -0.372  0.00  0.00    +0.159 HD
ENDROOT
BRANCH   1  10
ATOM     10  C   UNL     1      -0.100   1.803   2.398  0.00  0.00    +0.151 C 
BRANCH  10  11
ATOM     11  C   UNL     1       0.074   0.318   2.232  0.00  0.00    -0.028 A 
ATOM     12  C   UNL     1       0.966  -0.390   3.051  0.00  0.00    +0.005 A 
ATOM     13  C   UNL     1      -0.655  -0.387   1.263  0.00  0.00    +0.005 A 
ATOM     14  C   UNL     1       1.105  -1.773   2.918  0.00  0.00    +0.000 A 
ATOM     15  C   UNL     1      -0.513  -1.768   1.133  0.00  0.00    +0.000 A 
ATOM     16  C   UNL     1       0.365  -2.461   1.962  0.00  0.00    +0.000 A 
ENDBRANCH  10  11
ENDBRANCH   1  10
TORSDOF 2
ENDMDL
MODEL 8
REMARK VINA RESULT:    -4.964     59.035     60.030
REMARK INTER + INTRA:          -5.651
REMARK INTER:                  -5.520
REMARK INTRA:                  -0.132
REMARK UNBOUND:                -0.107
REMARK  Name = 1550473
REMARK  2 active torsions:
REMARK  status: ('A' for Active; 'I' for Inactive)
REMARK    1  A    between atoms: N_1  and  C_4
REMARK    2  A    between atoms: C_4  and  C_5
REMARK                            x       y       z     vdW  Elec       q    Type
REMARK                         _______ _______ _______ _____ _____    ______ ____
ROOT
ATOM      1  N   UNL     1      -0.436 -14.212 -23.033  0.00  0.00    -0.354 N 
ATOM      2  N   UNL     1      -0.299 -16.439 -22.410  0.00  0.00    -0.372 N 
ATOM      3  N   UNL     1      -2.239 -15.288 -21.992  0.00  0.00    -0.372 N 
ATOM      4  C   UNL     1      -0.995 -15.298 -22.482  0.00  0.00    +0.166 C 
ATOM      5  H   UNL     1       0.522 -14.277 -23.358  0.00  0.00    +0.163 HD
ATOM      6  H   UNL     1      -0.696 -17.275 -22.003  0.00  0.00    +0.159 HD
ATOM      7  H   UNL     1       0.642 -16.513 -22.778  0.00  0.00    +0.159 HD
ATOM      8  H   UNL     1      -2.815 -14.456 -22.010  0.00  0.00    +0.159 HD
ATOM      9  H   UNL     1      -2.650 -16.111 -21.570  0.00  0.00    +0.159 HD
ENDROOT
BRANCH   1  10
ATOM     10  C   UNL     1      -1.127 -12.936 -23.208  0.00  0.00    +0.151 C 
BRANCH  10  11
ATOM     11  C   UNL     1      -0.140 -11.815 -23.030  0.00  0.00    -0.028 A 
ATOM     12  C   UNL     1      -0.342 -10.581 -23.665  0.00  0.00    +0.005 A 
ATOM     13  C   UNL     1       0.997 -11.979 -22.223  0.00  0.00    +0.005 A 
ATOM     14  C   UNL     1       0.558  -9.530 -23.477  0.00  0.00    +0.000 A 
ATOM     15  C   UNL     1       1.894 -10.927 -22.038  0.00  0.00    +0.000 A 
ATOM     16  C   UNL     1       1.673  -9.702 -22.663  0.00  0.00    +0.000 A 
ENDBRANCH  10  11
ENDBRANCH   1  10
TORSDOF 2
ENDMDL
MODEL 9
REMARK VINA RESULT:    -4.833      3.956      5.386
REMARK INTER + INTRA:          -5.505
REMARK INTER:                  -5.413
REMARK INTRA:                  -0.092
REMARK UNBOUND:                -0.107
REMARK  Name = 1550473
REMARK  2 active torsions:
REMARK  status: ('A' for Active; 'I' for Inactive)
REMARK    1  A    between atoms: N_1  and  C_4
REMARK    2  A    between atoms: C_4  and  C_5
REMARK                            x       y       z     vdW  Elec       q    Type
REMARK                         _______ _______ _______ _____ _____    ______ ____
ROOT
ATOM      1  N   UNL     1      16.831  24.885  23.532  0.00  0.00    -0.354 N 
ATOM      2  N   UNL     1      16.241  26.862  24.585  0.00  0.00    -0.372 N 
ATOM      3  N   UNL     1      14.974  26.124  22.819  0.00  0.00    -0.372 N 
ATOM      4  C   UNL     1      16.017  25.944  23.636  0.00  0.00    +0.166 C 
ATOM      5  H   UNL     1      17.622  24.822  24.163  0.00  0.00    +0.163 HD
ATOM      6  H   UNL     1      15.642  27.670  24.690  0.00  0.00    +0.159 HD
ATOM      7  H   UNL     1      17.005  26.772  25.243  0.00  0.00    +0.159 HD
ATOM      8  H   UNL     1      14.755  25.471  22.079  0.00  0.00    +0.159 HD
ATOM      9  H   UNL     1      14.370  26.932  22.901  0.00  0.00    +0.159 HD
ENDROOT
BRANCH   1  10
ATOM     10  C   UNL     1      16.644  23.801  22.569  0.00  0.00    +0.151 C 
BRANCH  10  11
ATOM     11  C   UNL     1      17.679  22.739  22.817  0.00  0.00    -0.028 A 
ATOM     12  C   UNL     1      18.988  22.896  22.337  0.00  0.00    +0.005 A 
ATOM     13  C   UNL     1      17.360  21.577  23.535  0.00  0.00    +0.005 A 
ATOM     14  C   UNL     1      19.958  21.923  22.593  0.00  0.00    +0.000 A 
ATOM     15  C   UNL     1      18.331  20.608  23.788  0.00  0.00    +0.000 A 
ATOM     16  C   UNL     1      19.630  20.783  23.318  0.00  0.00    +0.000 A 
ENDBRANCH  10  11
ENDBRANCH   1  10
TORSDOF 2
ENDMDL
