MODEL 1
REMARK VINA RESULT:    -6.362      0.000      0.000
REMARK INTER + INTRA:          -7.243
REMARK INTER:                  -7.106
REMARK INTRA:                  -0.138
REMARK UNBOUND:                -0.138
REMARK  Name = 1550473
REMARK  2 active torsions:
REMARK  status: ('A' for Active; 'I' for Inactive)
REMARK    1  A    between atoms: N_1  and  C_4
REMARK    2  A    between atoms: C_4  and  C_5
REMARK                            x       y       z     vdW  Elec       q    Type
REMARK                         _______ _______ _______ _____ _____    ______ ____
ROOT
ATOM      1  N   UNL     1      -3.863  -9.386 -14.082  0.00  0.00    -0.354 N 
ATOM      2  N   UNL     1      -5.951 -10.328 -14.422  0.00  0.00    -0.372 N 
ATOM      3  N   UNL     1      -5.753  -8.569 -12.962  0.00  0.00    -0.372 N 
ATOM      4  C   UNL     1      -5.176  -9.420 -13.818  0.00  0.00    +0.166 C 
ATOM      5  H   UNL     1      -3.481 -10.077 -14.717  0.00  0.00    +0.163 HD
ATOM      6  H   UNL     1      -6.945 -10.376 -14.246  0.00  0.00    +0.159 HD
ATOM      7  H   UNL     1      -5.575 -10.989 -15.092  0.00  0.00    +0.159 HD
ATOM      8  H   UNL     1      -5.222  -7.864 -12.469  0.00  0.00    +0.159 HD
ATOM      9  H   UNL     1      -6.744  -8.609 -12.763  0.00  0.00    +0.159 HD
ENDROOT
BRANCH   1  10
ATOM     10  C   UNL     1      -2.941  -8.401 -13.518  0.00  0.00    +0.151 C 
BRANCH  10  11
ATOM     11  C   UNL     1      -1.645  -9.083 -13.174  0.00  0.00    -0.028 A 
ATOM     12  C   UNL     1      -1.542 -10.481 -13.219  0.00  0.00    +0.005 A 
ATOM     13  C   UNL     1      -0.515  -8.336 -12.806  0.00  0.00    +0.005 A 
ATOM     14  C   UNL     1      -0.331 -11.113 -12.929  0.00  0.00    +0.000 A 
ATOM     15  C   UNL     1       0.692  -8.971 -12.516  0.00  0.00    +0.000 A 
ATOM     16  C   UNL     1       0.785 -10.359 -12.580  0.00  0.00    +0.000 A 
ENDBRANCH  10  11
ENDBRANCH   1  10
TORSDOF 2
ENDMDL
MODEL 2
REMARK VINA RESULT:    -5.743     35.378     35.893
REMARK INTER + INTRA:          -6.553
REMARK INTER:                  -6.424
REMARK INTRA:                  -0.129
REMARK UNBOUND:                -0.138
REMARK  Name = 1550473
REMARK  2 active torsions:
REMARK  status: ('A' for Active; 'I' for Inactive)
REMARK    1  A    between atoms: N_1  and  C_4
REMARK    2  A    between atoms: C_4  and  C_5
REMARK                            x       y       z     vdW  Elec       q    Type
REMARK                         _______ _______ _______ _____ _____    ______ ____
ROOT
ATOM      1  N   UNL     1       6.337  -2.318  20.078  0.00  0.00    -0.354 N 
ATOM      2  N   UNL     1       4.195  -1.440  20.153  0.00  0.00    -0.372 N 
ATOM      3  N   UNL     1       5.964  -0.103  20.745  0.00  0.00    -0.372 N 
ATOM      4  C   UNL     1       5.514  -1.291  20.326  0.00  0.00    +0.166 C 
ATOM      5  H   UNL     1       5.932  -3.202  19.792  0.00  0.00    +0.163 HD
ATOM      6  H   UNL     1       3.550  -0.682  20.329  0.00  0.00    +0.159 HD
ATOM      7  H   UNL     1       3.797  -2.311  19.823  0.00  0.00    +0.159 HD
ATOM      8  H   UNL     1       6.947   0.073  20.900  0.00  0.00    +0.159 HD
ATOM      9  H   UNL     1       5.332   0.665  20.937  0.00  0.00    +0.159 HD
ENDROOT
BRANCH   1  10
ATOM     10  C   UNL     1       7.793  -2.243  20.183  0.00  0.00    +0.151 C 
BRANCH  10  11
ATOM     11  C   UNL     1       8.334  -3.609  20.506  0.00  0.00    -0.028 A 
ATOM     12  C   UNL     1       9.700  -3.791  20.767  0.00  0.00    +0.005 A 
ATOM     13  C   UNL     1       7.483  -4.724  20.560  0.00  0.00    +0.005 A 
ATOM     14  C   UNL     1      10.197  -5.054  21.097  0.00  0.00    +0.000 A 
ATOM     15  C   UNL     1       7.984  -5.984  20.888  0.00  0.00    +0.000 A 
ATOM     16  C   UNL     1       9.340  -6.148  21.159  0.00  0.00    +0.000 A 
ENDBRANCH  10  11
ENDBRANCH   1  10
TORSDOF 2
ENDMDL
MODEL 3
REMARK VINA RESULT:    -5.631      3.335      4.938
REMARK INTER + INTRA:          -6.427
REMARK INTER:                  -6.270
REMARK INTRA:                  -0.157
REMARK UNBOUND:                -0.138
REMARK  Name = 1550473
REMARK  2 active torsions:
REMARK  status: ('A' for Active; 'I' for Inactive)
REMARK    1  A    between atoms: N_1  and  C_4
REMARK    2  A    between atoms: C_4  and  C_5
REMARK                            x       y       z     vdW  Elec       q    Type
REMARK                         _______ _______ _______ _____ _____    ______ ____
ROOT
ATOM      1  N   UNL     1       0.488 -11.418 -13.473  0.00  0.00    -0.354 N 
ATOM      2  N   UNL     1       1.636 -12.642 -15.069  0.00  0.00    -0.372 N 
ATOM      3  N   UNL     1       2.058 -10.394 -14.881  0.00  0.00    -0.372 N 
ATOM      4  C   UNL     1       1.387 -11.474 -14.465  0.00  0.00    +0.166 C 
ATOM      5  H   UNL     1      -0.008 -12.266 -13.225  0.00  0.00    +0.163 HD
ATOM      6  H   UNL     1       2.312 -12.716 -15.818  0.00  0.00    +0.159 HD
ATOM      7  H   UNL     1       1.172 -13.497 -14.788  0.00  0.00    +0.159 HD
ATOM      8  H   UNL     1       1.912  -9.482 -14.470  0.00  0.00    +0.159 HD
ATOM      9  H   UNL     1       2.729 -10.446 -15.636  0.00  0.00    +0.159 HD
ENDROOT
BRANCH   1  10
ATOM     10  C   UNL     1       0.183 -10.207 -12.714  0.00  0.00    +0.151 C 
BRANCH  10  11
ATOM     11  C   UNL     1      -1.194  -9.729 -13.083  0.00  0.00    -0.028 A 
ATOM     12  C   UNL     1      -2.186 -10.644 -13.467  0.00  0.00    +0.005 A 
ATOM     13  C   UNL     1      -1.517  -8.364 -13.044  0.00  0.00    +0.005 A 
ATOM     14  C   UNL     1      -3.474 -10.204 -13.781  0.00  0.00    +0.000 A 
ATOM     15  C   UNL     1      -2.804  -7.929 -13.358  0.00  0.00    +0.000 A 
ATOM     16  C   UNL     1      -3.783  -8.849 -13.725  0.00  0.00    +0.000 A 
ENDBRANCH  10  11
ENDBRANCH   1  10
TORSDOF 2
ENDMDL
MODEL 4
REMARK VINA RESULT:    -5.457     35.569     36.358
REMARK INTER + INTRA:          -6.233
REMARK INTER:                  -6.077
REMARK INTRA:                  -0.156
REMARK UNBOUND:                -0.138
REMARK  Name = 1550473
REMARK  2 active torsions:
REMARK  status: ('A' for Active; 'I' for Inactive)
REMARK    1  A    between atoms: N_1  and  C_4
REMARK    2  A    between atoms: C_4  and  C_5
REMARK                            x       y       z     vdW  Elec       q    Type
REMARK                         _______ _______ _______ _____ _____    ______ ____
ROOT
ATOM      1  N   UNL     1       7.569  -1.317  21.293  0.00  0.00    -0.354 N 
ATOM      2  N   UNL     1       5.995  -0.199  22.572  0.00  0.00    -0.372 N 
ATOM      3  N   UNL     1       5.481  -0.736  20.401  0.00  0.00    -0.372 N 
ATOM      4  C   UNL     1       6.358  -0.758  21.411  0.00  0.00    +0.166 C 
ATOM      5  H   UNL     1       8.199  -1.274  22.086  0.00  0.00    +0.163 HD
ATOM      6  H   UNL     1       5.086   0.228  22.691  0.00  0.00    +0.159 HD
ATOM      7  H   UNL     1       6.609  -0.198  23.377  0.00  0.00    +0.159 HD
ATOM      8  H   UNL     1       5.696  -1.136  19.497  0.00  0.00    +0.159 HD
ATOM      9  H   UNL     1       4.571  -0.304  20.498  0.00  0.00    +0.159 HD
ENDROOT
BRANCH   1  10
ATOM     10  C   UNL     1       8.041  -2.000  20.089  0.00  0.00    +0.151 C 
BRANCH  10  11
ATOM     11  C   UNL     1       8.323  -3.439  20.420  0.00  0.00    -0.028 A 
ATOM     12  C   UNL     1       9.628  -3.860  20.713  0.00  0.00    +0.005 A 
ATOM     13  C   UNL     1       7.288  -4.387  20.447  0.00  0.00    +0.005 A 
ATOM     14  C   UNL     1       9.886  -5.191  21.050  0.00  0.00    +0.000 A 
ATOM     15  C   UNL     1       7.550  -5.715  20.783  0.00  0.00    +0.000 A 
ATOM     16  C   UNL     1       8.848  -6.116  21.087  0.00  0.00    +0.000 A 
ENDBRANCH  10  11
ENDBRANCH   1  10
TORSDOF 2
ENDMDL
MODEL 5
REMARK VINA RESULT:    -5.149     33.719     34.694
REMARK INTER + INTRA:          -5.889
REMARK INTER:                  -5.745
REMARK INTRA:                  -0.143
REMARK UNBOUND:                -0.138
REMARK  Name = 1550473
REMARK  2 active torsions:
REMARK  status: ('A' for Active; 'I' for Inactive)
REMARK    1  A    between atoms: N_1  and  C_4
REMARK    2  A    between atoms: C_4  and  C_5
REMARK                            x       y       z     vdW  Elec       q    Type
REMARK                         _______ _______ _______ _____ _____    ______ ____
ROOT
ATOM      1  N   UNL     1       4.856  -6.248  20.063  0.00  0.00    -0.354 N 
ATOM      2  N   UNL     1       2.986  -6.855  18.839  0.00  0.00    -0.372 N 
ATOM      3  N   UNL     1       4.896  -8.111  18.643  0.00  0.00    -0.372 N 
ATOM      4  C   UNL     1       4.260  -7.069  19.189  0.00  0.00    +0.166 C 
ATOM      5  H   UNL     1       4.329  -5.458  20.418  0.00  0.00    +0.163 HD
ATOM      6  H   UNL     1       2.509  -7.460  18.184  0.00  0.00    +0.159 HD
ATOM      7  H   UNL     1       2.447  -6.091  19.230  0.00  0.00    +0.159 HD
ATOM      8  H   UNL     1       5.860  -8.324  18.861  0.00  0.00    +0.159 HD
ATOM      9  H   UNL     1       4.439  -8.721  17.977  0.00  0.00    +0.159 HD
ENDROOT
BRANCH   1  10
ATOM     10  C   UNL     1       6.223  -6.425  20.551  0.00  0.00    +0.151 C 
BRANCH  10  11
ATOM     11  C   UNL     1       6.956  -5.116  20.445  0.00  0.00    -0.028 A 
ATOM     12  C   UNL     1       6.288  -3.959  20.017  0.00  0.00    +0.005 A 
ATOM     13  C   UNL     1       8.316  -5.025  20.778  0.00  0.00    +0.005 A 
ATOM     14  C   UNL     1       6.961  -2.736  19.948  0.00  0.00    +0.000 A 
ATOM     15  C   UNL     1       8.984  -3.802  20.707  0.00  0.00    +0.000 A 
ATOM     16  C   UNL     1       8.306  -2.658  20.294  0.00  0.00    +0.000 A 
ENDBRANCH  10  11
ENDBRANCH   1  10
TORSDOF 2
ENDMDL
MODEL 6
REMARK VINA RESULT:    -5.032     34.831     35.655
REMARK INTER + INTRA:          -5.758
REMARK INTER:                  -5.640
REMARK INTRA:                  -0.118
REMARK UNBOUND:                -0.138
REMARK  Name = 1550473
REMARK  2 active torsions:
REMARK  status: ('A' for Active; 'I' for Inactive)
REMARK    1  A    between atoms: N_1  and  C_4
REMARK    2  A    between atoms: C_4  and  C_5
REMARK                            x       y       z     vdW  Elec       q    Type
REMARK                         _______ _______ _______ _____ _____    ______ ____
ROOT
ATOM      1  N   UNL     1       5.389  -3.069  20.482  0.00  0.00    -0.354 N 
ATOM      2  N   UNL     1       3.893  -1.449  21.191  0.00  0.00    -0.372 N 
ATOM      3  N   UNL     1       3.112  -3.558  20.735  0.00  0.00    -0.372 N 
ATOM      4  C   UNL     1       4.139  -2.705  20.797  0.00  0.00    +0.166 C 
ATOM      5  H   UNL     1       6.120  -2.367  20.521  0.00  0.00    +0.163 HD
ATOM      6  H   UNL     1       2.961  -1.146  21.438  0.00  0.00    +0.159 HD
ATOM      7  H   UNL     1       4.633  -0.762  21.273  0.00  0.00    +0.159 HD
ATOM      8  H   UNL     1       3.230  -4.518  20.440  0.00  0.00    +0.159 HD
ATOM      9  H   UNL     1       2.169  -3.270  20.968  0.00  0.00    +0.159 HD
ENDROOT
BRANCH   1  10
ATOM     10  C   UNL     1       5.773  -4.425  20.094  0.00  0.00    +0.151 C 
BRANCH  10  11
ATOM     11  C   UNL     1       7.211  -4.655  20.467  0.00  0.00    -0.028 A 
ATOM     12  C   UNL     1       7.663  -5.939  20.805  0.00  0.00    +0.005 A 
ATOM     13  C   UNL     1       8.129  -3.593  20.479  0.00  0.00    +0.005 A 
ATOM     14  C   UNL     1       9.005  -6.158  21.123  0.00  0.00    +0.000 A 
ATOM     15  C   UNL     1       9.469  -3.816  20.798  0.00  0.00    +0.000 A 
ATOM     16  C   UNL     1       9.907  -5.099  21.117  0.00  0.00    +0.000 A 
ENDBRANCH  10  11
ENDBRANCH   1  10
TORSDOF 2
ENDMDL
MODEL 7
REMARK VINA RESULT:    -4.929     35.377     35.987
REMARK INTER + INTRA:          -5.643
REMARK INTER:                  -5.545
REMARK INTRA:                  -0.099
REMARK UNBOUND:                -0.138
REMARK  Name = 1550473
REMARK  2 active torsions:
REMARK  status: ('A' for Active; 'I' for Inactive)
REMARK    1  A    between atoms: N_1  and  C_4
REMARK    2  A    between atoms: C_4  and  C_5
REMARK                            x       y       z     vdW  Elec       q    Type
REMARK                         _______ _______ _______ _____ _____    ______ ____
ROOT
ATOM      1  N   UNL     1       3.911  -1.451  21.790  0.00  0.00    -0.354 N 
ATOM      2  N   UNL     1       2.429  -1.159  23.546  0.00  0.00    -0.372 N 
ATOM      3  N   UNL     1       1.630  -1.919  21.534  0.00  0.00    -0.372 N 
ATOM      4  C   UNL     1       2.665  -1.512  22.277  0.00  0.00    +0.166 C 
ATOM      5  H   UNL     1       4.648  -1.105  22.395  0.00  0.00    +0.163 HD
ATOM      6  H   UNL     1       1.500  -1.198  23.942  0.00  0.00    +0.159 HD
ATOM      7  H   UNL     1       3.175  -0.857  24.162  0.00  0.00    +0.159 HD
ATOM      8  H   UNL     1       1.739  -2.194  20.567  0.00  0.00    +0.159 HD
ATOM      9  H   UNL     1       0.690  -1.954  21.909  0.00  0.00    +0.159 HD
ENDROOT
BRANCH   1  10
ATOM     10  C   UNL     1       4.283  -1.865  20.438  0.00  0.00    +0.151 C 
BRANCH  10  11
ATOM     11  C   UNL     1       5.699  -2.372  20.451  0.00  0.00    -0.028 A 
ATOM     12  C   UNL     1       5.961  -3.749  20.456  0.00  0.00    +0.005 A 
ATOM     13  C   UNL     1       6.782  -1.479  20.452  0.00  0.00    +0.005 A 
ATOM     14  C   UNL     1       7.276  -4.221  20.438  0.00  0.00    +0.000 A 
ATOM     15  C   UNL     1       8.093  -1.954  20.435  0.00  0.00    +0.000 A 
ATOM     16  C   UNL     1       8.340  -3.325  20.425  0.00  0.00    +0.000 A 
ENDBRANCH  10  11
ENDBRANCH   1  10
TORSDOF 2
ENDMDL
MODEL 8
REMARK VINA RESULT:    -4.790     19.694     20.685
REMARK INTER + INTRA:          -5.488
REMARK INTER:                  -5.336
REMARK INTRA:                  -0.152
REMARK UNBOUND:                -0.138
REMARK  Name = 1550473
REMARK  2 active torsions:
REMARK  status: ('A' for Active; 'I' for Inactive)
REMARK    1  A    between atoms: N_1  and  C_4
REMARK    2  A    between atoms: C_4  and  C_5
REMARK                            x       y       z     vdW  Elec       q    Type
REMARK                         _______ _______ _______ _____ _____    ______ ____
ROOT
ATOM      1  N   UNL     1     -12.919  -2.681   4.283  0.00  0.00    -0.354 N 
ATOM      2  N   UNL     1     -14.571  -4.110   3.511  0.00  0.00    -0.372 N 
ATOM      3  N   UNL     1     -14.971  -1.850   3.512  0.00  0.00    -0.372 N 
ATOM      4  C   UNL     1     -14.144  -2.868   3.774  0.00  0.00    +0.166 C 
ATOM      5  H   UNL     1     -12.353  -3.496   4.486  0.00  0.00    +0.163 HD
ATOM      6  H   UNL     1     -15.489  -4.282   3.124  0.00  0.00    +0.159 HD
ATOM      7  H   UNL     1     -13.985  -4.920   3.673  0.00  0.00    +0.159 HD
ATOM      8  H   UNL     1     -14.711  -0.890   3.693  0.00  0.00    +0.159 HD
ATOM      9  H   UNL     1     -15.898  -2.003   3.135  0.00  0.00    +0.159 HD
ENDROOT
BRANCH   1  10
ATOM     10  C   UNL     1     -12.339  -1.367   4.554  0.00  0.00    +0.151 C 
BRANCH  10  11
ATOM     11  C   UNL     1     -11.170  -1.146   3.634  0.00  0.00    -0.028 A 
ATOM     12  C   UNL     1      -9.867  -1.060   4.146  0.00  0.00    +0.005 A 
ATOM     13  C   UNL     1     -11.359  -1.029   2.248  0.00  0.00    +0.005 A 
ATOM     14  C   UNL     1      -8.778  -0.885   3.288  0.00  0.00    +0.000 A 
ATOM     15  C   UNL     1     -10.269  -0.854   1.395  0.00  0.00    +0.000 A 
ATOM     16  C   UNL     1      -8.979  -0.784   1.916  0.00  0.00    +0.000 A 
ENDBRANCH  10  11
ENDBRANCH   1  10
TORSDOF 2
ENDMDL
MODEL 9
REMARK VINA RESULT:    -4.734     34.575     35.449
REMARK INTER + INTRA:          -5.425
REMARK INTER:                  -5.296
REMARK INTRA:                  -0.130
REMARK UNBOUND:                -0.138
REMARK  Name = 1550473
REMARK  2 active torsions:
REMARK  status: ('A' for Active; 'I' for Inactive)
REMARK    1  A    between atoms: N_1  and  C_4
REMARK    2  A    between atoms: C_4  and  C_5
REMARK                            x       y       z     vdW  Elec       q    Type
REMARK                         _______ _______ _______ _____ _____    ______ ____
ROOT
ATOM      1  N   UNL     1       5.148  -4.742  20.143  0.00  0.00    -0.354 N 
ATOM      2  N   UNL     1       2.962  -5.495  20.277  0.00  0.00    -0.372 N 
ATOM      3  N   UNL     1       3.408  -3.295  20.752  0.00  0.00    -0.372 N 
ATOM      4  C   UNL     1       3.853  -4.503  20.391  0.00  0.00    +0.166 C 
ATOM      5  H   UNL     1       5.425  -5.687  19.903  0.00  0.00    +0.163 HD
ATOM      6  H   UNL     1       1.978  -5.344  20.454  0.00  0.00    +0.159 HD
ATOM      7  H   UNL     1       3.235  -6.427  19.992  0.00  0.00    +0.159 HD
ATOM      8  H   UNL     1       4.030  -2.505  20.861  0.00  0.00    +0.159 HD
ATOM      9  H   UNL     1       2.428  -3.127  20.945  0.00  0.00    +0.159 HD
ENDROOT
BRANCH   1  10
ATOM     10  C   UNL     1       6.191  -3.719  20.186  0.00  0.00    +0.151 C 
BRANCH  10  11
ATOM     11  C   UNL     1       7.507  -4.372  20.508  0.00  0.00    -0.028 A 
ATOM     12  C   UNL     1       8.682  -3.610  20.576  0.00  0.00    +0.005 A 
ATOM     13  C   UNL     1       7.584  -5.752  20.752  0.00  0.00    +0.005 A 
ATOM     14  C   UNL     1       9.900  -4.211  20.905  0.00  0.00    +0.000 A 
ATOM     15  C   UNL     1       8.801  -6.349  21.079  0.00  0.00    +0.000 A 
ATOM     16  C   UNL     1       9.958  -5.578  21.158  0.00  0.00    +0.000 A 
ENDBRANCH  10  11
ENDBRANCH   1  10
TORSDOF 2
ENDMDL
