MODEL 1
REMARK VINA RESULT:    -5.211      0.000      0.000
REMARK INTER + INTRA:          -5.951
REMARK INTER:                  -5.821
REMARK INTRA:                  -0.130
REMARK UNBOUND:                -0.130
REMARK  Name = 1550473
REMARK  2 active torsions:
REMARK  status: ('A' for Active; 'I' for Inactive)
REMARK    1  A    between atoms: N_1  and  C_4
REMARK    2  A    between atoms: C_4  and  C_5
REMARK                            x       y       z     vdW  Elec       q    Type
REMARK                         _______ _______ _______ _____ _____    ______ ____
ROOT
ATOM      1  N   UNL     1      -9.790  -5.144 -17.494  0.00  0.00    -0.354 N 
ATOM      2  N   UNL     1      -8.829  -5.537 -19.564  0.00  0.00    -0.372 N 
ATOM      3  N   UNL     1     -10.483  -6.945 -18.824  0.00  0.00    -0.372 N 
ATOM      4  C   UNL     1      -9.709  -5.875 -18.614  0.00  0.00    +0.166 C 
ATOM      5  H   UNL     1      -9.154  -4.363 -17.382  0.00  0.00    +0.163 HD
ATOM      6  H   UNL     1      -8.747  -6.067 -20.421  0.00  0.00    +0.159 HD
ATOM      7  H   UNL     1      -8.226  -4.728 -19.469  0.00  0.00    +0.159 HD
ATOM      8  H   UNL     1     -11.163  -7.256 -18.144  0.00  0.00    +0.159 HD
ATOM      9  H   UNL     1     -10.407  -7.495 -19.671  0.00  0.00    +0.159 HD
ENDROOT
BRANCH   1  10
ATOM     10  C   UNL     1     -10.751  -5.396 -16.422  0.00  0.00    +0.151 C 
BRANCH  10  11
ATOM     11  C   UNL     1     -11.221  -4.080 -15.865  0.00  0.00    -0.028 A 
ATOM     12  C   UNL     1     -11.404  -3.916 -14.484  0.00  0.00    +0.005 A 
ATOM     13  C   UNL     1     -11.481  -2.992 -16.712  0.00  0.00    +0.005 A 
ATOM     14  C   UNL     1     -11.812  -2.685 -13.963  0.00  0.00    +0.000 A 
ATOM     15  C   UNL     1     -11.888  -1.765 -16.189  0.00  0.00    +0.000 A 
ATOM     16  C   UNL     1     -12.051  -1.612 -14.814  0.00  0.00    +0.000 A 
ENDBRANCH  10  11
ENDBRANCH   1  10
TORSDOF 2
ENDMDL
MODEL 2
REMARK VINA RESULT:    -5.198     35.015     35.450
REMARK INTER + INTRA:          -5.936
REMARK INTER:                  -5.811
REMARK INTRA:                  -0.124
REMARK UNBOUND:                -0.130
REMARK  Name = 1550473
REMARK  2 active torsions:
REMARK  status: ('A' for Active; 'I' for Inactive)
REMARK    1  A    between atoms: N_1  and  C_4
REMARK    2  A    between atoms: C_4  and  C_5
REMARK                            x       y       z     vdW  Elec       q    Type
REMARK                         _______ _______ _______ _____ _____    ______ ____
ROOT
ATOM      1  N   UNL     1      21.062   6.276  -4.862  0.00  0.00    -0.354 N 
ATOM      2  N   UNL     1      23.022   5.073  -5.135  0.00  0.00    -0.372 N 
ATOM      3  N   UNL     1      21.261   4.090  -4.041  0.00  0.00    -0.372 N 
ATOM      4  C   UNL     1      21.767   5.152  -4.676  0.00  0.00    +0.166 C 
ATOM      5  H   UNL     1      21.513   7.057  -5.325  0.00  0.00    +0.163 HD
ATOM      6  H   UNL     1      23.577   4.237  -5.013  0.00  0.00    +0.159 HD
ATOM      7  H   UNL     1      23.455   5.838  -5.638  0.00  0.00    +0.159 HD
ATOM      8  H   UNL     1      20.322   4.088  -3.665  0.00  0.00    +0.159 HD
ATOM      9  H   UNL     1      21.805   3.248  -3.898  0.00  0.00    +0.159 HD
ENDROOT
BRANCH   1  10
ATOM     10  C   UNL     1      19.670   6.445  -4.449  0.00  0.00    +0.151 C 
BRANCH  10  11
ATOM     11  C   UNL     1      19.419   7.898  -4.152  0.00  0.00    -0.028 A 
ATOM     12  C   UNL     1      18.209   8.502  -4.523  0.00  0.00    +0.005 A 
ATOM     13  C   UNL     1      20.386   8.675  -3.495  0.00  0.00    +0.005 A 
ATOM     14  C   UNL     1      17.964   9.844  -4.221  0.00  0.00    +0.000 A 
ATOM     15  C   UNL     1      20.137  10.014  -3.196  0.00  0.00    +0.000 A 
ATOM     16  C   UNL     1      18.925  10.598  -3.557  0.00  0.00    +0.000 A 
ENDBRANCH  10  11
ENDBRANCH   1  10
TORSDOF 2
ENDMDL
MODEL 3
REMARK VINA RESULT:    -5.149     35.689     36.179
REMARK INTER + INTRA:          -5.881
REMARK INTER:                  -5.758
REMARK INTRA:                  -0.123
REMARK UNBOUND:                -0.130
REMARK  Name = 1550473
REMARK  2 active torsions:
REMARK  status: ('A' for Active; 'I' for Inactive)
REMARK    1  A    between atoms: N_1  and  C_4
REMARK    2  A    between atoms: C_4  and  C_5
REMARK                            x       y       z     vdW  Elec       q    Type
REMARK                         _______ _______ _______ _____ _____    ______ ____
ROOT
ATOM      1  N   UNL     1      21.233   6.917  -3.613  0.00  0.00    -0.354 N 
ATOM      2  N   UNL     1      21.818   4.698  -3.926  0.00  0.00    -0.372 N 
ATOM      3  N   UNL     1      23.248   6.070  -2.770  0.00  0.00    -0.372 N 
ATOM      4  C   UNL     1      22.098   5.910  -3.433  0.00  0.00    +0.166 C 
ATOM      5  H   UNL     1      20.392   6.738  -4.151  0.00  0.00    +0.163 HD
ATOM      6  H   UNL     1      22.450   3.918  -3.802  0.00  0.00    +0.159 HD
ATOM      7  H   UNL     1      20.955   4.511  -4.423  0.00  0.00    +0.159 HD
ATOM      8  H   UNL     1      23.522   6.961  -2.379  0.00  0.00    +0.159 HD
ATOM      9  H   UNL     1      23.900   5.305  -2.647  0.00  0.00    +0.159 HD
ENDROOT
BRANCH   1  10
ATOM     10  C   UNL     1      21.418   8.262  -3.071  0.00  0.00    +0.151 C 
BRANCH  10  11
ATOM     11  C   UNL     1      20.215   9.098  -3.410  0.00  0.00    -0.028 A 
ATOM     12  C   UNL     1      20.169  10.454  -3.057  0.00  0.00    +0.005 A 
ATOM     13  C   UNL     1      19.121   8.541  -4.090  0.00  0.00    +0.005 A 
ATOM     14  C   UNL     1      19.064  11.239  -3.398  0.00  0.00    +0.000 A 
ATOM     15  C   UNL     1      18.019   9.328  -4.428  0.00  0.00    +0.000 A 
ATOM     16  C   UNL     1      17.993  10.677  -4.084  0.00  0.00    +0.000 A 
ENDBRANCH  10  11
ENDBRANCH   1  10
TORSDOF 2
ENDMDL
MODEL 4
REMARK VINA RESULT:    -5.084     36.091     37.751
REMARK INTER + INTRA:          -5.808
REMARK INTER:                  -5.642
REMARK INTRA:                  -0.167
REMARK UNBOUND:                -0.130
REMARK  Name = 1550473
REMARK  2 active torsions:
REMARK  status: ('A' for Active; 'I' for Inactive)
REMARK    1  A    between atoms: N_1  and  C_4
REMARK    2  A    between atoms: C_4  and  C_5
REMARK                            x       y       z     vdW  Elec       q    Type
REMARK                         _______ _______ _______ _____ _____    ______ ____
ROOT
ATOM      1  N   UNL     1      -9.209  -6.019  20.097  0.00  0.00    -0.354 N 
ATOM      2  N   UNL     1      -7.195  -6.623  19.128  0.00  0.00    -0.372 N 
ATOM      3  N   UNL     1      -8.388  -4.888  18.217  0.00  0.00    -0.372 N 
ATOM      4  C   UNL     1      -8.278  -5.837  19.152  0.00  0.00    +0.166 C 
ATOM      5  H   UNL     1      -9.082  -6.776  20.759  0.00  0.00    +0.163 HD
ATOM      6  H   UNL     1      -6.474  -6.507  18.428  0.00  0.00    +0.159 HD
ATOM      7  H   UNL     1      -7.047  -7.349  19.818  0.00  0.00    +0.159 HD
ATOM      8  H   UNL     1      -9.184  -4.266  18.177  0.00  0.00    +0.159 HD
ATOM      9  H   UNL     1      -7.683  -4.764  17.501  0.00  0.00    +0.159 HD
ENDROOT
BRANCH   1  10
ATOM     10  C   UNL     1     -10.400  -5.184  20.244  0.00  0.00    +0.151 C 
BRANCH  10  11
ATOM     11  C   UNL     1     -10.191  -4.227  21.386  0.00  0.00    -0.028 A 
ATOM     12  C   UNL     1      -9.522  -3.011  21.182  0.00  0.00    +0.005 A 
ATOM     13  C   UNL     1     -10.664  -4.528  22.672  0.00  0.00    +0.005 A 
ATOM     14  C   UNL     1      -9.354  -2.109  22.235  0.00  0.00    +0.000 A 
ATOM     15  C   UNL     1     -10.493  -3.625  23.721  0.00  0.00    +0.000 A 
ATOM     16  C   UNL     1      -9.840  -2.415  23.502  0.00  0.00    +0.000 A 
ENDBRANCH  10  11
ENDBRANCH   1  10
TORSDOF 2
ENDMDL
MODEL 5
REMARK VINA RESULT:    -5.076     35.410     35.916
REMARK INTER + INTRA:          -5.800
REMARK INTER:                  -5.683
REMARK INTRA:                  -0.116
REMARK UNBOUND:                -0.130
REMARK  Name = 1550473
REMARK  2 active torsions:
REMARK  status: ('A' for Active; 'I' for Inactive)
REMARK    1  A    between atoms: N_1  and  C_4
REMARK    2  A    between atoms: C_4  and  C_5
REMARK                            x       y       z     vdW  Elec       q    Type
REMARK                         _______ _______ _______ _____ _____    ______ ____
ROOT
ATOM      1  N   UNL     1      21.596   7.332  -2.444  0.00  0.00    -0.354 N 
ATOM      2  N   UNL     1      23.183   8.112  -0.948  0.00  0.00    -0.372 N 
ATOM      3  N   UNL     1      23.569   6.132  -2.042  0.00  0.00    -0.372 N 
ATOM      4  C   UNL     1      22.774   7.184  -1.822  0.00  0.00    +0.166 C 
ATOM      5  H   UNL     1      21.026   8.137  -2.211  0.00  0.00    +0.163 HD
ATOM      6  H   UNL     1      24.069   8.029  -0.467  0.00  0.00    +0.159 HD
ATOM      7  H   UNL     1      22.633   8.939  -0.752  0.00  0.00    +0.159 HD
ATOM      8  H   UNL     1      23.315   5.394  -2.685  0.00  0.00    +0.159 HD
ATOM      9  H   UNL     1      24.453   6.026  -1.561  0.00  0.00    +0.159 HD
ENDROOT
BRANCH   1  10
ATOM     10  C   UNL     1      21.083   6.406  -3.452  0.00  0.00    +0.151 C 
BRANCH  10  11
ATOM     11  C   UNL     1      19.775   6.929  -3.978  0.00  0.00    -0.028 A 
ATOM     12  C   UNL     1      18.775   6.045  -4.410  0.00  0.00    +0.005 A 
ATOM     13  C   UNL     1      19.526   8.309  -4.043  0.00  0.00    +0.005 A 
ATOM     14  C   UNL     1      17.549   6.529  -4.870  0.00  0.00    +0.000 A 
ATOM     15  C   UNL     1      18.300   8.789  -4.504  0.00  0.00    +0.000 A 
ATOM     16  C   UNL     1      17.311   7.899  -4.915  0.00  0.00    +0.000 A 
ENDBRANCH  10  11
ENDBRANCH   1  10
TORSDOF 2
ENDMDL
MODEL 6
REMARK VINA RESULT:    -4.930     34.835     36.553
REMARK INTER + INTRA:          -5.637
REMARK INTER:                  -5.522
REMARK INTRA:                  -0.114
REMARK UNBOUND:                -0.130
REMARK  Name = 1550473
REMARK  2 active torsions:
REMARK  status: ('A' for Active; 'I' for Inactive)
REMARK    1  A    between atoms: N_1  and  C_4
REMARK    2  A    between atoms: C_4  and  C_5
REMARK                            x       y       z     vdW  Elec       q    Type
REMARK                         _______ _______ _______ _____ _____    ______ ____
ROOT
ATOM      1  N   UNL     1      -9.411  -3.747  20.794  0.00  0.00    -0.354 N 
ATOM      2  N   UNL     1      -9.777  -2.131  22.413  0.00  0.00    -0.372 N 
ATOM      3  N   UNL     1      -9.381  -4.292  23.073  0.00  0.00    -0.372 N 
ATOM      4  C   UNL     1      -9.520  -3.403  22.084  0.00  0.00    +0.166 C 
ATOM      5  H   UNL     1      -9.558  -3.031  20.091  0.00  0.00    +0.163 HD
ATOM      6  H   UNL     1      -9.861  -1.841  23.378  0.00  0.00    +0.159 HD
ATOM      7  H   UNL     1      -9.877  -1.409  21.710  0.00  0.00    +0.159 HD
ATOM      8  H   UNL     1      -9.192  -5.269  22.892  0.00  0.00    +0.159 HD
ATOM      9  H   UNL     1      -9.473  -4.024  24.045  0.00  0.00    +0.159 HD
ENDROOT
BRANCH   1  10
ATOM     10  C   UNL     1      -9.081  -5.093  20.332  0.00  0.00    +0.151 C 
BRANCH  10  11
ATOM     11  C   UNL     1      -9.803  -5.360  19.040  0.00  0.00    -0.028 A 
ATOM     12  C   UNL     1     -11.192  -5.556  19.028  0.00  0.00    +0.005 A 
ATOM     13  C   UNL     1      -9.105  -5.414  17.824  0.00  0.00    +0.005 A 
ATOM     14  C   UNL     1     -11.867  -5.774  17.825  0.00  0.00    +0.000 A 
ATOM     15  C   UNL     1      -9.782  -5.632  16.625  0.00  0.00    +0.000 A 
ATOM     16  C   UNL     1     -11.164  -5.810  16.625  0.00  0.00    +0.000 A 
ENDBRANCH  10  11
ENDBRANCH   1  10
TORSDOF 2
ENDMDL
MODEL 7
REMARK VINA RESULT:    -4.845     34.251     35.953
REMARK INTER + INTRA:          -5.542
REMARK INTER:                  -5.401
REMARK INTRA:                  -0.141
REMARK UNBOUND:                -0.130
REMARK  Name = 1550473
REMARK  2 active torsions:
REMARK  status: ('A' for Active; 'I' for Inactive)
REMARK    1  A    between atoms: N_1  and  C_4
REMARK    2  A    between atoms: C_4  and  C_5
REMARK                            x       y       z     vdW  Elec       q    Type
REMARK                         _______ _______ _______ _____ _____    ______ ____
ROOT
ATOM      1  N   UNL     1      -9.560  -6.013  20.395  0.00  0.00    -0.354 N 
ATOM      2  N   UNL     1      -7.410  -5.955  21.255  0.00  0.00    -0.372 N 
ATOM      3  N   UNL     1      -8.880  -4.290  21.831  0.00  0.00    -0.372 N 
ATOM      4  C   UNL     1      -8.632  -5.417  21.156  0.00  0.00    +0.166 C 
ATOM      5  H   UNL     1      -9.300  -6.849  19.885  0.00  0.00    +0.163 HD
ATOM      6  H   UNL     1      -6.690  -5.530  21.824  0.00  0.00    +0.159 HD
ATOM      7  H   UNL     1      -7.167  -6.815  20.780  0.00  0.00    +0.159 HD
ATOM      8  H   UNL     1      -9.780  -3.830  21.794  0.00  0.00    +0.159 HD
ATOM      9  H   UNL     1      -8.169  -3.843  22.396  0.00  0.00    +0.159 HD
ENDROOT
BRANCH   1  10
ATOM     10  C   UNL     1     -10.936  -5.538  20.263  0.00  0.00    +0.151 C 
BRANCH  10  11
ATOM     11  C   UNL     1     -11.321  -5.547  18.809  0.00  0.00    -0.028 A 
ATOM     12  C   UNL     1     -10.337  -5.620  17.813  0.00  0.00    +0.005 A 
ATOM     13  C   UNL     1     -12.669  -5.487  18.422  0.00  0.00    +0.005 A 
ATOM     14  C   UNL     1     -10.696  -5.659  16.463  0.00  0.00    +0.000 A 
ATOM     15  C   UNL     1     -13.022  -5.525  17.074  0.00  0.00    +0.000 A 
ATOM     16  C   UNL     1     -12.036  -5.613  16.094  0.00  0.00    +0.000 A 
ENDBRANCH  10  11
ENDBRANCH   1  10
TORSDOF 2
ENDMDL
MODEL 8
REMARK VINA RESULT:    -4.750     40.105     41.668
REMARK INTER + INTRA:          -5.436
REMARK INTER:                  -5.294
REMARK INTRA:                  -0.142
REMARK UNBOUND:                -0.130
REMARK  Name = 1550473
REMARK  2 active torsions:
REMARK  status: ('A' for Active; 'I' for Inactive)
REMARK    1  A    between atoms: N_1  and  C_4
REMARK    2  A    between atoms: C_4  and  C_5
REMARK                            x       y       z     vdW  Elec       q    Type
REMARK                         _______ _______ _______ _____ _____    ______ ____
ROOT
ATOM      1  N   UNL     1      -0.055  15.310  19.028  0.00  0.00    -0.354 N 
ATOM      2  N   UNL     1      -0.373  17.423  18.133  0.00  0.00    -0.372 N 
ATOM      3  N   UNL     1      -0.801  17.087  20.362  0.00  0.00    -0.372 N 
ATOM      4  C   UNL     1      -0.408  16.593  19.183  0.00  0.00    +0.166 C 
ATOM      5  H   UNL     1       0.204  14.991  18.102  0.00  0.00    +0.163 HD
ATOM      6  H   UNL     1      -0.630  18.397  18.220  0.00  0.00    +0.159 HD
ATOM      7  H   UNL     1      -0.069  17.111  17.218  0.00  0.00    +0.159 HD
ATOM      8  H   UNL     1      -0.855  16.512  21.192  0.00  0.00    +0.159 HD
ATOM      9  H   UNL     1      -1.074  18.057  20.466  0.00  0.00    +0.159 HD
ENDROOT
BRANCH   1  10
ATOM     10  C   UNL     1      -0.008  14.338  20.119  0.00  0.00    +0.151 C 
BRANCH  10  11
ATOM     11  C   UNL     1      -0.765  13.105  19.711  0.00  0.00    -0.028 A 
ATOM     12  C   UNL     1      -1.131  12.145  20.666  0.00  0.00    +0.005 A 
ATOM     13  C   UNL     1      -1.126  12.893  18.371  0.00  0.00    +0.005 A 
ATOM     14  C   UNL     1      -1.860  11.014  20.293  0.00  0.00    +0.000 A 
ATOM     15  C   UNL     1      -1.853  11.762  18.002  0.00  0.00    +0.000 A 
ATOM     16  C   UNL     1      -2.223  10.824  18.963  0.00  0.00    +0.000 A 
ENDBRANCH  10  11
ENDBRANCH   1  10
TORSDOF 2
ENDMDL
MODEL 9
REMARK VINA RESULT:    -4.697     34.161     35.712
REMARK INTER + INTRA:          -5.376
REMARK INTER:                  -5.208
REMARK INTRA:                  -0.169
REMARK UNBOUND:                -0.130
REMARK  Name = 1550473
REMARK  2 active torsions:
REMARK  status: ('A' for Active; 'I' for Inactive)
REMARK    1  A    between atoms: N_1  and  C_4
REMARK    2  A    between atoms: C_4  and  C_5
REMARK                            x       y       z     vdW  Elec       q    Type
REMARK                         _______ _______ _______ _____ _____    ______ ____
ROOT
ATOM      1  N   UNL     1      -9.143  -4.687  19.820  0.00  0.00    -0.354 N 
ATOM      2  N   UNL     1      -9.133  -4.653  22.136  0.00  0.00    -0.372 N 
ATOM      3  N   UNL     1      -7.601  -5.962  21.039  0.00  0.00    -0.372 N 
ATOM      4  C   UNL     1      -8.624  -5.103  20.983  0.00  0.00    +0.166 C 
ATOM      5  H   UNL     1      -9.938  -4.058  19.846  0.00  0.00    +0.163 HD
ATOM      6  H   UNL     1      -8.759  -4.946  23.029  0.00  0.00    +0.159 HD
ATOM      7  H   UNL     1      -9.897  -3.989  22.158  0.00  0.00    +0.159 HD
ATOM      8  H   UNL     1      -7.175  -6.343  20.205  0.00  0.00    +0.159 HD
ATOM      9  H   UNL     1      -7.221  -6.277  21.923  0.00  0.00    +0.159 HD
ENDROOT
BRANCH   1  10
ATOM     10  C   UNL     1      -8.627  -5.074  18.509  0.00  0.00    +0.151 C 
BRANCH  10  11
ATOM     11  C   UNL     1      -9.600  -6.018  17.857  0.00  0.00    -0.028 A 
ATOM     12  C   UNL     1      -9.627  -7.373  18.216  0.00  0.00    +0.005 A 
ATOM     13  C   UNL     1     -10.503  -5.561  16.884  0.00  0.00    +0.005 A 
ATOM     14  C   UNL     1     -10.551  -8.244  17.633  0.00  0.00    +0.000 A 
ATOM     15  C   UNL     1     -11.423  -6.434  16.304  0.00  0.00    +0.000 A 
ATOM     16  C   UNL     1     -11.449  -7.774  16.680  0.00  0.00    +0.000 A 
ENDBRANCH  10  11
ENDBRANCH   1  10
TORSDOF 2
ENDMDL
