MODEL 1
REMARK VINA RESULT:    -5.595      0.000      0.000
REMARK INTER + INTRA:          -6.348
REMARK INTER:                  -6.249
REMARK INTRA:                  -0.099
REMARK UNBOUND:                -0.099
REMARK  Name = 1550473
REMARK  2 active torsions:
REMARK  status: ('A' for Active; 'I' for Inactive)
REMARK    1  A    between atoms: N_1  and  C_4
REMARK    2  A    between atoms: C_4  and  C_5
REMARK                            x       y       z     vdW  Elec       q    Type
REMARK                         _______ _______ _______ _____ _____    ______ ____
ROOT
ATOM      1  N   UNL     1      -7.513   4.480  21.269  0.00  0.00    -0.354 N 
ATOM      2  N   UNL     1      -8.133   2.512  20.216  0.00  0.00    -0.372 N 
ATOM      3  N   UNL     1      -6.282   2.509  21.571  0.00  0.00    -0.372 N 
ATOM      4  C   UNL     1      -7.303   3.179  21.027  0.00  0.00    +0.166 C 
ATOM      5  H   UNL     1      -8.288   4.937  20.801  0.00  0.00    +0.163 HD
ATOM      6  H   UNL     1      -8.002   1.529  20.018  0.00  0.00    +0.159 HD
ATOM      7  H   UNL     1      -8.933   2.961  19.787  0.00  0.00    +0.159 HD
ATOM      8  H   UNL     1      -5.616   2.956  22.187  0.00  0.00    +0.159 HD
ATOM      9  H   UNL     1      -6.127   1.528  21.375  0.00  0.00    +0.159 HD
ENDROOT
BRANCH   1  10
ATOM     10  C   UNL     1      -6.700   5.284  22.178  0.00  0.00    +0.151 C 
BRANCH  10  11
ATOM     11  C   UNL     1      -5.865   6.242  21.374  0.00  0.00    -0.028 A 
ATOM     12  C   UNL     1      -5.033   5.773  20.346  0.00  0.00    +0.005 A 
ATOM     13  C   UNL     1      -5.906   7.622  21.629  0.00  0.00    +0.005 A 
ATOM     14  C   UNL     1      -4.281   6.665  19.579  0.00  0.00    +0.000 A 
ATOM     15  C   UNL     1      -5.153   8.509  20.861  0.00  0.00    +0.000 A 
ATOM     16  C   UNL     1      -4.342   8.031  19.835  0.00  0.00    +0.000 A 
ENDBRANCH  10  11
ENDBRANCH   1  10
TORSDOF 2
ENDMDL
MODEL 2
REMARK VINA RESULT:    -5.206     12.022     13.839
REMARK INTER + INTRA:          -5.914
REMARK INTER:                  -5.792
REMARK INTRA:                  -0.122
REMARK UNBOUND:                -0.099
REMARK  Name = 1550473
REMARK  2 active torsions:
REMARK  status: ('A' for Active; 'I' for Inactive)
REMARK    1  A    between atoms: N_1  and  C_4
REMARK    2  A    between atoms: C_4  and  C_5
REMARK                            x       y       z     vdW  Elec       q    Type
REMARK                         _______ _______ _______ _____ _____    ______ ____
ROOT
ATOM      1  N   UNL     1      -3.994  17.809  18.563  0.00  0.00    -0.354 N 
ATOM      2  N   UNL     1      -5.530  16.225  19.268  0.00  0.00    -0.372 N 
ATOM      3  N   UNL     1      -6.284  18.079  18.145  0.00  0.00    -0.372 N 
ATOM      4  C   UNL     1      -5.261  17.383  18.653  0.00  0.00    +0.166 C 
ATOM      5  H   UNL     1      -3.267  17.250  18.995  0.00  0.00    +0.163 HD
ATOM      6  H   UNL     1      -6.476  15.877  19.348  0.00  0.00    +0.159 HD
ATOM      7  H   UNL     1      -4.797  15.646  19.659  0.00  0.00    +0.159 HD
ATOM      8  H   UNL     1      -6.148  18.963  17.674  0.00  0.00    +0.159 HD
ATOM      9  H   UNL     1      -7.239  17.752  18.225  0.00  0.00    +0.159 HD
ENDROOT
BRANCH   1  10
ATOM     10  C   UNL     1      -3.588  19.028  17.867  0.00  0.00    +0.151 C 
BRANCH  10  11
ATOM     11  C   UNL     1      -2.095  19.020  17.691  0.00  0.00    -0.028 A 
ATOM     12  C   UNL     1      -1.295  18.140  18.435  0.00  0.00    +0.005 A 
ATOM     13  C   UNL     1      -1.474  19.886  16.778  0.00  0.00    +0.005 A 
ATOM     14  C   UNL     1       0.089  18.111  18.250  0.00  0.00    +0.000 A 
ATOM     15  C   UNL     1      -0.091  19.855  16.597  0.00  0.00    +0.000 A 
ATOM     16  C   UNL     1       0.690  18.965  17.331  0.00  0.00    +0.000 A 
ENDBRANCH  10  11
ENDBRANCH   1  10
TORSDOF 2
ENDMDL
MODEL 3
REMARK VINA RESULT:    -5.037     37.231     38.530
REMARK INTER + INTRA:          -5.725
REMARK INTER:                  -5.583
REMARK INTRA:                  -0.142
REMARK UNBOUND:                -0.099
REMARK  Name = 1550473
REMARK  2 active torsions:
REMARK  status: ('A' for Active; 'I' for Inactive)
REMARK    1  A    between atoms: N_1  and  C_4
REMARK    2  A    between atoms: C_4  and  C_5
REMARK                            x       y       z     vdW  Elec       q    Type
REMARK                         _______ _______ _______ _____ _____    ______ ____
ROOT
ATOM      1  N   UNL     1      12.519  -0.069 -13.153  0.00  0.00    -0.354 N 
ATOM      2  N   UNL     1      12.518  -1.191 -15.179  0.00  0.00    -0.372 N 
ATOM      3  N   UNL     1      14.522  -0.532 -14.277  0.00  0.00    -0.372 N 
ATOM      4  C   UNL     1      13.189  -0.589 -14.189  0.00  0.00    +0.166 C 
ATOM      5  H   UNL     1      11.507  -0.118 -13.160  0.00  0.00    +0.163 HD
ATOM      6  H   UNL     1      12.996  -1.596 -15.972  0.00  0.00    +0.159 HD
ATOM      7  H   UNL     1      11.509  -1.280 -15.161  0.00  0.00    +0.159 HD
ATOM      8  H   UNL     1      15.087  -0.086 -13.567  0.00  0.00    +0.159 HD
ATOM      9  H   UNL     1      15.018  -0.921 -15.069  0.00  0.00    +0.159 HD
ENDROOT
BRANCH   1  10
ATOM     10  C   UNL     1      13.158   0.560 -11.998  0.00  0.00    +0.151 C 
BRANCH  10  11
ATOM     11  C   UNL     1      12.509   1.892 -11.742  0.00  0.00    -0.028 A 
ATOM     12  C   UNL     1      12.806   2.616 -10.578  0.00  0.00    +0.005 A 
ATOM     13  C   UNL     1      11.602   2.438 -12.662  0.00  0.00    +0.005 A 
ATOM     14  C   UNL     1      12.226   3.867 -10.354  0.00  0.00    +0.000 A 
ATOM     15  C   UNL     1      11.024   3.687 -12.435  0.00  0.00    +0.000 A 
ATOM     16  C   UNL     1      11.338   4.403 -11.282  0.00  0.00    +0.000 A 
ENDBRANCH  10  11
ENDBRANCH   1  10
TORSDOF 2
ENDMDL
MODEL 4
REMARK VINA RESULT:    -4.992     37.545     38.799
REMARK INTER + INTRA:          -5.675
REMARK INTER:                  -5.550
REMARK INTRA:                  -0.126
REMARK UNBOUND:                -0.099
REMARK  Name = 1550473
REMARK  2 active torsions:
REMARK  status: ('A' for Active; 'I' for Inactive)
REMARK    1  A    between atoms: N_1  and  C_4
REMARK    2  A    between atoms: C_4  and  C_5
REMARK                            x       y       z     vdW  Elec       q    Type
REMARK                         _______ _______ _______ _____ _____    ______ ____
ROOT
ATOM      1  N   UNL     1      11.759   0.425 -14.515  0.00  0.00    -0.354 N 
ATOM      2  N   UNL     1      10.861  -0.394 -16.487  0.00  0.00    -0.372 N 
ATOM      3  N   UNL     1      11.827  -1.864 -15.013  0.00  0.00    -0.372 N 
ATOM      4  C   UNL     1      11.489  -0.608 -15.324  0.00  0.00    +0.166 C 
ATOM      5  H   UNL     1      11.504   1.356 -14.822  0.00  0.00    +0.163 HD
ATOM      6  H   UNL     1      10.641  -1.154 -17.116  0.00  0.00    +0.159 HD
ATOM      7  H   UNL     1      10.566   0.532 -16.770  0.00  0.00    +0.159 HD
ATOM      8  H   UNL     1      12.308  -2.092 -14.153  0.00  0.00    +0.159 HD
ATOM      9  H   UNL     1      11.626  -2.637 -15.635  0.00  0.00    +0.159 HD
ENDROOT
BRANCH   1  10
ATOM     10  C   UNL     1      12.390   0.293 -13.203  0.00  0.00    +0.151 C 
BRANCH  10  11
ATOM     11  C   UNL     1      12.203   1.573 -12.437  0.00  0.00    -0.028 A 
ATOM     12  C   UNL     1      11.447   2.623 -12.978  0.00  0.00    +0.005 A 
ATOM     13  C   UNL     1      12.775   1.740 -11.166  0.00  0.00    +0.005 A 
ATOM     14  C   UNL     1      11.248   3.801 -12.254  0.00  0.00    +0.000 A 
ATOM     15  C   UNL     1      12.575   2.918 -10.447  0.00  0.00    +0.000 A 
ATOM     16  C   UNL     1      11.809   3.947 -10.990  0.00  0.00    +0.000 A 
ENDBRANCH  10  11
ENDBRANCH   1  10
TORSDOF 2
ENDMDL
MODEL 5
REMARK VINA RESULT:    -4.882     29.058     29.994
REMARK INTER + INTRA:          -5.552
REMARK INTER:                  -5.414
REMARK INTRA:                  -0.138
REMARK UNBOUND:                -0.099
REMARK  Name = 1550473
REMARK  2 active torsions:
REMARK  status: ('A' for Active; 'I' for Inactive)
REMARK    1  A    between atoms: N_1  and  C_4
REMARK    2  A    between atoms: C_4  and  C_5
REMARK                            x       y       z     vdW  Elec       q    Type
REMARK                         _______ _______ _______ _____ _____    ______ ____
ROOT
ATOM      1  N   UNL     1     -12.830   8.319  -6.734  0.00  0.00    -0.354 N 
ATOM      2  N   UNL     1     -12.304   8.732  -4.516  0.00  0.00    -0.372 N 
ATOM      3  N   UNL     1     -12.755   6.578  -5.166  0.00  0.00    -0.372 N 
ATOM      4  C   UNL     1     -12.634   7.871  -5.486  0.00  0.00    +0.166 C 
ATOM      5  H   UNL     1     -12.753   9.315  -6.905  0.00  0.00    +0.163 HD
ATOM      6  H   UNL     1     -12.147   8.423  -3.566  0.00  0.00    +0.159 HD
ATOM      7  H   UNL     1     -12.183   9.720  -4.700  0.00  0.00    +0.159 HD
ATOM      8  H   UNL     1     -13.007   5.878  -5.851  0.00  0.00    +0.159 HD
ATOM      9  H   UNL     1     -12.612   6.251  -4.219  0.00  0.00    +0.159 HD
ENDROOT
BRANCH   1  10
ATOM     10  C   UNL     1     -13.139   7.456  -7.873  0.00  0.00    +0.151 C 
BRANCH  10  11
ATOM     11  C   UNL     1     -12.260   7.839  -9.032  0.00  0.00    -0.028 A 
ATOM     12  C   UNL     1     -10.914   8.173  -8.824  0.00  0.00    +0.005 A 
ATOM     13  C   UNL     1     -12.766   7.865 -10.340  0.00  0.00    +0.005 A 
ATOM     14  C   UNL     1     -10.089   8.499  -9.903  0.00  0.00    +0.000 A 
ATOM     15  C   UNL     1     -11.940   8.193 -11.415  0.00  0.00    +0.000 A 
ATOM     16  C   UNL     1     -10.601   8.507 -11.197  0.00  0.00    +0.000 A 
ENDBRANCH  10  11
ENDBRANCH   1  10
TORSDOF 2
ENDMDL
MODEL 6
REMARK VINA RESULT:    -4.730     13.560     14.908
REMARK INTER + INTRA:          -5.383
REMARK INTER:                  -5.212
REMARK INTRA:                  -0.171
REMARK UNBOUND:                -0.099
REMARK  Name = 1550473
REMARK  2 active torsions:
REMARK  status: ('A' for Active; 'I' for Inactive)
REMARK    1  A    between atoms: N_1  and  C_4
REMARK    2  A    between atoms: C_4  and  C_5
REMARK                            x       y       z     vdW  Elec       q    Type
REMARK                         _______ _______ _______ _____ _____    ______ ____
ROOT
ATOM      1  N   UNL     1      -2.643  18.254  18.105  0.00  0.00    -0.354 N 
ATOM      2  N   UNL     1      -4.828  19.002  17.924  0.00  0.00    -0.372 N 
ATOM      3  N   UNL     1      -3.934  18.682  20.013  0.00  0.00    -0.372 N 
ATOM      4  C   UNL     1      -3.787  18.641  18.685  0.00  0.00    +0.166 C 
ATOM      5  H   UNL     1      -2.606  18.216  17.093  0.00  0.00    +0.163 HD
ATOM      6  H   UNL     1      -5.702  19.302  18.333  0.00  0.00    +0.159 HD
ATOM      7  H   UNL     1      -4.772  19.007  16.913  0.00  0.00    +0.159 HD
ATOM      8  H   UNL     1      -3.189  18.416  20.643  0.00  0.00    +0.159 HD
ATOM      9  H   UNL     1      -4.806  18.968  20.442  0.00  0.00    +0.159 HD
ENDROOT
BRANCH   1  10
ATOM     10  C   UNL     1      -1.434  17.892  18.843  0.00  0.00    +0.151 C 
BRANCH  10  11
ATOM     11  C   UNL     1      -0.390  18.952  18.624  0.00  0.00    -0.028 A 
ATOM     12  C   UNL     1       0.543  18.828  17.584  0.00  0.00    +0.005 A 
ATOM     13  C   UNL     1      -0.331  20.084  19.450  0.00  0.00    +0.005 A 
ATOM     14  C   UNL     1       1.494  19.827  17.362  0.00  0.00    +0.000 A 
ATOM     15  C   UNL     1       0.621  21.079  19.226  0.00  0.00    +0.000 A 
ATOM     16  C   UNL     1       1.531  20.951  18.180  0.00  0.00    +0.000 A 
ENDBRANCH  10  11
ENDBRANCH   1  10
TORSDOF 2
ENDMDL
MODEL 7
REMARK VINA RESULT:    -4.628     28.069     29.206
REMARK INTER + INTRA:          -5.269
REMARK INTER:                  -5.123
REMARK INTRA:                  -0.146
REMARK UNBOUND:                -0.099
REMARK  Name = 1550473
REMARK  2 active torsions:
REMARK  status: ('A' for Active; 'I' for Inactive)
REMARK    1  A    between atoms: N_1  and  C_4
REMARK    2  A    between atoms: C_4  and  C_5
REMARK                            x       y       z     vdW  Elec       q    Type
REMARK                         _______ _______ _______ _____ _____    ______ ____
ROOT
ATOM      1  N   UNL     1      -9.667  -4.702  -4.157  0.00  0.00    -0.354 N 
ATOM      2  N   UNL     1      -8.446  -3.524  -2.580  0.00  0.00    -0.372 N 
ATOM      3  N   UNL     1      -8.111  -5.786  -2.780  0.00  0.00    -0.372 N 
ATOM      4  C   UNL     1      -8.748  -4.681  -3.182  0.00  0.00    +0.166 C 
ATOM      5  H   UNL     1     -10.136  -3.836  -4.395  0.00  0.00    +0.163 HD
ATOM      6  H   UNL     1      -7.754  -3.477  -1.844  0.00  0.00    +0.159 HD
ATOM      7  H   UNL     1      -8.883  -2.652  -2.852  0.00  0.00    +0.159 HD
ATOM      8  H   UNL     1      -8.298  -6.691  -3.189  0.00  0.00    +0.159 HD
ATOM      9  H   UNL     1      -7.424  -5.760  -2.036  0.00  0.00    +0.159 HD
ENDROOT
BRANCH   1  10
ATOM     10  C   UNL     1     -10.031  -5.900  -4.912  0.00  0.00    +0.151 C 
BRANCH  10  11
ATOM     11  C   UNL     1      -9.839  -5.632  -6.379  0.00  0.00    -0.028 A 
ATOM     12  C   UNL     1     -10.945  -5.430  -7.217  0.00  0.00    +0.005 A 
ATOM     13  C   UNL     1      -8.552  -5.574  -6.937  0.00  0.00    +0.005 A 
ATOM     14  C   UNL     1     -10.766  -5.152  -8.574  0.00  0.00    +0.000 A 
ATOM     15  C   UNL     1      -8.378  -5.297  -8.293  0.00  0.00    +0.000 A 
ATOM     16  C   UNL     1      -9.485  -5.083  -9.110  0.00  0.00    +0.000 A 
ENDBRANCH  10  11
ENDBRANCH   1  10
TORSDOF 2
ENDMDL
MODEL 8
REMARK VINA RESULT:    -4.618     25.618     27.131
REMARK INTER + INTRA:          -5.257
REMARK INTER:                  -5.117
REMARK INTRA:                  -0.140
REMARK UNBOUND:                -0.099
REMARK  Name = 1550473
REMARK  2 active torsions:
REMARK  status: ('A' for Active; 'I' for Inactive)
REMARK    1  A    between atoms: N_1  and  C_4
REMARK    2  A    between atoms: C_4  and  C_5
REMARK                            x       y       z     vdW  Elec       q    Type
REMARK                         _______ _______ _______ _____ _____    ______ ____
ROOT
ATOM      1  N   UNL     1      -9.396  -4.191  -2.954  0.00  0.00    -0.354 N 
ATOM      2  N   UNL     1      -7.688  -3.117  -1.817  0.00  0.00    -0.372 N 
ATOM      3  N   UNL     1      -7.162  -4.431  -3.623  0.00  0.00    -0.372 N 
ATOM      4  C   UNL     1      -8.092  -3.922  -2.807  0.00  0.00    +0.166 C 
ATOM      5  H   UNL     1     -10.047  -3.798  -2.285  0.00  0.00    +0.163 HD
ATOM      6  H   UNL     1      -6.711  -2.893  -1.683  0.00  0.00    +0.159 HD
ATOM      7  H   UNL     1      -8.346  -2.689  -1.177  0.00  0.00    +0.159 HD
ATOM      8  H   UNL     1      -7.401  -5.050  -4.386  0.00  0.00    +0.159 HD
ATOM      9  H   UNL     1      -6.178  -4.228  -3.498  0.00  0.00    +0.159 HD
ENDROOT
BRANCH   1  10
ATOM     10  C   UNL     1      -9.944  -5.012  -4.033  0.00  0.00    +0.151 C 
BRANCH  10  11
ATOM     11  C   UNL     1     -10.929  -5.990  -3.454  0.00  0.00    -0.028 A 
ATOM     12  C   UNL     1     -10.733  -6.522  -2.171  0.00  0.00    +0.005 A 
ATOM     13  C   UNL     1     -12.063  -6.384  -4.180  0.00  0.00    +0.005 A 
ATOM     14  C   UNL     1     -11.663  -7.407  -1.620  0.00  0.00    +0.000 A 
ATOM     15  C   UNL     1     -12.989  -7.268  -3.627  0.00  0.00    +0.000 A 
ATOM     16  C   UNL     1     -12.790  -7.778  -2.347  0.00  0.00    +0.000 A 
ENDBRANCH  10  11
ENDBRANCH   1  10
TORSDOF 2
ENDMDL
MODEL 9
REMARK VINA RESULT:    -4.578     22.567     24.022
REMARK INTER + INTRA:          -5.213
REMARK INTER:                  -5.074
REMARK INTRA:                  -0.139
REMARK UNBOUND:                -0.099
REMARK  Name = 1550473
REMARK  2 active torsions:
REMARK  status: ('A' for Active; 'I' for Inactive)
REMARK    1  A    between atoms: N_1  and  C_4
REMARK    2  A    between atoms: C_4  and  C_5
REMARK                            x       y       z     vdW  Elec       q    Type
REMARK                         _______ _______ _______ _____ _____    ______ ____
ROOT
ATOM      1  N   UNL     1      13.390  11.835   6.386  0.00  0.00    -0.354 N 
ATOM      2  N   UNL     1      15.225  11.304   5.077  0.00  0.00    -0.372 N 
ATOM      3  N   UNL     1      14.687   9.937   6.840  0.00  0.00    -0.372 N 
ATOM      4  C   UNL     1      14.422  11.027   6.111  0.00  0.00    +0.166 C 
ATOM      5  H   UNL     1      13.261  12.662   5.814  0.00  0.00    +0.163 HD
ATOM      6  H   UNL     1      16.010  10.710   4.843  0.00  0.00    +0.159 HD
ATOM      7  H   UNL     1      15.066  12.106   4.479  0.00  0.00    +0.159 HD
ATOM      8  H   UNL     1      14.123   9.676   7.637  0.00  0.00    +0.159 HD
ATOM      9  H   UNL     1      15.475   9.337   6.629  0.00  0.00    +0.159 HD
ENDROOT
BRANCH   1  10
ATOM     10  C   UNL     1      12.425  11.593   7.457  0.00  0.00    +0.151 C 
BRANCH  10  11
ATOM     11  C   UNL     1      11.041  11.890   6.948  0.00  0.00    -0.028 A 
ATOM     12  C   UNL     1      10.845  12.309   5.624  0.00  0.00    +0.005 A 
ATOM     13  C   UNL     1       9.922  11.748   7.782  0.00  0.00    +0.005 A 
ATOM     14  C   UNL     1       9.557  12.556   5.141  0.00  0.00    +0.000 A 
ATOM     15  C   UNL     1       8.638  11.995   7.297  0.00  0.00    +0.000 A 
ATOM     16  C   UNL     1       8.456  12.397   5.976  0.00  0.00    +0.000 A 
ENDBRANCH  10  11
ENDBRANCH   1  10
TORSDOF 2
ENDMDL
