MODEL 1
REMARK VINA RESULT:    -5.213      0.000      0.000
REMARK INTER + INTRA:          -5.989
REMARK INTER:                  -5.822
REMARK INTRA:                  -0.167
REMARK UNBOUND:                -0.167
REMARK  Name = 1550473
REMARK  2 active torsions:
REMARK  status: ('A' for Active; 'I' for Inactive)
REMARK    1  A    between atoms: N_1  and  C_4
REMARK    2  A    between atoms: C_4  and  C_5
REMARK                            x       y       z     vdW  Elec       q    Type
REMARK                         _______ _______ _______ _____ _____    ______ ____
ROOT
ATOM      1  N   UNL     1      -6.127   6.109  -6.544  0.00  0.00    -0.354 N 
ATOM      2  N   UNL     1      -6.184   3.798  -6.404  0.00  0.00    -0.372 N 
ATOM      3  N   UNL     1      -7.427   4.842  -8.026  0.00  0.00    -0.372 N 
ATOM      4  C   UNL     1      -6.581   4.932  -6.994  0.00  0.00    +0.166 C 
ATOM      5  H   UNL     1      -5.511   6.111  -5.738  0.00  0.00    +0.163 HD
ATOM      6  H   UNL     1      -6.507   2.895  -6.725  0.00  0.00    +0.159 HD
ATOM      7  H   UNL     1      -5.532   3.800  -5.629  0.00  0.00    +0.159 HD
ATOM      8  H   UNL     1      -7.769   5.661  -8.511  0.00  0.00    +0.159 HD
ATOM      9  H   UNL     1      -7.770   3.948  -8.354  0.00  0.00    +0.159 HD
ENDROOT
BRANCH   1  10
ATOM     10  C   UNL     1      -6.456   7.398  -7.149  0.00  0.00    +0.151 C 
BRANCH  10  11
ATOM     11  C   UNL     1      -7.595   8.022  -6.391  0.00  0.00    -0.028 A 
ATOM     12  C   UNL     1      -7.583   8.054  -4.989  0.00  0.00    +0.005 A 
ATOM     13  C   UNL     1      -8.686   8.586  -7.068  0.00  0.00    +0.005 A 
ATOM     14  C   UNL     1      -8.626   8.660  -4.284  0.00  0.00    +0.000 A 
ATOM     15  C   UNL     1      -9.726   9.189  -6.361  0.00  0.00    +0.000 A 
ATOM     16  C   UNL     1      -9.695   9.228  -4.970  0.00  0.00    +0.000 A 
ENDBRANCH  10  11
ENDBRANCH   1  10
TORSDOF 2
ENDMDL
MODEL 2
REMARK VINA RESULT:    -4.874     14.165     16.135
REMARK INTER + INTRA:          -5.611
REMARK INTER:                  -5.508
REMARK INTRA:                  -0.103
REMARK UNBOUND:                -0.167
REMARK  Name = 1550473
REMARK  2 active torsions:
REMARK  status: ('A' for Active; 'I' for Inactive)
REMARK    1  A    between atoms: N_1  and  C_4
REMARK    2  A    between atoms: C_4  and  C_5
REMARK                            x       y       z     vdW  Elec       q    Type
REMARK                         _______ _______ _______ _____ _____    ______ ____
ROOT
ATOM      1  N   UNL     1      -8.615 -10.097  -8.201  0.00  0.00    -0.354 N 
ATOM      2  N   UNL     1      -7.037 -11.678  -8.812  0.00  0.00    -0.372 N 
ATOM      3  N   UNL     1      -9.224 -12.329  -8.574  0.00  0.00    -0.372 N 
ATOM      4  C   UNL     1      -8.305 -11.359  -8.525  0.00  0.00    +0.166 C 
ATOM      5  H   UNL     1      -7.867  -9.415  -8.152  0.00  0.00    +0.163 HD
ATOM      6  H   UNL     1      -6.773 -12.621  -9.063  0.00  0.00    +0.159 HD
ATOM      7  H   UNL     1      -6.299 -10.984  -8.807  0.00  0.00    +0.159 HD
ATOM      8  H   UNL     1     -10.198 -12.155  -8.362  0.00  0.00    +0.159 HD
ATOM      9  H   UNL     1      -8.978 -13.281  -8.812  0.00  0.00    +0.159 HD
ENDROOT
BRANCH   1  10
ATOM     10  C   UNL     1      -9.974  -9.634  -7.923  0.00  0.00    +0.151 C 
BRANCH  10  11
ATOM     11  C   UNL     1      -9.938  -8.164  -7.608  0.00  0.00    -0.028 A 
ATOM     12  C   UNL     1      -9.357  -7.258  -8.507  0.00  0.00    +0.005 A 
ATOM     13  C   UNL     1     -10.488  -7.671  -6.415  0.00  0.00    +0.005 A 
ATOM     14  C   UNL     1      -9.350  -5.889  -8.229  0.00  0.00    +0.000 A 
ATOM     15  C   UNL     1     -10.478  -6.303  -6.141  0.00  0.00    +0.000 A 
ATOM     16  C   UNL     1      -9.911  -5.412  -7.049  0.00  0.00    +0.000 A 
ENDBRANCH  10  11
ENDBRANCH   1  10
TORSDOF 2
ENDMDL
MODEL 3
REMARK VINA RESULT:    -4.833     13.290     14.594
REMARK INTER + INTRA:          -5.565
REMARK INTER:                  -5.396
REMARK INTRA:                  -0.169
REMARK UNBOUND:                -0.167
REMARK  Name = 1550473
REMARK  2 active torsions:
REMARK  status: ('A' for Active; 'I' for Inactive)
REMARK    1  A    between atoms: N_1  and  C_4
REMARK    2  A    between atoms: C_4  and  C_5
REMARK                            x       y       z     vdW  Elec       q    Type
REMARK                         _______ _______ _______ _____ _____    ______ ____
ROOT
ATOM      1  N   UNL     1      -8.485  -8.419  -7.168  0.00  0.00    -0.354 N 
ATOM      2  N   UNL     1      -8.588 -10.374  -8.405  0.00  0.00    -0.372 N 
ATOM      3  N   UNL     1     -10.240  -9.943  -6.873  0.00  0.00    -0.372 N 
ATOM      4  C   UNL     1      -9.106  -9.566  -7.472  0.00  0.00    +0.166 C 
ATOM      5  H   UNL     1      -7.612  -8.204  -7.636  0.00  0.00    +0.163 HD
ATOM      6  H   UNL     1      -9.035 -11.244  -8.659  0.00  0.00    +0.159 HD
ATOM      7  H   UNL     1      -7.740 -10.135  -8.905  0.00  0.00    +0.159 HD
ATOM      8  H   UNL     1     -10.680  -9.381  -6.156  0.00  0.00    +0.159 HD
ATOM      9  H   UNL     1     -10.697 -10.816  -7.104  0.00  0.00    +0.159 HD
ENDROOT
BRANCH   1  10
ATOM     10  C   UNL     1      -8.995  -7.444  -6.205  0.00  0.00    +0.151 C 
BRANCH  10  11
ATOM     11  C   UNL     1      -9.805  -6.409  -6.936  0.00  0.00    -0.028 A 
ATOM     12  C   UNL     1     -11.074  -6.036  -6.468  0.00  0.00    +0.005 A 
ATOM     13  C   UNL     1      -9.307  -5.793  -8.095  0.00  0.00    +0.005 A 
ATOM     14  C   UNL     1     -11.814  -5.054  -7.130  0.00  0.00    +0.000 A 
ATOM     15  C   UNL     1     -10.050  -4.813  -8.753  0.00  0.00    +0.000 A 
ATOM     16  C   UNL     1     -11.302  -4.442  -8.269  0.00  0.00    +0.000 A 
ENDBRANCH  10  11
ENDBRANCH   1  10
TORSDOF 2
ENDMDL
MODEL 4
REMARK VINA RESULT:    -4.760      2.092      3.095
REMARK INTER + INTRA:          -5.484
REMARK INTER:                  -5.360
REMARK INTRA:                  -0.124
REMARK UNBOUND:                -0.167
REMARK  Name = 1550473
REMARK  2 active torsions:
REMARK  status: ('A' for Active; 'I' for Inactive)
REMARK    1  A    between atoms: N_1  and  C_4
REMARK    2  A    between atoms: C_4  and  C_5
REMARK                            x       y       z     vdW  Elec       q    Type
REMARK                         _______ _______ _______ _____ _____    ______ ____
ROOT
ATOM      1  N   UNL     1      -6.053   7.590  -8.053  0.00  0.00    -0.354 N 
ATOM      2  N   UNL     1      -5.062   7.976 -10.111  0.00  0.00    -0.372 N 
ATOM      3  N   UNL     1      -3.911   8.528  -8.204  0.00  0.00    -0.372 N 
ATOM      4  C   UNL     1      -5.013   8.030  -8.774  0.00  0.00    +0.166 C 
ATOM      5  H   UNL     1      -6.872   7.252  -8.546  0.00  0.00    +0.163 HD
ATOM      6  H   UNL     1      -4.292   8.298 -10.681  0.00  0.00    +0.159 HD
ATOM      7  H   UNL     1      -5.863   7.595 -10.600  0.00  0.00    +0.159 HD
ATOM      8  H   UNL     1      -3.814   8.602  -7.200  0.00  0.00    +0.159 HD
ATOM      9  H   UNL     1      -3.134   8.866  -8.758  0.00  0.00    +0.159 HD
ENDROOT
BRANCH   1  10
ATOM     10  C   UNL     1      -6.079   7.555  -6.592  0.00  0.00    +0.151 C 
BRANCH  10  11
ATOM     11  C   UNL     1      -7.500   7.696  -6.122  0.00  0.00    -0.028 A 
ATOM     12  C   UNL     1      -8.567   7.364  -6.970  0.00  0.00    +0.005 A 
ATOM     13  C   UNL     1      -7.787   8.157  -4.828  0.00  0.00    +0.005 A 
ATOM     14  C   UNL     1      -9.887   7.466  -6.524  0.00  0.00    +0.000 A 
ATOM     15  C   UNL     1      -9.106   8.259  -4.387  0.00  0.00    +0.000 A 
ATOM     16  C   UNL     1     -10.156   7.911  -5.234  0.00  0.00    +0.000 A 
ENDBRANCH  10  11
ENDBRANCH   1  10
TORSDOF 2
ENDMDL
MODEL 5
REMARK VINA RESULT:    -4.722     12.562     13.578
REMARK INTER + INTRA:          -5.441
REMARK INTER:                  -5.314
REMARK INTRA:                  -0.127
REMARK UNBOUND:                -0.167
REMARK  Name = 1550473
REMARK  2 active torsions:
REMARK  status: ('A' for Active; 'I' for Inactive)
REMARK    1  A    between atoms: N_1  and  C_4
REMARK    2  A    between atoms: C_4  and  C_5
REMARK                            x       y       z     vdW  Elec       q    Type
REMARK                         _______ _______ _______ _____ _____    ______ ____
ROOT
ATOM      1  N   UNL     1     -11.827  -4.089  -9.229  0.00  0.00    -0.354 N 
ATOM      2  N   UNL     1     -13.908  -3.849 -10.217  0.00  0.00    -0.372 N 
ATOM      3  N   UNL     1     -12.104  -4.356 -11.541  0.00  0.00    -0.372 N 
ATOM      4  C   UNL     1     -12.597  -4.100 -10.325  0.00  0.00    +0.166 C 
ATOM      5  H   UNL     1     -12.256  -3.858  -8.341  0.00  0.00    +0.163 HD
ATOM      6  H   UNL     1     -14.515  -3.854 -11.026  0.00  0.00    +0.159 HD
ATOM      7  H   UNL     1     -14.343  -3.664  -9.321  0.00  0.00    +0.159 HD
ATOM      8  H   UNL     1     -11.122  -4.547 -11.691  0.00  0.00    +0.159 HD
ATOM      9  H   UNL     1     -12.693  -4.353 -12.364  0.00  0.00    +0.159 HD
ENDROOT
BRANCH   1  10
ATOM     10  C   UNL     1     -10.399  -4.402  -9.231  0.00  0.00    +0.151 C 
BRANCH  10  11
ATOM     11  C   UNL     1     -10.087  -5.282  -8.052  0.00  0.00    -0.028 A 
ATOM     12  C   UNL     1     -10.803  -5.146  -6.853  0.00  0.00    +0.005 A 
ATOM     13  C   UNL     1      -9.081  -6.257  -8.129  0.00  0.00    +0.005 A 
ATOM     14  C   UNL     1     -10.534  -5.983  -5.768  0.00  0.00    +0.000 A 
ATOM     15  C   UNL     1      -8.815  -7.091  -7.042  0.00  0.00    +0.000 A 
ATOM     16  C   UNL     1      -9.544  -6.955  -5.863  0.00  0.00    +0.000 A 
ENDBRANCH  10  11
ENDBRANCH   1  10
TORSDOF 2
ENDMDL
MODEL 6
REMARK VINA RESULT:    -4.634     13.786     15.266
REMARK INTER + INTRA:          -5.343
REMARK INTER:                  -5.234
REMARK INTRA:                  -0.109
REMARK UNBOUND:                -0.167
REMARK  Name = 1550473
REMARK  2 active torsions:
REMARK  status: ('A' for Active; 'I' for Inactive)
REMARK    1  A    between atoms: N_1  and  C_4
REMARK    2  A    between atoms: C_4  and  C_5
REMARK                            x       y       z     vdW  Elec       q    Type
REMARK                         _______ _______ _______ _____ _____    ______ ____
ROOT
ATOM      1  N   UNL     1      -9.115  -9.170  -5.234  0.00  0.00    -0.354 N 
ATOM      2  N   UNL     1      -8.937 -11.465  -4.977  0.00  0.00    -0.372 N 
ATOM      3  N   UNL     1      -9.279 -10.164  -3.118  0.00  0.00    -0.372 N 
ATOM      4  C   UNL     1      -9.112 -10.251  -4.442  0.00  0.00    +0.166 C 
ATOM      5  H   UNL     1      -8.953  -9.300  -6.226  0.00  0.00    +0.163 HD
ATOM      6  H   UNL     1      -8.934 -12.299  -4.405  0.00  0.00    +0.159 HD
ATOM      7  H   UNL     1      -8.821 -11.596  -5.974  0.00  0.00    +0.159 HD
ATOM      8  H   UNL     1      -9.409  -9.277  -2.651  0.00  0.00    +0.159 HD
ATOM      9  H   UNL     1      -9.266 -10.987  -2.527  0.00  0.00    +0.159 HD
ENDROOT
BRANCH   1  10
ATOM     10  C   UNL     1      -9.350  -7.808  -4.758  0.00  0.00    +0.151 C 
BRANCH  10  11
ATOM     11  C   UNL     1      -9.597  -6.911  -5.939  0.00  0.00    -0.028 A 
ATOM     12  C   UNL     1     -10.585  -5.917  -5.883  0.00  0.00    +0.005 A 
ATOM     13  C   UNL     1      -8.844  -7.047  -7.115  0.00  0.00    +0.005 A 
ATOM     14  C   UNL     1     -10.794  -5.063  -6.969  0.00  0.00    +0.000 A 
ATOM     15  C   UNL     1      -9.057  -6.193  -8.197  0.00  0.00    +0.000 A 
ATOM     16  C   UNL     1     -10.030  -5.200  -8.123  0.00  0.00    +0.000 A 
ENDBRANCH  10  11
ENDBRANCH   1  10
TORSDOF 2
ENDMDL
MODEL 7
REMARK VINA RESULT:    -4.416     47.821     48.861
REMARK INTER + INTRA:          -5.100
REMARK INTER:                  -4.966
REMARK INTRA:                  -0.134
REMARK UNBOUND:                -0.167
REMARK  Name = 1550473
REMARK  2 active torsions:
REMARK  status: ('A' for Active; 'I' for Inactive)
REMARK    1  A    between atoms: N_1  and  C_4
REMARK    2  A    between atoms: C_4  and  C_5
REMARK                            x       y       z     vdW  Elec       q    Type
REMARK                         _______ _______ _______ _____ _____    ______ ____
ROOT
ATOM      1  N   UNL     1     -18.427 -21.197  32.791  0.00  0.00    -0.354 N 
ATOM      2  N   UNL     1     -18.292 -19.136  33.838  0.00  0.00    -0.372 N 
ATOM      3  N   UNL     1     -20.361 -20.047  33.445  0.00  0.00    -0.372 N 
ATOM      4  C   UNL     1     -19.030 -20.141  33.351  0.00  0.00    +0.166 C 
ATOM      5  H   UNL     1     -17.415 -21.194  32.723  0.00  0.00    +0.163 HD
ATOM      6  H   UNL     1     -18.719 -18.327  34.270  0.00  0.00    +0.159 HD
ATOM      7  H   UNL     1     -17.280 -19.157  33.811  0.00  0.00    +0.159 HD
ATOM      8  H   UNL     1     -20.975 -20.769  33.091  0.00  0.00    +0.159 HD
ATOM      9  H   UNL     1     -20.807 -19.240  33.863  0.00  0.00    +0.159 HD
ENDROOT
BRANCH   1  10
ATOM     10  C   UNL     1     -19.137 -22.368  32.278  0.00  0.00    +0.151 C 
BRANCH  10  11
ATOM     11  C   UNL     1     -18.669 -22.651  30.877  0.00  0.00    -0.028 A 
ATOM     12  C   UNL     1     -17.332 -22.433  30.515  0.00  0.00    +0.005 A 
ATOM     13  C   UNL     1     -19.558 -23.144  29.909  0.00  0.00    +0.005 A 
ATOM     14  C   UNL     1     -16.891 -22.724  29.222  0.00  0.00    +0.000 A 
ATOM     15  C   UNL     1     -19.114 -23.433  28.619  0.00  0.00    +0.000 A 
ATOM     16  C   UNL     1     -17.780 -23.226  28.277  0.00  0.00    +0.000 A 
ENDBRANCH  10  11
ENDBRANCH   1  10
TORSDOF 2
ENDMDL
MODEL 8
REMARK VINA RESULT:    -4.330     13.618     14.769
REMARK INTER + INTRA:          -5.004
REMARK INTER:                  -4.834
REMARK INTRA:                  -0.170
REMARK UNBOUND:                -0.167
REMARK  Name = 1550473
REMARK  2 active torsions:
REMARK  status: ('A' for Active; 'I' for Inactive)
REMARK    1  A    between atoms: N_1  and  C_4
REMARK    2  A    between atoms: C_4  and  C_5
REMARK                            x       y       z     vdW  Elec       q    Type
REMARK                         _______ _______ _______ _____ _____    ______ ____
ROOT
ATOM      1  N   UNL     1     -11.184  -8.422  -5.280  0.00  0.00    -0.354 N 
ATOM      2  N   UNL     1     -10.910 -10.694  -5.638  0.00  0.00    -0.372 N 
ATOM      3  N   UNL     1      -9.062  -9.411  -5.183  0.00  0.00    -0.372 N 
ATOM      4  C   UNL     1     -10.384  -9.493  -5.364  0.00  0.00    +0.166 C 
ATOM      5  H   UNL     1     -12.175  -8.546  -5.457  0.00  0.00    +0.163 HD
ATOM      6  H   UNL     1     -10.332 -11.521  -5.705  0.00  0.00    +0.159 HD
ATOM      7  H   UNL     1     -11.906 -10.822  -5.769  0.00  0.00    +0.159 HD
ATOM      8  H   UNL     1      -8.603  -8.533  -4.980  0.00  0.00    +0.159 HD
ATOM      9  H   UNL     1      -8.465 -10.226  -5.258  0.00  0.00    +0.159 HD
ENDROOT
BRANCH   1  10
ATOM     10  C   UNL     1     -10.720  -7.080  -4.934  0.00  0.00    +0.151 C 
BRANCH  10  11
ATOM     11  C   UNL     1     -10.635  -6.252  -6.186  0.00  0.00    -0.028 A 
ATOM     12  C   UNL     1      -9.463  -6.244  -6.957  0.00  0.00    +0.005 A 
ATOM     13  C   UNL     1     -11.725  -5.477  -6.611  0.00  0.00    +0.005 A 
ATOM     14  C   UNL     1      -9.394  -5.499  -8.136  0.00  0.00    +0.000 A 
ATOM     15  C   UNL     1     -11.652  -4.733  -7.788  0.00  0.00    +0.000 A 
ATOM     16  C   UNL     1     -10.488  -4.746  -8.552  0.00  0.00    +0.000 A 
ENDBRANCH  10  11
ENDBRANCH   1  10
TORSDOF 2
ENDMDL
MODEL 9
REMARK VINA RESULT:    -4.180      2.210      3.092
REMARK INTER + INTRA:          -4.836
REMARK INTER:                  -4.721
REMARK INTRA:                  -0.115
REMARK UNBOUND:                -0.167
REMARK  Name = 1550473
REMARK  2 active torsions:
REMARK  status: ('A' for Active; 'I' for Inactive)
REMARK    1  A    between atoms: N_1  and  C_4
REMARK    2  A    between atoms: C_4  and  C_5
REMARK                            x       y       z     vdW  Elec       q    Type
REMARK                         _______ _______ _______ _____ _____    ______ ____
ROOT
ATOM      1  N   UNL     1      -5.314   4.602  -8.786  0.00  0.00    -0.354 N 
ATOM      2  N   UNL     1      -3.476   3.770  -9.923  0.00  0.00    -0.372 N 
ATOM      3  N   UNL     1      -4.608   2.388  -8.484  0.00  0.00    -0.372 N 
ATOM      4  C   UNL     1      -4.479   3.590  -9.055  0.00  0.00    +0.166 C 
ATOM      5  H   UNL     1      -5.144   5.498  -9.229  0.00  0.00    +0.163 HD
ATOM      6  H   UNL     1      -2.832   3.024 -10.149  0.00  0.00    +0.159 HD
ATOM      7  H   UNL     1      -3.335   4.653 -10.400  0.00  0.00    +0.159 HD
ATOM      8  H   UNL     1      -5.341   2.189  -7.816  0.00  0.00    +0.159 HD
ATOM      9  H   UNL     1      -3.967   1.632  -8.688  0.00  0.00    +0.159 HD
ENDROOT
BRANCH   1  10
ATOM     10  C   UNL     1      -6.470   4.494  -7.897  0.00  0.00    +0.151 C 
BRANCH  10  11
ATOM     11  C   UNL     1      -6.895   5.873  -7.475  0.00  0.00    -0.028 A 
ATOM     12  C   UNL     1      -5.950   6.798  -7.008  0.00  0.00    +0.005 A 
ATOM     13  C   UNL     1      -8.241   6.263  -7.546  0.00  0.00    +0.005 A 
ATOM     14  C   UNL     1      -6.341   8.089  -6.644  0.00  0.00    +0.000 A 
ATOM     15  C   UNL     1      -8.627   7.553  -7.181  0.00  0.00    +0.000 A 
ATOM     16  C   UNL     1      -7.677   8.466  -6.733  0.00  0.00    +0.000 A 
ENDBRANCH  10  11
ENDBRANCH   1  10
TORSDOF 2
ENDMDL
