MODEL 1
REMARK VINA RESULT:    -5.463      0.000      0.000
REMARK INTER + INTRA:          -6.254
REMARK INTER:                  -6.102
REMARK INTRA:                  -0.152
REMARK UNBOUND:                -0.152
REMARK  Name = 1550473
REMARK  2 active torsions:
REMARK  status: ('A' for Active; 'I' for Inactive)
REMARK    1  A    between atoms: N_1  and  C_4
REMARK    2  A    between atoms: C_4  and  C_5
REMARK                            x       y       z     vdW  Elec       q    Type
REMARK                         _______ _______ _______ _____ _____    ______ ____
ROOT
ATOM      1  N   UNL     1       3.274  12.740  -6.532  0.00  0.00    -0.354 N 
ATOM      2  N   UNL     1       2.454  14.898  -6.341  0.00  0.00    -0.372 N 
ATOM      3  N   UNL     1       1.000  13.201  -6.864  0.00  0.00    -0.372 N 
ATOM      4  C   UNL     1       2.246  13.597  -6.581  0.00  0.00    +0.166 C 
ATOM      5  H   UNL     1       4.199  13.108  -6.342  0.00  0.00    +0.163 HD
ATOM      6  H   UNL     1       1.697  15.568  -6.367  0.00  0.00    +0.159 HD
ATOM      7  H   UNL     1       3.371  15.256  -6.106  0.00  0.00    +0.159 HD
ATOM      8  H   UNL     1       0.778  12.234  -7.061  0.00  0.00    +0.159 HD
ATOM      9  H   UNL     1       0.231  13.858  -6.906  0.00  0.00    +0.159 HD
ENDROOT
BRANCH   1  10
ATOM     10  C   UNL     1       3.145  11.297  -6.725  0.00  0.00    +0.151 C 
BRANCH  10  11
ATOM     11  C   UNL     1       2.854  10.648  -5.400  0.00  0.00    -0.028 A 
ATOM     12  C   UNL     1       1.763   9.778  -5.258  0.00  0.00    +0.005 A 
ATOM     13  C   UNL     1       3.668  10.896  -4.284  0.00  0.00    +0.005 A 
ATOM     14  C   UNL     1       1.510   9.152  -4.035  0.00  0.00    +0.000 A 
ATOM     15  C   UNL     1       3.411  10.269  -3.065  0.00  0.00    +0.000 A 
ATOM     16  C   UNL     1       2.333   9.395  -2.941  0.00  0.00    +0.000 A 
ENDBRANCH  10  11
ENDBRANCH   1  10
TORSDOF 2
ENDMDL
MODEL 2
REMARK VINA RESULT:    -5.456     18.713     19.914
REMARK INTER + INTRA:          -6.246
REMARK INTER:                  -6.073
REMARK INTRA:                  -0.173
REMARK UNBOUND:                -0.152
REMARK  Name = 1550473
REMARK  2 active torsions:
REMARK  status: ('A' for Active; 'I' for Inactive)
REMARK    1  A    between atoms: N_1  and  C_4
REMARK    2  A    between atoms: C_4  and  C_5
REMARK                            x       y       z     vdW  Elec       q    Type
REMARK                         _______ _______ _______ _____ _____    ______ ____
ROOT
ATOM      1  N   UNL     1      -2.483  -8.204  -6.667  0.00  0.00    -0.354 N 
ATOM      2  N   UNL     1      -3.940  -7.482  -8.317  0.00  0.00    -0.372 N 
ATOM      3  N   UNL     1      -4.723  -8.893  -6.685  0.00  0.00    -0.372 N 
ATOM      4  C   UNL     1      -3.707  -8.200  -7.211  0.00  0.00    +0.166 C 
ATOM      5  H   UNL     1      -1.748  -7.682  -7.132  0.00  0.00    +0.163 HD
ATOM      6  H   UNL     1      -4.855  -7.457  -8.747  0.00  0.00    +0.159 HD
ATOM      7  H   UNL     1      -3.216  -6.925  -8.752  0.00  0.00    +0.159 HD
ATOM      8  H   UNL     1      -4.611  -9.459  -5.854  0.00  0.00    +0.159 HD
ATOM      9  H   UNL     1      -5.642  -8.889  -7.108  0.00  0.00    +0.159 HD
ENDROOT
BRANCH   1  10
ATOM     10  C   UNL     1      -2.138  -8.909  -5.434  0.00  0.00    +0.151 C 
BRANCH  10  11
ATOM     11  C   UNL     1      -1.955  -7.905  -4.329  0.00  0.00    -0.028 A 
ATOM     12  C   UNL     1      -0.808  -7.099  -4.283  0.00  0.00    +0.005 A 
ATOM     13  C   UNL     1      -2.928  -7.751  -3.330  0.00  0.00    +0.005 A 
ATOM     14  C   UNL     1      -0.651  -6.146  -3.274  0.00  0.00    +0.000 A 
ATOM     15  C   UNL     1      -2.767  -6.798  -2.324  0.00  0.00    +0.000 A 
ATOM     16  C   UNL     1      -1.630  -5.994  -2.297  0.00  0.00    +0.000 A 
ENDBRANCH  10  11
ENDBRANCH   1  10
TORSDOF 2
ENDMDL
MODEL 3
REMARK VINA RESULT:    -5.314     19.493     20.952
REMARK INTER + INTRA:          -6.088
REMARK INTER:                  -5.908
REMARK INTRA:                  -0.180
REMARK UNBOUND:                -0.152
REMARK  Name = 1550473
REMARK  2 active torsions:
REMARK  status: ('A' for Active; 'I' for Inactive)
REMARK    1  A    between atoms: N_1  and  C_4
REMARK    2  A    between atoms: C_4  and  C_5
REMARK                            x       y       z     vdW  Elec       q    Type
REMARK                         _______ _______ _______ _____ _____    ______ ____
ROOT
ATOM      1  N   UNL     1      -2.621 -10.029  -4.237  0.00  0.00    -0.354 N 
ATOM      2  N   UNL     1      -2.600 -12.074  -3.151  0.00  0.00    -0.372 N 
ATOM      3  N   UNL     1      -4.278 -10.583  -2.676  0.00  0.00    -0.372 N 
ATOM      4  C   UNL     1      -3.169 -10.881  -3.360  0.00  0.00    +0.166 C 
ATOM      5  H   UNL     1      -1.763 -10.302  -4.702  0.00  0.00    +0.163 HD
ATOM      6  H   UNL     1      -2.993 -12.739  -2.498  0.00  0.00    +0.159 HD
ATOM      7  H   UNL     1      -1.768 -12.363  -3.650  0.00  0.00    +0.159 HD
ATOM      8  H   UNL     1      -4.753  -9.697  -2.784  0.00  0.00    +0.159 HD
ATOM      9  H   UNL     1      -4.680 -11.231  -2.009  0.00  0.00    +0.159 HD
ENDROOT
BRANCH   1  10
ATOM     10  C   UNL     1      -3.192  -8.727  -4.578  0.00  0.00    +0.151 C 
BRANCH  10  11
ATOM     11  C   UNL     1      -2.462  -7.656  -3.814  0.00  0.00    -0.028 A 
ATOM     12  C   UNL     1      -3.040  -7.075  -2.676  0.00  0.00    +0.005 A 
ATOM     13  C   UNL     1      -1.191  -7.222  -4.221  0.00  0.00    +0.005 A 
ATOM     14  C   UNL     1      -2.350  -6.102  -1.949  0.00  0.00    +0.000 A 
ATOM     15  C   UNL     1      -0.506  -6.250  -3.492  0.00  0.00    +0.000 A 
ATOM     16  C   UNL     1      -1.085  -5.691  -2.355  0.00  0.00    +0.000 A 
ENDBRANCH  10  11
ENDBRANCH   1  10
TORSDOF 2
ENDMDL
MODEL 4
REMARK VINA RESULT:    -5.149      2.953      3.773
REMARK INTER + INTRA:          -5.904
REMARK INTER:                  -5.792
REMARK INTRA:                  -0.111
REMARK UNBOUND:                -0.152
REMARK  Name = 1550473
REMARK  2 active torsions:
REMARK  status: ('A' for Active; 'I' for Inactive)
REMARK    1  A    between atoms: N_1  and  C_4
REMARK    2  A    between atoms: C_4  and  C_5
REMARK                            x       y       z     vdW  Elec       q    Type
REMARK                         _______ _______ _______ _____ _____    ______ ____
ROOT
ATOM      1  N   UNL     1       5.938  10.476  -5.324  0.00  0.00    -0.354 N 
ATOM      2  N   UNL     1       8.235  10.193  -5.246  0.00  0.00    -0.372 N 
ATOM      3  N   UNL     1       7.390  12.209  -5.942  0.00  0.00    -0.372 N 
ATOM      4  C   UNL     1       7.173  10.964  -5.506  0.00  0.00    +0.166 C 
ATOM      5  H   UNL     1       5.840   9.514  -5.021  0.00  0.00    +0.163 HD
ATOM      6  H   UNL     1       9.179  10.534  -5.370  0.00  0.00    +0.159 HD
ATOM      7  H   UNL     1       8.135   9.247  -4.898  0.00  0.00    +0.159 HD
ATOM      8  H   UNL     1       6.630  12.840  -6.162  0.00  0.00    +0.159 HD
ATOM      9  H   UNL     1       8.327  12.565  -6.083  0.00  0.00    +0.159 HD
ENDROOT
BRANCH   1  10
ATOM     10  C   UNL     1       4.715  11.251  -5.527  0.00  0.00    +0.151 C 
BRANCH  10  11
ATOM     11  C   UNL     1       3.560  10.518  -4.901  0.00  0.00    -0.028 A 
ATOM     12  C   UNL     1       2.376  10.307  -5.623  0.00  0.00    +0.005 A 
ATOM     13  C   UNL     1       3.646  10.027  -3.590  0.00  0.00    +0.005 A 
ATOM     14  C   UNL     1       1.314   9.601  -5.053  0.00  0.00    +0.000 A 
ATOM     15  C   UNL     1       2.584   9.322  -3.024  0.00  0.00    +0.000 A 
ATOM     16  C   UNL     1       1.419   9.107  -3.757  0.00  0.00    +0.000 A 
ENDBRANCH  10  11
ENDBRANCH   1  10
TORSDOF 2
ENDMDL
MODEL 5
REMARK VINA RESULT:    -5.119      5.242      6.496
REMARK INTER + INTRA:          -5.869
REMARK INTER:                  -5.766
REMARK INTRA:                  -0.103
REMARK UNBOUND:                -0.152
REMARK  Name = 1550473
REMARK  2 active torsions:
REMARK  status: ('A' for Active; 'I' for Inactive)
REMARK    1  A    between atoms: N_1  and  C_4
REMARK    2  A    between atoms: C_4  and  C_5
REMARK                            x       y       z     vdW  Elec       q    Type
REMARK                         _______ _______ _______ _____ _____    ______ ____
ROOT
ATOM      1  N   UNL     1       6.370  10.878  -4.087  0.00  0.00    -0.354 N 
ATOM      2  N   UNL     1       4.258   9.984  -3.765  0.00  0.00    -0.372 N 
ATOM      3  N   UNL     1       4.477  11.881  -5.038  0.00  0.00    -0.372 N 
ATOM      4  C   UNL     1       5.048  10.923  -4.300  0.00  0.00    +0.166 C 
ATOM      5  H   UNL     1       6.738  10.144  -3.493  0.00  0.00    +0.163 HD
ATOM      6  H   UNL     1       3.257   9.990  -3.911  0.00  0.00    +0.159 HD
ATOM      7  H   UNL     1       4.633   9.225  -3.210  0.00  0.00    +0.159 HD
ATOM      8  H   UNL     1       5.017  12.621  -5.464  0.00  0.00    +0.159 HD
ATOM      9  H   UNL     1       3.476  11.910  -5.186  0.00  0.00    +0.159 HD
ENDROOT
BRANCH   1  10
ATOM     10  C   UNL     1       7.324  11.821  -4.668  0.00  0.00    +0.151 C 
BRANCH  10  11
ATOM     11  C   UNL     1       8.536  11.903  -3.782  0.00  0.00    -0.028 A 
ATOM     12  C   UNL     1       9.727  11.256  -4.142  0.00  0.00    +0.005 A 
ATOM     13  C   UNL     1       8.502  12.632  -2.583  0.00  0.00    +0.005 A 
ATOM     14  C   UNL     1      10.862  11.357  -3.334  0.00  0.00    +0.000 A 
ATOM     15  C   UNL     1       9.637  12.730  -1.778  0.00  0.00    +0.000 A 
ATOM     16  C   UNL     1      10.817  12.094  -2.155  0.00  0.00    +0.000 A 
ENDBRANCH  10  11
ENDBRANCH   1  10
TORSDOF 2
ENDMDL
MODEL 6
REMARK VINA RESULT:    -5.087     41.916     42.952
REMARK INTER + INTRA:          -5.835
REMARK INTER:                  -5.734
REMARK INTRA:                  -0.101
REMARK UNBOUND:                -0.152
REMARK  Name = 1550473
REMARK  2 active torsions:
REMARK  status: ('A' for Active; 'I' for Inactive)
REMARK    1  A    between atoms: N_1  and  C_4
REMARK    2  A    between atoms: C_4  and  C_5
REMARK                            x       y       z     vdW  Elec       q    Type
REMARK                         _______ _______ _______ _____ _____    ______ ____
ROOT
ATOM      1  N   UNL     1      -7.292 -19.434 -32.630  0.00  0.00    -0.354 N 
ATOM      2  N   UNL     1      -8.704 -18.342 -31.154  0.00  0.00    -0.372 N 
ATOM      3  N   UNL     1      -9.482 -18.871 -33.247  0.00  0.00    -0.372 N 
ATOM      4  C   UNL     1      -8.485 -18.889 -32.356  0.00  0.00    +0.166 C 
ATOM      5  H   UNL     1      -6.568 -19.389 -31.922  0.00  0.00    +0.163 HD
ATOM      6  H   UNL     1      -9.595 -17.927 -30.917  0.00  0.00    +0.159 HD
ATOM      7  H   UNL     1      -7.994 -18.340 -30.432  0.00  0.00    +0.159 HD
ATOM      8  H   UNL     1      -9.379 -19.262 -34.174  0.00  0.00    +0.159 HD
ATOM      9  H   UNL     1     -10.377 -18.449 -33.032  0.00  0.00    +0.159 HD
ENDROOT
BRANCH   1  10
ATOM     10  C   UNL     1      -6.969 -20.102 -33.889  0.00  0.00    +0.151 C 
BRANCH  10  11
ATOM     11  C   UNL     1      -5.516 -19.878 -34.206  0.00  0.00    -0.028 A 
ATOM     12  C   UNL     1      -4.518 -20.552 -33.486  0.00  0.00    +0.005 A 
ATOM     13  C   UNL     1      -5.130 -18.997 -35.228  0.00  0.00    +0.005 A 
ATOM     14  C   UNL     1      -3.169 -20.366 -33.800  0.00  0.00    +0.000 A 
ATOM     15  C   UNL     1      -3.783 -18.814 -35.537  0.00  0.00    +0.000 A 
ATOM     16  C   UNL     1      -2.803 -19.501 -34.825  0.00  0.00    +0.000 A 
ENDBRANCH  10  11
ENDBRANCH   1  10
TORSDOF 2
ENDMDL
MODEL 7
REMARK VINA RESULT:    -5.065      3.065      4.345
REMARK INTER + INTRA:          -5.809
REMARK INTER:                  -5.676
REMARK INTRA:                  -0.133
REMARK UNBOUND:                -0.152
REMARK  Name = 1550473
REMARK  2 active torsions:
REMARK  status: ('A' for Active; 'I' for Inactive)
REMARK    1  A    between atoms: N_1  and  C_4
REMARK    2  A    between atoms: C_4  and  C_5
REMARK                            x       y       z     vdW  Elec       q    Type
REMARK                         _______ _______ _______ _____ _____    ______ ____
ROOT
ATOM      1  N   UNL     1       6.606  11.733  -5.130  0.00  0.00    -0.354 N 
ATOM      2  N   UNL     1       8.168  11.435  -6.814  0.00  0.00    -0.372 N 
ATOM      3  N   UNL     1       8.378  10.221  -4.879  0.00  0.00    -0.372 N 
ATOM      4  C   UNL     1       7.708  11.130  -5.595  0.00  0.00    +0.166 C 
ATOM      5  H   UNL     1       6.161  12.436  -5.710  0.00  0.00    +0.163 HD
ATOM      6  H   UNL     1       8.995  10.994  -7.193  0.00  0.00    +0.159 HD
ATOM      7  H   UNL     1       7.695  12.104  -7.410  0.00  0.00    +0.159 HD
ATOM      8  H   UNL     1       8.086   9.951  -3.949  0.00  0.00    +0.159 HD
ATOM      9  H   UNL     1       9.215   9.777  -5.236  0.00  0.00    +0.159 HD
ENDROOT
BRANCH   1  10
ATOM     10  C   UNL     1       5.992  11.434  -3.838  0.00  0.00    +0.151 C 
BRANCH  10  11
ATOM     11  C   UNL     1       4.687  10.723  -4.067  0.00  0.00    -0.028 A 
ATOM     12  C   UNL     1       4.001  10.131  -2.996  0.00  0.00    +0.005 A 
ATOM     13  C   UNL     1       4.128  10.642  -5.351  0.00  0.00    +0.005 A 
ATOM     14  C   UNL     1       2.774   9.497  -3.203  0.00  0.00    +0.000 A 
ATOM     15  C   UNL     1       2.903  10.007  -5.554  0.00  0.00    +0.000 A 
ATOM     16  C   UNL     1       2.225   9.437  -4.480  0.00  0.00    +0.000 A 
ENDBRANCH  10  11
ENDBRANCH   1  10
TORSDOF 2
ENDMDL
MODEL 8
REMARK VINA RESULT:    -4.922     12.553     13.515
REMARK INTER + INTRA:          -5.650
REMARK INTER:                  -5.526
REMARK INTRA:                  -0.125
REMARK UNBOUND:                -0.152
REMARK  Name = 1550473
REMARK  2 active torsions:
REMARK  status: ('A' for Active; 'I' for Inactive)
REMARK    1  A    between atoms: N_1  and  C_4
REMARK    2  A    between atoms: C_4  and  C_5
REMARK                            x       y       z     vdW  Elec       q    Type
REMARK                         _______ _______ _______ _____ _____    ______ ____
ROOT
ATOM      1  N   UNL     1       0.901  -0.833  -8.388  0.00  0.00    -0.354 N 
ATOM      2  N   UNL     1       3.147  -1.139  -7.914  0.00  0.00    -0.372 N 
ATOM      3  N   UNL     1       2.130  -2.543  -9.418  0.00  0.00    -0.372 N 
ATOM      4  C   UNL     1       2.044  -1.505  -8.578  0.00  0.00    +0.166 C 
ATOM      5  H   UNL     1       0.894  -0.075  -7.716  0.00  0.00    +0.163 HD
ATOM      6  H   UNL     1       4.025  -1.625  -8.040  0.00  0.00    +0.159 HD
ATOM      7  H   UNL     1       3.149  -0.352  -7.277  0.00  0.00    +0.159 HD
ATOM      8  H   UNL     1       1.332  -2.873  -9.944  0.00  0.00    +0.159 HD
ATOM      9  H   UNL     1       2.996  -3.049  -9.548  0.00  0.00    +0.159 HD
ENDROOT
BRANCH   1  10
ATOM     10  C   UNL     1      -0.343  -1.117  -9.102  0.00  0.00    +0.151 C 
BRANCH  10  11
ATOM     11  C   UNL     1      -1.507  -0.806  -8.203  0.00  0.00    -0.028 A 
ATOM     12  C   UNL     1      -2.749  -1.427  -8.405  0.00  0.00    +0.005 A 
ATOM     13  C   UNL     1      -1.374   0.105  -7.143  0.00  0.00    +0.005 A 
ATOM     14  C   UNL     1      -3.822  -1.161  -7.551  0.00  0.00    +0.000 A 
ATOM     15  C   UNL     1      -2.449   0.368  -6.294  0.00  0.00    +0.000 A 
ATOM     16  C   UNL     1      -3.672  -0.267  -6.497  0.00  0.00    +0.000 A 
ENDBRANCH  10  11
ENDBRANCH   1  10
TORSDOF 2
ENDMDL
MODEL 9
REMARK VINA RESULT:    -4.832     36.114     37.230
REMARK INTER + INTRA:          -5.550
REMARK INTER:                  -5.409
REMARK INTRA:                  -0.140
REMARK UNBOUND:                -0.152
REMARK  Name = 1550473
REMARK  2 active torsions:
REMARK  status: ('A' for Active; 'I' for Inactive)
REMARK    1  A    between atoms: N_1  and  C_4
REMARK    2  A    between atoms: C_4  and  C_5
REMARK                            x       y       z     vdW  Elec       q    Type
REMARK                         _______ _______ _______ _____ _____    ______ ____
ROOT
ATOM      1  N   UNL     1      -9.929 -15.361 -29.978  0.00  0.00    -0.354 N 
ATOM      2  N   UNL     1      -9.606 -17.320 -31.171  0.00  0.00    -0.372 N 
ATOM      3  N   UNL     1     -10.775 -15.605 -32.150  0.00  0.00    -0.372 N 
ATOM      4  C   UNL     1     -10.108 -16.081 -31.094  0.00  0.00    +0.166 C 
ATOM      5  H   UNL     1      -9.440 -15.791 -29.201  0.00  0.00    +0.163 HD
ATOM      6  H   UNL     1      -9.722 -17.886 -32.001  0.00  0.00    +0.159 HD
ATOM      7  H   UNL     1      -9.078 -17.730 -30.410  0.00  0.00    +0.159 HD
ATOM      8  H   UNL     1     -11.183 -14.680 -32.153  0.00  0.00    +0.159 HD
ATOM      9  H   UNL     1     -10.911 -16.160 -32.985  0.00  0.00    +0.159 HD
ENDROOT
BRANCH   1  10
ATOM     10  C   UNL     1     -10.388 -13.983 -29.812  0.00  0.00    +0.151 C 
BRANCH  10  11
ATOM     11  C   UNL     1      -9.278 -13.165 -29.212  0.00  0.00    -0.028 A 
ATOM     12  C   UNL     1      -9.531 -11.877 -28.718  0.00  0.00    +0.005 A 
ATOM     13  C   UNL     1      -7.973 -13.674 -29.129  0.00  0.00    +0.005 A 
ATOM     14  C   UNL     1      -8.506 -11.128 -28.133  0.00  0.00    +0.000 A 
ATOM     15  C   UNL     1      -6.953 -12.923 -28.546  0.00  0.00    +0.000 A 
ATOM     16  C   UNL     1      -7.221 -11.651 -28.045  0.00  0.00    +0.000 A 
ENDBRANCH  10  11
ENDBRANCH   1  10
TORSDOF 2
ENDMDL
