MODEL 1
REMARK VINA RESULT:    -4.660      0.000      0.000
REMARK INTER + INTRA:          -5.384
REMARK INTER:                  -5.205
REMARK INTRA:                  -0.179
REMARK UNBOUND:                -0.179
REMARK  Name = 1550473
REMARK  2 active torsions:
REMARK  status: ('A' for Active; 'I' for Inactive)
REMARK    1  A    between atoms: N_1  and  C_4
REMARK    2  A    between atoms: C_4  and  C_5
REMARK                            x       y       z     vdW  Elec       q    Type
REMARK                         _______ _______ _______ _____ _____    ______ ____
ROOT
ATOM      1  N   UNL     1       3.937 -22.135  10.686  0.00  0.00    -0.354 N 
ATOM      2  N   UNL     1       2.315 -23.681  11.268  0.00  0.00    -0.372 N 
ATOM      3  N   UNL     1       2.574 -23.126   9.057  0.00  0.00    -0.372 N 
ATOM      4  C   UNL     1       2.952 -22.970  10.330  0.00  0.00    +0.166 C 
ATOM      5  H   UNL     1       4.156 -22.039  11.671  0.00  0.00    +0.163 HD
ATOM      6  H   UNL     1       1.570 -24.322  11.030  0.00  0.00    +0.159 HD
ATOM      7  H   UNL     1       2.566 -23.618  12.247  0.00  0.00    +0.159 HD
ATOM      8  H   UNL     1       3.012 -22.614   8.302  0.00  0.00    +0.159 HD
ATOM      9  H   UNL     1       1.823 -23.753   8.800  0.00  0.00    +0.159 HD
ENDROOT
BRANCH   1  10
ATOM     10  C   UNL     1       4.730 -21.355   9.737  0.00  0.00    +0.151 C 
BRANCH  10  11
ATOM     11  C   UNL     1       4.185 -19.955   9.675  0.00  0.00    -0.028 A 
ATOM     12  C   UNL     1       4.292 -19.100  10.782  0.00  0.00    +0.005 A 
ATOM     13  C   UNL     1       3.566 -19.475   8.511  0.00  0.00    +0.005 A 
ATOM     14  C   UNL     1       3.813 -17.789  10.714  0.00  0.00    +0.000 A 
ATOM     15  C   UNL     1       3.088 -18.166   8.448  0.00  0.00    +0.000 A 
ATOM     16  C   UNL     1       3.214 -17.323   9.549  0.00  0.00    +0.000 A 
ENDBRANCH  10  11
ENDBRANCH   1  10
TORSDOF 2
ENDMDL
MODEL 2
REMARK VINA RESULT:    -4.416     49.487     50.797
REMARK INTER + INTRA:          -5.111
REMARK INTER:                  -4.946
REMARK INTRA:                  -0.165
REMARK UNBOUND:                -0.179
REMARK  Name = 1550473
REMARK  2 active torsions:
REMARK  status: ('A' for Active; 'I' for Inactive)
REMARK    1  A    between atoms: N_1  and  C_4
REMARK    2  A    between atoms: C_4  and  C_5
REMARK                            x       y       z     vdW  Elec       q    Type
REMARK                         _______ _______ _______ _____ _____    ______ ____
ROOT
ATOM      1  N   UNL     1     -15.981   0.029 -33.455  0.00  0.00    -0.354 N 
ATOM      2  N   UNL     1     -17.773   0.464 -32.052  0.00  0.00    -0.372 N 
ATOM      3  N   UNL     1     -16.101   2.026 -32.233  0.00  0.00    -0.372 N 
ATOM      4  C   UNL     1     -16.605   0.839 -32.589  0.00  0.00    +0.166 C 
ATOM      5  H   UNL     1     -16.401  -0.870 -33.660  0.00  0.00    +0.163 HD
ATOM      6  H   UNL     1     -18.268   1.056 -31.399  0.00  0.00    +0.159 HD
ATOM      7  H   UNL     1     -18.212  -0.415 -32.294  0.00  0.00    +0.159 HD
ATOM      8  H   UNL     1     -15.221   2.365 -32.598  0.00  0.00    +0.159 HD
ATOM      9  H   UNL     1     -16.577   2.627 -31.572  0.00  0.00    +0.159 HD
ENDROOT
BRANCH   1  10
ATOM     10  C   UNL     1     -14.733   0.367 -34.136  0.00  0.00    +0.151 C 
BRANCH  10  11
ATOM     11  C   UNL     1     -13.661  -0.594 -33.702  0.00  0.00    -0.028 A 
ATOM     12  C   UNL     1     -13.062  -0.469 -32.440  0.00  0.00    +0.005 A 
ATOM     13  C   UNL     1     -13.244  -1.635 -34.545  0.00  0.00    +0.005 A 
ATOM     14  C   UNL     1     -12.087  -1.380 -32.024  0.00  0.00    +0.000 A 
ATOM     15  C   UNL     1     -12.270  -2.542 -34.127  0.00  0.00    +0.000 A 
ATOM     16  C   UNL     1     -11.694  -2.415 -32.865  0.00  0.00    +0.000 A 
ENDBRANCH  10  11
ENDBRANCH   1  10
TORSDOF 2
ENDMDL
MODEL 3
REMARK VINA RESULT:    -4.218     28.487     29.639
REMARK INTER + INTRA:          -4.890
REMARK INTER:                  -4.777
REMARK INTRA:                  -0.113
REMARK UNBOUND:                -0.179
REMARK  Name = 1550473
REMARK  2 active torsions:
REMARK  status: ('A' for Active; 'I' for Inactive)
REMARK    1  A    between atoms: N_1  and  C_4
REMARK    2  A    between atoms: C_4  and  C_5
REMARK                            x       y       z     vdW  Elec       q    Type
REMARK                         _______ _______ _______ _____ _____    ______ ____
ROOT
ATOM      1  N   UNL     1      15.568 -23.829 -16.256  0.00  0.00    -0.354 N 
ATOM      2  N   UNL     1      16.531 -21.723 -16.293  0.00  0.00    -0.372 N 
ATOM      3  N   UNL     1      14.446 -21.973 -15.368  0.00  0.00    -0.372 N 
ATOM      4  C   UNL     1      15.506 -22.521 -15.971  0.00  0.00    +0.166 C 
ATOM      5  H   UNL     1      16.387 -24.177 -16.742  0.00  0.00    +0.163 HD
ATOM      6  H   UNL     1      16.514 -20.733 -16.088  0.00  0.00    +0.159 HD
ATOM      7  H   UNL     1      17.367 -22.082 -16.737  0.00  0.00    +0.159 HD
ATOM      8  H   UNL     1      13.637 -22.520 -15.104  0.00  0.00    +0.159 HD
ATOM      9  H   UNL     1      14.405 -20.982 -15.165  0.00  0.00    +0.159 HD
ENDROOT
BRANCH   1  10
ATOM     10  C   UNL     1      14.529 -24.794 -15.899  0.00  0.00    +0.151 C 
BRANCH  10  11
ATOM     11  C   UNL     1      14.978 -26.171 -16.304  0.00  0.00    -0.028 A 
ATOM     12  C   UNL     1      15.722 -26.361 -17.478  0.00  0.00    +0.005 A 
ATOM     13  C   UNL     1      14.668 -27.289 -15.515  0.00  0.00    +0.005 A 
ATOM     14  C   UNL     1      16.164 -27.636 -17.839  0.00  0.00    +0.000 A 
ATOM     15  C   UNL     1      15.111 -28.560 -15.879  0.00  0.00    +0.000 A 
ATOM     16  C   UNL     1      15.861 -28.733 -17.040  0.00  0.00    +0.000 A 
ENDBRANCH  10  11
ENDBRANCH   1  10
TORSDOF 2
ENDMDL
MODEL 4
REMARK VINA RESULT:    -4.168     16.700     17.769
REMARK INTER + INTRA:          -4.834
REMARK INTER:                  -4.699
REMARK INTRA:                  -0.136
REMARK UNBOUND:                -0.179
REMARK  Name = 1550473
REMARK  2 active torsions:
REMARK  status: ('A' for Active; 'I' for Inactive)
REMARK    1  A    between atoms: N_1  and  C_4
REMARK    2  A    between atoms: C_4  and  C_5
REMARK                            x       y       z     vdW  Elec       q    Type
REMARK                         _______ _______ _______ _____ _____    ______ ____
ROOT
ATOM      1  N   UNL     1       7.557  -3.281   9.257  0.00  0.00    -0.354 N 
ATOM      2  N   UNL     1       9.151  -2.445  10.715  0.00  0.00    -0.372 N 
ATOM      3  N   UNL     1       8.797  -1.366   8.721  0.00  0.00    -0.372 N 
ATOM      4  C   UNL     1       8.492  -2.368   9.552  0.00  0.00    +0.166 C 
ATOM      5  H   UNL     1       7.394  -4.033   9.917  0.00  0.00    +0.163 HD
ATOM      6  H   UNL     1       9.859  -1.768  10.967  0.00  0.00    +0.159 HD
ATOM      7  H   UNL     1       8.953  -3.171  11.392  0.00  0.00    +0.159 HD
ATOM      8  H   UNL     1       8.340  -1.255   7.825  0.00  0.00    +0.159 HD
ATOM      9  H   UNL     1       9.511  -0.686   8.950  0.00  0.00    +0.159 HD
ENDROOT
BRANCH   1  10
ATOM     10  C   UNL     1       6.745  -3.256   8.042  0.00  0.00    +0.151 C 
BRANCH  10  11
ATOM     11  C   UNL     1       5.348  -3.700   8.376  0.00  0.00    -0.028 A 
ATOM     12  C   UNL     1       4.454  -4.065   7.359  0.00  0.00    +0.005 A 
ATOM     13  C   UNL     1       4.913  -3.764   9.709  0.00  0.00    +0.005 A 
ATOM     14  C   UNL     1       3.166  -4.506   7.671  0.00  0.00    +0.000 A 
ATOM     15  C   UNL     1       3.626  -4.204  10.016  0.00  0.00    +0.000 A 
ATOM     16  C   UNL     1       2.753  -4.578   8.997  0.00  0.00    +0.000 A 
ENDBRANCH  10  11
ENDBRANCH   1  10
TORSDOF 2
ENDMDL
MODEL 5
REMARK VINA RESULT:    -4.162     35.673     36.329
REMARK INTER + INTRA:          -4.828
REMARK INTER:                  -4.714
REMARK INTRA:                  -0.114
REMARK UNBOUND:                -0.179
REMARK  Name = 1550473
REMARK  2 active torsions:
REMARK  status: ('A' for Active; 'I' for Inactive)
REMARK    1  A    between atoms: N_1  and  C_4
REMARK    2  A    between atoms: C_4  and  C_5
REMARK                            x       y       z     vdW  Elec       q    Type
REMARK                         _______ _______ _______ _____ _____    ______ ____
ROOT
ATOM      1  N   UNL     1      -3.633   3.795 -16.298  0.00  0.00    -0.354 N 
ATOM      2  N   UNL     1      -1.896   2.373 -16.869  0.00  0.00    -0.372 N 
ATOM      3  N   UNL     1      -1.484   4.626 -16.727  0.00  0.00    -0.372 N 
ATOM      4  C   UNL     1      -2.348   3.610 -16.628  0.00  0.00    +0.166 C 
ATOM      5  H   UNL     1      -4.244   2.987 -16.269  0.00  0.00    +0.163 HD
ATOM      6  H   UNL     1      -0.931   2.202 -17.117  0.00  0.00    +0.159 HD
ATOM      7  H   UNL     1      -2.499   1.562 -16.795  0.00  0.00    +0.159 HD
ATOM      8  H   UNL     1      -1.763   5.584 -16.564  0.00  0.00    +0.159 HD
ATOM      9  H   UNL     1      -0.516   4.476 -16.986  0.00  0.00    +0.159 HD
ENDROOT
BRANCH   1  10
ATOM     10  C   UNL     1      -4.211   5.095 -15.963  0.00  0.00    +0.151 C 
BRANCH  10  11
ATOM     11  C   UNL     1      -5.274   4.905 -14.916  0.00  0.00    -0.028 A 
ATOM     12  C   UNL     1      -5.385   5.802 -13.843  0.00  0.00    +0.005 A 
ATOM     13  C   UNL     1      -6.176   3.833 -14.994  0.00  0.00    +0.005 A 
ATOM     14  C   UNL     1      -6.391   5.642 -12.887  0.00  0.00    +0.000 A 
ATOM     15  C   UNL     1      -7.178   3.677 -14.037  0.00  0.00    +0.000 A 
ATOM     16  C   UNL     1      -7.287   4.583 -12.985  0.00  0.00    +0.000 A 
ENDBRANCH  10  11
ENDBRANCH   1  10
TORSDOF 2
ENDMDL
MODEL 6
REMARK VINA RESULT:    -4.067     29.207     30.611
REMARK INTER + INTRA:          -4.722
REMARK INTER:                  -4.589
REMARK INTRA:                  -0.134
REMARK UNBOUND:                -0.179
REMARK  Name = 1550473
REMARK  2 active torsions:
REMARK  status: ('A' for Active; 'I' for Inactive)
REMARK    1  A    between atoms: N_1  and  C_4
REMARK    2  A    between atoms: C_4  and  C_5
REMARK                            x       y       z     vdW  Elec       q    Type
REMARK                         _______ _______ _______ _____ _____    ______ ____
ROOT
ATOM      1  N   UNL     1      -5.326   8.081   5.718  0.00  0.00    -0.354 N 
ATOM      2  N   UNL     1      -6.086   5.954   6.229  0.00  0.00    -0.372 N 
ATOM      3  N   UNL     1      -6.729   6.915   4.247  0.00  0.00    -0.372 N 
ATOM      4  C   UNL     1      -6.043   6.998   5.392  0.00  0.00    +0.166 C 
ATOM      5  H   UNL     1      -4.853   8.094   6.614  0.00  0.00    +0.163 HD
ATOM      6  H   UNL     1      -6.616   5.121   6.008  0.00  0.00    +0.159 HD
ATOM      7  H   UNL     1      -5.576   5.951   7.103  0.00  0.00    +0.159 HD
ATOM      8  H   UNL     1      -6.742   7.671   3.575  0.00  0.00    +0.159 HD
ATOM      9  H   UNL     1      -7.275   6.095   4.013  0.00  0.00    +0.159 HD
ENDROOT
BRANCH   1  10
ATOM     10  C   UNL     1      -5.170   9.249   4.853  0.00  0.00    +0.151 C 
BRANCH  10  11
ATOM     11  C   UNL     1      -3.705   9.533   4.669  0.00  0.00    -0.028 A 
ATOM     12  C   UNL     1      -3.033  10.400   5.543  0.00  0.00    +0.005 A 
ATOM     13  C   UNL     1      -2.981   8.933   3.627  0.00  0.00    +0.005 A 
ATOM     14  C   UNL     1      -1.665  10.641   5.391  0.00  0.00    +0.000 A 
ATOM     15  C   UNL     1      -1.616   9.176   3.479  0.00  0.00    +0.000 A 
ATOM     16  C   UNL     1      -0.958  10.028   4.362  0.00  0.00    +0.000 A 
ENDBRANCH  10  11
ENDBRANCH   1  10
TORSDOF 2
ENDMDL
MODEL 7
REMARK VINA RESULT:    -4.024     14.558     16.005
REMARK INTER + INTRA:          -4.674
REMARK INTER:                  -4.574
REMARK INTRA:                  -0.100
REMARK UNBOUND:                -0.179
REMARK  Name = 1550473
REMARK  2 active torsions:
REMARK  status: ('A' for Active; 'I' for Inactive)
REMARK    1  A    between atoms: N_1  and  C_4
REMARK    2  A    between atoms: C_4  and  C_5
REMARK                            x       y       z     vdW  Elec       q    Type
REMARK                         _______ _______ _______ _____ _____    ______ ____
ROOT
ATOM      1  N   UNL     1       1.409  -4.852  13.911  0.00  0.00    -0.354 N 
ATOM      2  N   UNL     1      -0.087  -3.782  15.318  0.00  0.00    -0.372 N 
ATOM      3  N   UNL     1       1.995  -4.321  16.117  0.00  0.00    -0.372 N 
ATOM      4  C   UNL     1       1.118  -4.326  15.108  0.00  0.00    +0.166 C 
ATOM      5  H   UNL     1       0.690  -4.852  13.197  0.00  0.00    +0.163 HD
ATOM      6  H   UNL     1      -0.335  -3.375  16.210  0.00  0.00    +0.159 HD
ATOM      7  H   UNL     1      -0.789  -3.743  14.588  0.00  0.00    +0.159 HD
ATOM      8  H   UNL     1       2.919  -4.720  16.025  0.00  0.00    +0.159 HD
ATOM      9  H   UNL     1       1.762  -3.928  17.020  0.00  0.00    +0.159 HD
ENDROOT
BRANCH   1  10
ATOM     10  C   UNL     1       2.710  -5.420  13.562  0.00  0.00    +0.151 C 
BRANCH  10  11
ATOM     11  C   UNL     1       2.793  -5.579  12.069  0.00  0.00    -0.028 A 
ATOM     12  C   UNL     1       2.875  -4.452  11.237  0.00  0.00    +0.005 A 
ATOM     13  C   UNL     1       2.795  -6.852  11.481  0.00  0.00    +0.005 A 
ATOM     14  C   UNL     1       2.983  -4.600   9.852  0.00  0.00    +0.000 A 
ATOM     15  C   UNL     1       2.901  -6.996  10.097  0.00  0.00    +0.000 A 
ATOM     16  C   UNL     1       2.998  -5.869   9.284  0.00  0.00    +0.000 A 
ENDBRANCH  10  11
ENDBRANCH   1  10
TORSDOF 2
ENDMDL
MODEL 8
REMARK VINA RESULT:    -3.912     33.053     34.015
REMARK INTER + INTRA:          -4.549
REMARK INTER:                  -4.444
REMARK INTRA:                  -0.104
REMARK UNBOUND:                -0.179
REMARK  Name = 1550473
REMARK  2 active torsions:
REMARK  status: ('A' for Active; 'I' for Inactive)
REMARK    1  A    between atoms: N_1  and  C_4
REMARK    2  A    between atoms: C_4  and  C_5
REMARK                            x       y       z     vdW  Elec       q    Type
REMARK                         _______ _______ _______ _____ _____    ______ ____
ROOT
ATOM      1  N   UNL     1       9.462  12.061   4.374  0.00  0.00    -0.354 N 
ATOM      2  N   UNL     1       7.406  11.002   4.264  0.00  0.00    -0.372 N 
ATOM      3  N   UNL     1       7.524  13.102   5.182  0.00  0.00    -0.372 N 
ATOM      4  C   UNL     1       8.143  12.064   4.609  0.00  0.00    +0.166 C 
ATOM      5  H   UNL     1       9.876  11.232   3.965  0.00  0.00    +0.163 HD
ATOM      6  H   UNL     1       6.408  10.977   4.425  0.00  0.00    +0.159 HD
ATOM      7  H   UNL     1       7.815  10.193   3.813  0.00  0.00    +0.159 HD
ATOM      8  H   UNL     1       8.025  13.931   5.471  0.00  0.00    +0.159 HD
ATOM      9  H   UNL     1       6.528  13.091   5.362  0.00  0.00    +0.159 HD
ENDROOT
BRANCH   1  10
ATOM     10  C   UNL     1      10.347  13.189   4.663  0.00  0.00    +0.151 C 
BRANCH  10  11
ATOM     11  C   UNL     1      11.683  12.663   5.109  0.00  0.00    -0.028 A 
ATOM     12  C   UNL     1      11.982  12.547   6.475  0.00  0.00    +0.005 A 
ATOM     13  C   UNL     1      12.652  12.274   4.172  0.00  0.00    +0.005 A 
ATOM     14  C   UNL     1      13.212  12.031   6.890  0.00  0.00    +0.000 A 
ATOM     15  C   UNL     1      13.879  11.760   4.591  0.00  0.00    +0.000 A 
ATOM     16  C   UNL     1      14.158  11.636   5.950  0.00  0.00    +0.000 A 
ENDBRANCH  10  11
ENDBRANCH   1  10
TORSDOF 2
ENDMDL
MODEL 9
REMARK VINA RESULT:    -3.896     13.211     14.030
REMARK INTER + INTRA:          -4.531
REMARK INTER:                  -4.420
REMARK INTRA:                  -0.111
REMARK UNBOUND:                -0.179
REMARK  Name = 1550473
REMARK  2 active torsions:
REMARK  status: ('A' for Active; 'I' for Inactive)
REMARK    1  A    between atoms: N_1  and  C_4
REMARK    2  A    between atoms: C_4  and  C_5
REMARK                            x       y       z     vdW  Elec       q    Type
REMARK                         _______ _______ _______ _____ _____    ______ ____
ROOT
ATOM      1  N   UNL     1      15.013 -27.119  14.096  0.00  0.00    -0.354 N 
ATOM      2  N   UNL     1      15.667 -28.959  12.851  0.00  0.00    -0.372 N 
ATOM      3  N   UNL     1      14.737 -27.162  11.770  0.00  0.00    -0.372 N 
ATOM      4  C   UNL     1      15.134 -27.733  12.912  0.00  0.00    +0.166 C 
ATOM      5  H   UNL     1      15.305 -27.618  14.929  0.00  0.00    +0.163 HD
ATOM      6  H   UNL     1      15.774 -29.446  11.971  0.00  0.00    +0.159 HD
ATOM      7  H   UNL     1      16.000 -29.437  13.680  0.00  0.00    +0.159 HD
ATOM      8  H   UNL     1      14.322 -26.240  11.748  0.00  0.00    +0.159 HD
ATOM      9  H   UNL     1      14.825 -27.637  10.880  0.00  0.00    +0.159 HD
ENDROOT
BRANCH   1  10
ATOM     10  C   UNL     1      14.496 -25.762  14.265  0.00  0.00    +0.151 C 
BRANCH  10  11
ATOM     11  C   UNL     1      14.543 -25.396  15.723  0.00  0.00    -0.028 A 
ATOM     12  C   UNL     1      14.884 -24.095  16.120  0.00  0.00    +0.005 A 
ATOM     13  C   UNL     1      14.243 -26.345  16.712  0.00  0.00    +0.005 A 
ATOM     14  C   UNL     1      14.899 -23.747  17.473  0.00  0.00    +0.000 A 
ATOM     15  C   UNL     1      14.260 -25.994  18.062  0.00  0.00    +0.000 A 
ATOM     16  C   UNL     1      14.585 -24.694  18.442  0.00  0.00    +0.000 A 
ENDBRANCH  10  11
ENDBRANCH   1  10
TORSDOF 2
ENDMDL
