MODEL 1
REMARK VINA RESULT:    -5.151      0.000      0.000
REMARK INTER + INTRA:          -5.845
REMARK INTER:                  -5.753
REMARK INTRA:                  -0.092
REMARK UNBOUND:                -0.092
REMARK  Name = 1550473
REMARK  2 active torsions:
REMARK  status: ('A' for Active; 'I' for Inactive)
REMARK    1  A    between atoms: N_1  and  C_4
REMARK    2  A    between atoms: C_4  and  C_5
REMARK                            x       y       z     vdW  Elec       q    Type
REMARK                         _______ _______ _______ _____ _____    ______ ____
ROOT
ATOM      1  N   UNL     1       8.113 -15.747  -2.074  0.00  0.00    -0.354 N 
ATOM      2  N   UNL     1       7.171 -17.586  -3.119  0.00  0.00    -0.372 N 
ATOM      3  N   UNL     1       6.227 -15.520  -3.446  0.00  0.00    -0.372 N 
ATOM      4  C   UNL     1       7.174 -16.270  -2.873  0.00  0.00    +0.166 C 
ATOM      5  H   UNL     1       8.785 -16.373  -1.646  0.00  0.00    +0.163 HD
ATOM      6  H   UNL     1       6.477 -18.009  -3.721  0.00  0.00    +0.159 HD
ATOM      7  H   UNL     1       7.871 -18.203  -2.727  0.00  0.00    +0.159 HD
ATOM      8  H   UNL     1       6.171 -14.521  -3.296  0.00  0.00    +0.159 HD
ATOM      9  H   UNL     1       5.517 -15.926  -4.042  0.00  0.00    +0.159 HD
ENDROOT
BRANCH   1  10
ATOM     10  C   UNL     1       8.238 -14.319  -1.785  0.00  0.00    +0.151 C 
BRANCH  10  11
ATOM     11  C   UNL     1       9.455 -14.095  -0.930  0.00  0.00    -0.028 A 
ATOM     12  C   UNL     1      10.733 -14.064  -1.506  0.00  0.00    +0.005 A 
ATOM     13  C   UNL     1       9.336 -13.908   0.456  0.00  0.00    +0.005 A 
ATOM     14  C   UNL     1      11.861 -13.827  -0.717  0.00  0.00    +0.000 A 
ATOM     15  C   UNL     1      10.464 -13.672   1.240  0.00  0.00    +0.000 A 
ATOM     16  C   UNL     1      11.727 -13.629   0.653  0.00  0.00    +0.000 A 
ENDBRANCH  10  11
ENDBRANCH   1  10
TORSDOF 2
ENDMDL
MODEL 2
REMARK VINA RESULT:    -4.926     36.742     37.806
REMARK INTER + INTRA:          -5.594
REMARK INTER:                  -5.493
REMARK INTRA:                  -0.102
REMARK UNBOUND:                -0.092
REMARK  Name = 1550473
REMARK  2 active torsions:
REMARK  status: ('A' for Active; 'I' for Inactive)
REMARK    1  A    between atoms: N_1  and  C_4
REMARK    2  A    between atoms: C_4  and  C_5
REMARK                            x       y       z     vdW  Elec       q    Type
REMARK                         _______ _______ _______ _____ _____    ______ ____
ROOT
ATOM      1  N   UNL     1      -1.161  11.684  23.827  0.00  0.00    -0.354 N 
ATOM      2  N   UNL     1      -0.008  13.564  23.120  0.00  0.00    -0.372 N 
ATOM      3  N   UNL     1       1.162  11.845  24.090  0.00  0.00    -0.372 N 
ATOM      4  C   UNL     1      -0.007  12.351  23.685  0.00  0.00    +0.166 C 
ATOM      5  H   UNL     1      -2.017  12.135  23.527  0.00  0.00    +0.163 HD
ATOM      6  H   UNL     1       0.847  14.090  22.996  0.00  0.00    +0.159 HD
ATOM      7  H   UNL     1      -0.859  13.993  22.779  0.00  0.00    +0.159 HD
ATOM      8  H   UNL     1       1.230  10.937  24.529  0.00  0.00    +0.159 HD
ATOM      9  H   UNL     1       2.027  12.361  23.985  0.00  0.00    +0.159 HD
ENDROOT
BRANCH   1  10
ATOM     10  C   UNL     1      -1.262  10.335  24.380  0.00  0.00    +0.151 C 
BRANCH  10  11
ATOM     11  C   UNL     1      -2.657   9.818  24.161  0.00  0.00    -0.028 A 
ATOM     12  C   UNL     1      -2.868   8.583  23.530  0.00  0.00    +0.005 A 
ATOM     13  C   UNL     1      -3.773  10.556  24.587  0.00  0.00    +0.005 A 
ATOM     14  C   UNL     1      -4.163   8.089  23.353  0.00  0.00    +0.000 A 
ATOM     15  C   UNL     1      -5.064  10.059  24.407  0.00  0.00    +0.000 A 
ATOM     16  C   UNL     1      -5.258   8.824  23.793  0.00  0.00    +0.000 A 
ENDBRANCH  10  11
ENDBRANCH   1  10
TORSDOF 2
ENDMDL
MODEL 3
REMARK VINA RESULT:    -4.627     28.462     29.696
REMARK INTER + INTRA:          -5.261
REMARK INTER:                  -5.105
REMARK INTRA:                  -0.156
REMARK UNBOUND:                -0.092
REMARK  Name = 1550473
REMARK  2 active torsions:
REMARK  status: ('A' for Active; 'I' for Inactive)
REMARK    1  A    between atoms: N_1  and  C_4
REMARK    2  A    between atoms: C_4  and  C_5
REMARK                            x       y       z     vdW  Elec       q    Type
REMARK                         _______ _______ _______ _____ _____    ______ ____
ROOT
ATOM      1  N   UNL     1     -13.424   5.868  -1.747  0.00  0.00    -0.354 N 
ATOM      2  N   UNL     1     -13.831   6.592   0.415  0.00  0.00    -0.372 N 
ATOM      3  N   UNL     1     -13.554   8.153  -1.243  0.00  0.00    -0.372 N 
ATOM      4  C   UNL     1     -13.600   6.869  -0.874  0.00  0.00    +0.166 C 
ATOM      5  H   UNL     1     -13.441   4.917  -1.398  0.00  0.00    +0.163 HD
ATOM      6  H   UNL     1     -13.971   7.326   1.096  0.00  0.00    +0.159 HD
ATOM      7  H   UNL     1     -13.893   5.639   0.753  0.00  0.00    +0.159 HD
ATOM      8  H   UNL     1     -13.377   8.429  -2.200  0.00  0.00    +0.159 HD
ATOM      9  H   UNL     1     -13.680   8.902  -0.574  0.00  0.00    +0.159 HD
ENDROOT
BRANCH   1  10
ATOM     10  C   UNL     1     -13.220   6.061  -3.181  0.00  0.00    +0.151 C 
BRANCH  10  11
ATOM     11  C   UNL     1     -11.908   5.443  -3.578  0.00  0.00    -0.028 A 
ATOM     12  C   UNL     1     -11.873   4.344  -4.449  0.00  0.00    +0.005 A 
ATOM     13  C   UNL     1     -10.695   5.956  -3.092  0.00  0.00    +0.005 A 
ATOM     14  C   UNL     1     -10.653   3.788  -4.841  0.00  0.00    +0.000 A 
ATOM     15  C   UNL     1      -9.479   5.398  -3.486  0.00  0.00    +0.000 A 
ATOM     16  C   UNL     1      -9.458   4.316  -4.362  0.00  0.00    +0.000 A 
ENDBRANCH  10  11
ENDBRANCH   1  10
TORSDOF 2
ENDMDL
MODEL 4
REMARK VINA RESULT:    -4.617     16.295     17.898
REMARK INTER + INTRA:          -5.249
REMARK INTER:                  -5.095
REMARK INTRA:                  -0.154
REMARK UNBOUND:                -0.092
REMARK  Name = 1550473
REMARK  2 active torsions:
REMARK  status: ('A' for Active; 'I' for Inactive)
REMARK    1  A    between atoms: N_1  and  C_4
REMARK    2  A    between atoms: C_4  and  C_5
REMARK                            x       y       z     vdW  Elec       q    Type
REMARK                         _______ _______ _______ _____ _____    ______ ____
ROOT
ATOM      1  N   UNL     1      21.941  -3.182   2.287  0.00  0.00    -0.354 N 
ATOM      2  N   UNL     1      19.829  -3.127   1.340  0.00  0.00    -0.372 N 
ATOM      3  N   UNL     1      20.523  -5.045   2.391  0.00  0.00    -0.372 N 
ATOM      4  C   UNL     1      20.778  -3.788   2.013  0.00  0.00    +0.166 C 
ATOM      5  H   UNL     1      22.085  -2.239   1.947  0.00  0.00    +0.163 HD
ATOM      6  H   UNL     1      18.940  -3.557   1.122  0.00  0.00    +0.159 HD
ATOM      7  H   UNL     1      19.957  -2.168   1.041  0.00  0.00    +0.159 HD
ATOM      8  H   UNL     1      21.201  -5.600   2.896  0.00  0.00    +0.159 HD
ATOM      9  H   UNL     1      19.644  -5.496   2.172  0.00  0.00    +0.159 HD
ENDROOT
BRANCH   1  10
ATOM     10  C   UNL     1      23.020  -3.795   3.060  0.00  0.00    +0.151 C 
BRANCH  10  11
ATOM     11  C   UNL     1      23.954  -4.508   2.121  0.00  0.00    -0.028 A 
ATOM     12  C   UNL     1      24.631  -3.801   1.117  0.00  0.00    +0.005 A 
ATOM     13  C   UNL     1      24.170  -5.890   2.234  0.00  0.00    +0.005 A 
ATOM     14  C   UNL     1      25.522  -4.457   0.264  0.00  0.00    +0.000 A 
ATOM     15  C   UNL     1      25.059  -6.542   1.380  0.00  0.00    +0.000 A 
ATOM     16  C   UNL     1      25.737  -5.825   0.397  0.00  0.00    +0.000 A 
ENDBRANCH  10  11
ENDBRANCH   1  10
TORSDOF 2
ENDMDL
MODEL 5
REMARK VINA RESULT:    -4.517     19.409     20.054
REMARK INTER + INTRA:          -5.137
REMARK INTER:                  -4.995
REMARK INTRA:                  -0.142
REMARK UNBOUND:                -0.092
REMARK  Name = 1550473
REMARK  2 active torsions:
REMARK  status: ('A' for Active; 'I' for Inactive)
REMARK    1  A    between atoms: N_1  and  C_4
REMARK    2  A    between atoms: C_4  and  C_5
REMARK                            x       y       z     vdW  Elec       q    Type
REMARK                         _______ _______ _______ _____ _____    ______ ____
ROOT
ATOM      1  N   UNL     1      17.850 -15.514  17.131  0.00  0.00    -0.354 N 
ATOM      2  N   UNL     1      16.862 -13.423  17.258  0.00  0.00    -0.372 N 
ATOM      3  N   UNL     1      15.933 -15.007  15.881  0.00  0.00    -0.372 N 
ATOM      4  C   UNL     1      16.886 -14.663  16.754  0.00  0.00    +0.166 C 
ATOM      5  H   UNL     1      18.561 -15.183  17.773  0.00  0.00    +0.163 HD
ATOM      6  H   UNL     1      16.145 -12.760  16.995  0.00  0.00    +0.159 HD
ATOM      7  H   UNL     1      17.547 -13.110  17.935  0.00  0.00    +0.159 HD
ATOM      8  H   UNL     1      15.900 -15.925  15.460  0.00  0.00    +0.159 HD
ATOM      9  H   UNL     1      15.215 -14.353  15.596  0.00  0.00    +0.159 HD
ENDROOT
BRANCH   1  10
ATOM     10  C   UNL     1      17.935 -16.903  16.682  0.00  0.00    +0.151 C 
BRANCH  10  11
ATOM     11  C   UNL     1      19.180 -17.076  15.856  0.00  0.00    -0.028 A 
ATOM     12  C   UNL     1      19.399 -18.261  15.139  0.00  0.00    +0.005 A 
ATOM     13  C   UNL     1      20.141 -16.056  15.782  0.00  0.00    +0.005 A 
ATOM     14  C   UNL     1      20.540 -18.411  14.347  0.00  0.00    +0.000 A 
ATOM     15  C   UNL     1      21.280 -16.210  14.991  0.00  0.00    +0.000 A 
ATOM     16  C   UNL     1      21.478 -17.386  14.272  0.00  0.00    +0.000 A 
ENDBRANCH  10  11
ENDBRANCH   1  10
TORSDOF 2
ENDMDL
MODEL 6
REMARK VINA RESULT:    -4.474     27.351     28.211
REMARK INTER + INTRA:          -5.090
REMARK INTER:                  -4.987
REMARK INTRA:                  -0.103
REMARK UNBOUND:                -0.092
REMARK  Name = 1550473
REMARK  2 active torsions:
REMARK  status: ('A' for Active; 'I' for Inactive)
REMARK    1  A    between atoms: N_1  and  C_4
REMARK    2  A    between atoms: C_4  and  C_5
REMARK                            x       y       z     vdW  Elec       q    Type
REMARK                         _______ _______ _______ _____ _____    ______ ____
ROOT
ATOM      1  N   UNL     1      -9.990   5.216  -9.211  0.00  0.00    -0.354 N 
ATOM      2  N   UNL     1     -11.376   5.330 -11.063  0.00  0.00    -0.372 N 
ATOM      3  N   UNL     1      -9.345   6.397 -11.129  0.00  0.00    -0.372 N 
ATOM      4  C   UNL     1     -10.226   5.648 -10.457  0.00  0.00    +0.166 C 
ATOM      5  H   UNL     1     -10.711   4.677  -8.744  0.00  0.00    +0.163 HD
ATOM      6  H   UNL     1     -11.580   5.639 -12.004  0.00  0.00    +0.159 HD
ATOM      7  H   UNL     1     -12.075   4.753 -10.611  0.00  0.00    +0.159 HD
ATOM      8  H   UNL     1      -8.462   6.677 -10.725  0.00  0.00    +0.159 HD
ATOM      9  H   UNL     1      -9.537   6.726 -12.067  0.00  0.00    +0.159 HD
ENDROOT
BRANCH   1  10
ATOM     10  C   UNL     1      -8.748   5.461  -8.481  0.00  0.00    +0.151 C 
BRANCH  10  11
ATOM     11  C   UNL     1      -8.971   5.178  -7.021  0.00  0.00    -0.028 A 
ATOM     12  C   UNL     1      -9.519   3.955  -6.609  0.00  0.00    +0.005 A 
ATOM     13  C   UNL     1      -8.631   6.127  -6.045  0.00  0.00    +0.005 A 
ATOM     14  C   UNL     1      -9.699   3.679  -5.251  0.00  0.00    +0.000 A 
ATOM     15  C   UNL     1      -8.813   5.849  -4.690  0.00  0.00    +0.000 A 
ATOM     16  C   UNL     1      -9.345   4.624  -4.294  0.00  0.00    +0.000 A 
ENDBRANCH  10  11
ENDBRANCH   1  10
TORSDOF 2
ENDMDL
MODEL 7
REMARK VINA RESULT:    -4.450     29.079     30.260
REMARK INTER + INTRA:          -5.062
REMARK INTER:                  -4.886
REMARK INTRA:                  -0.176
REMARK UNBOUND:                -0.092
REMARK  Name = 1550473
REMARK  2 active torsions:
REMARK  status: ('A' for Active; 'I' for Inactive)
REMARK    1  A    between atoms: N_1  and  C_4
REMARK    2  A    between atoms: C_4  and  C_5
REMARK                            x       y       z     vdW  Elec       q    Type
REMARK                         _______ _______ _______ _____ _____    ______ ____
ROOT
ATOM      1  N   UNL     1     -12.211   8.555  -5.290  0.00  0.00    -0.354 N 
ATOM      2  N   UNL     1     -12.347  10.857  -5.507  0.00  0.00    -0.372 N 
ATOM      3  N   UNL     1     -11.247   9.653  -7.122  0.00  0.00    -0.372 N 
ATOM      4  C   UNL     1     -11.932   9.673  -5.974  0.00  0.00    +0.166 C 
ATOM      5  H   UNL     1     -12.708   8.640  -4.411  0.00  0.00    +0.163 HD
ATOM      6  H   UNL     1     -12.155  11.717  -6.003  0.00  0.00    +0.159 HD
ATOM      7  H   UNL     1     -12.883  10.934  -4.652  0.00  0.00    +0.159 HD
ATOM      8  H   UNL     1     -10.901   8.793  -7.525  0.00  0.00    +0.159 HD
ATOM      9  H   UNL     1     -11.035  10.505  -7.627  0.00  0.00    +0.159 HD
ENDROOT
BRANCH   1  10
ATOM     10  C   UNL     1     -11.852   7.211  -5.739  0.00  0.00    +0.151 C 
BRANCH  10  11
ATOM     11  C   UNL     1     -10.715   6.699  -4.898  0.00  0.00    -0.028 A 
ATOM     12  C   UNL     1      -9.404   6.700  -5.396  0.00  0.00    +0.005 A 
ATOM     13  C   UNL     1     -10.942   6.218  -3.599  0.00  0.00    +0.005 A 
ATOM     14  C   UNL     1      -8.343   6.253  -4.604  0.00  0.00    +0.000 A 
ATOM     15  C   UNL     1      -9.880   5.772  -2.812  0.00  0.00    +0.000 A 
ATOM     16  C   UNL     1      -8.581   5.792  -3.313  0.00  0.00    +0.000 A 
ENDBRANCH  10  11
ENDBRANCH   1  10
TORSDOF 2
ENDMDL
MODEL 8
REMARK VINA RESULT:    -4.434     20.980     21.369
REMARK INTER + INTRA:          -5.044
REMARK INTER:                  -4.926
REMARK INTRA:                  -0.118
REMARK UNBOUND:                -0.092
REMARK  Name = 1550473
REMARK  2 active torsions:
REMARK  status: ('A' for Active; 'I' for Inactive)
REMARK    1  A    between atoms: N_1  and  C_4
REMARK    2  A    between atoms: C_4  and  C_5
REMARK                            x       y       z     vdW  Elec       q    Type
REMARK                         _______ _______ _______ _____ _____    ______ ____
ROOT
ATOM      1  N   UNL     1       7.837  -1.116  14.621  0.00  0.00    -0.354 N 
ATOM      2  N   UNL     1       8.925  -2.824  15.745  0.00  0.00    -0.372 N 
ATOM      3  N   UNL     1      10.139  -1.008  15.043  0.00  0.00    -0.372 N 
ATOM      4  C   UNL     1       8.962  -1.636  15.128  0.00  0.00    +0.166 C 
ATOM      5  H   UNL     1       6.982  -1.656  14.692  0.00  0.00    +0.163 HD
ATOM      6  H   UNL     1       9.757  -3.240  16.141  0.00  0.00    +0.159 HD
ATOM      7  H   UNL     1       8.060  -3.340  15.855  0.00  0.00    +0.159 HD
ATOM      8  H   UNL     1      10.236  -0.112  14.584  0.00  0.00    +0.159 HD
ATOM      9  H   UNL     1      10.985  -1.414  15.422  0.00  0.00    +0.159 HD
ENDROOT
BRANCH   1  10
ATOM     10  C   UNL     1       7.759   0.194  13.977  0.00  0.00    +0.151 C 
BRANCH  10  11
ATOM     11  C   UNL     1       6.450   0.306  13.246  0.00  0.00    -0.028 A 
ATOM     12  C   UNL     1       6.318   1.171  12.150  0.00  0.00    +0.005 A 
ATOM     13  C   UNL     1       5.339  -0.455  13.641  0.00  0.00    +0.005 A 
ATOM     14  C   UNL     1       5.111   1.253  11.452  0.00  0.00    +0.000 A 
ATOM     15  C   UNL     1       4.135  -0.370  12.942  0.00  0.00    +0.000 A 
ATOM     16  C   UNL     1       4.022   0.482  11.846  0.00  0.00    +0.000 A 
ENDBRANCH  10  11
ENDBRANCH   1  10
TORSDOF 2
ENDMDL
MODEL 9
REMARK VINA RESULT:    -4.424      5.678      7.242
REMARK INTER + INTRA:          -5.033
REMARK INTER:                  -4.942
REMARK INTRA:                  -0.091
REMARK UNBOUND:                -0.092
REMARK  Name = 1550473
REMARK  2 active torsions:
REMARK  status: ('A' for Active; 'I' for Inactive)
REMARK    1  A    between atoms: N_1  and  C_4
REMARK    2  A    between atoms: C_4  and  C_5
REMARK                            x       y       z     vdW  Elec       q    Type
REMARK                         _______ _______ _______ _____ _____    ______ ____
ROOT
ATOM      1  N   UNL     1      12.627 -17.070   4.470  0.00  0.00    -0.354 N 
ATOM      2  N   UNL     1      12.420 -18.468   6.304  0.00  0.00    -0.372 N 
ATOM      3  N   UNL     1      14.504 -17.704   5.721  0.00  0.00    -0.372 N 
ATOM      4  C   UNL     1      13.188 -17.738   5.486  0.00  0.00    +0.166 C 
ATOM      5  H   UNL     1      11.627 -17.160   4.327  0.00  0.00    +0.163 HD
ATOM      6  H   UNL     1      12.815 -18.980   7.082  0.00  0.00    +0.159 HD
ATOM      7  H   UNL     1      11.416 -18.520   6.187  0.00  0.00    +0.159 HD
ATOM      8  H   UNL     1      15.139 -17.176   5.137  0.00  0.00    +0.159 HD
ATOM      9  H   UNL     1      14.919 -18.219   6.487  0.00  0.00    +0.159 HD
ENDROOT
BRANCH   1  10
ATOM     10  C   UNL     1      13.366 -16.203   3.554  0.00  0.00    +0.151 C 
BRANCH  10  11
ATOM     11  C   UNL     1      12.418 -15.652   2.525  0.00  0.00    -0.028 A 
ATOM     12  C   UNL     1      11.894 -14.358   2.660  0.00  0.00    +0.005 A 
ATOM     13  C   UNL     1      12.044 -16.417   1.409  0.00  0.00    +0.005 A 
ATOM     14  C   UNL     1      11.036 -13.835   1.690  0.00  0.00    +0.000 A 
ATOM     15  C   UNL     1      11.186 -15.891   0.443  0.00  0.00    +0.000 A 
ATOM     16  C   UNL     1      10.685 -14.599   0.582  0.00  0.00    +0.000 A 
ENDBRANCH  10  11
ENDBRANCH   1  10
TORSDOF 2
ENDMDL
