MODEL 1
REMARK VINA RESULT:    -4.610      0.000      0.000
REMARK INTER + INTRA:          -5.272
REMARK INTER:                  -5.150
REMARK INTRA:                  -0.123
REMARK UNBOUND:                -0.123
REMARK  Name = 1550473
REMARK  2 active torsions:
REMARK  status: ('A' for Active; 'I' for Inactive)
REMARK    1  A    between atoms: N_1  and  C_4
REMARK    2  A    between atoms: C_4  and  C_5
REMARK                            x       y       z     vdW  Elec       q    Type
REMARK                         _______ _______ _______ _____ _____    ______ ____
ROOT
ATOM      1  N   UNL     1       0.788  10.289  -6.880  0.00  0.00    -0.354 N 
ATOM      2  N   UNL     1      -1.527  10.346  -6.852  0.00  0.00    -0.372 N 
ATOM      3  N   UNL     1      -0.369  11.561  -5.287  0.00  0.00    -0.372 N 
ATOM      4  C   UNL     1      -0.354  10.733  -6.337  0.00  0.00    +0.166 C 
ATOM      5  H   UNL     1       0.732   9.639  -7.656  0.00  0.00    +0.163 HD
ATOM      6  H   UNL     1      -2.405  10.667  -6.466  0.00  0.00    +0.159 HD
ATOM      7  H   UNL     1      -1.580   9.733  -7.656  0.00  0.00    +0.159 HD
ATOM      8  H   UNL     1       0.483  11.885  -4.849  0.00  0.00    +0.159 HD
ATOM      9  H   UNL     1      -1.237  11.884  -4.880  0.00  0.00    +0.159 HD
ENDROOT
BRANCH   1  10
ATOM     10  C   UNL     1       2.119  10.693  -6.429  0.00  0.00    +0.151 C 
BRANCH  10  11
ATOM     11  C   UNL     1       3.151  10.080  -7.334  0.00  0.00    -0.028 A 
ATOM     12  C   UNL     1       2.789   9.091  -8.260  0.00  0.00    +0.005 A 
ATOM     13  C   UNL     1       4.493  10.487  -7.274  0.00  0.00    +0.005 A 
ATOM     14  C   UNL     1       3.742   8.542  -9.122  0.00  0.00    +0.000 A 
ATOM     15  C   UNL     1       5.441   9.936  -8.136  0.00  0.00    +0.000 A 
ATOM     16  C   UNL     1       5.065   8.966  -9.061  0.00  0.00    +0.000 A 
ENDBRANCH  10  11
ENDBRANCH   1  10
TORSDOF 2
ENDMDL
MODEL 2
REMARK VINA RESULT:    -4.405     19.303     19.657
REMARK INTER + INTRA:          -5.042
REMARK INTER:                  -4.866
REMARK INTRA:                  -0.177
REMARK UNBOUND:                -0.123
REMARK  Name = 1550473
REMARK  2 active torsions:
REMARK  status: ('A' for Active; 'I' for Inactive)
REMARK    1  A    between atoms: N_1  and  C_4
REMARK    2  A    between atoms: C_4  and  C_5
REMARK                            x       y       z     vdW  Elec       q    Type
REMARK                         _______ _______ _______ _____ _____    ______ ____
ROOT
ATOM      1  N   UNL     1       9.452  -0.532   7.874  0.00  0.00    -0.354 N 
ATOM      2  N   UNL     1       9.497   1.742   8.309  0.00  0.00    -0.372 N 
ATOM      3  N   UNL     1      11.431   0.529   8.543  0.00  0.00    -0.372 N 
ATOM      4  C   UNL     1      10.129   0.564   8.240  0.00  0.00    +0.166 C 
ATOM      5  H   UNL     1       8.460  -0.445   7.686  0.00  0.00    +0.163 HD
ATOM      6  H   UNL     1       9.983   2.587   8.578  0.00  0.00    +0.159 HD
ATOM      7  H   UNL     1       8.516   1.835   8.076  0.00  0.00    +0.159 HD
ATOM      8  H   UNL     1      11.964  -0.329   8.517  0.00  0.00    +0.159 HD
ATOM      9  H   UNL     1      11.932   1.362   8.827  0.00  0.00    +0.159 HD
ENDROOT
BRANCH   1  10
ATOM     10  C   UNL     1      10.058  -1.853   7.716  0.00  0.00    +0.151 C 
BRANCH  10  11
ATOM     11  C   UNL     1      10.194  -2.159   6.250  0.00  0.00    -0.028 A 
ATOM     12  C   UNL     1       9.072  -2.523   5.491  0.00  0.00    +0.005 A 
ATOM     13  C   UNL     1      11.442  -2.080   5.612  0.00  0.00    +0.005 A 
ATOM     14  C   UNL     1       9.193  -2.778   4.123  0.00  0.00    +0.000 A 
ATOM     15  C   UNL     1      11.559  -2.337   4.246  0.00  0.00    +0.000 A 
ATOM     16  C   UNL     1      10.434  -2.683   3.502  0.00  0.00    +0.000 A 
ENDBRANCH  10  11
ENDBRANCH   1  10
TORSDOF 2
ENDMDL
MODEL 3
REMARK VINA RESULT:    -4.402      6.094      7.289
REMARK INTER + INTRA:          -5.040
REMARK INTER:                  -4.937
REMARK INTRA:                  -0.103
REMARK UNBOUND:                -0.123
REMARK  Name = 1550473
REMARK  2 active torsions:
REMARK  status: ('A' for Active; 'I' for Inactive)
REMARK    1  A    between atoms: N_1  and  C_4
REMARK    2  A    between atoms: C_4  and  C_5
REMARK                            x       y       z     vdW  Elec       q    Type
REMARK                         _______ _______ _______ _____ _____    ______ ____
ROOT
ATOM      1  N   UNL     1       5.717  10.282  -0.968  0.00  0.00    -0.354 N 
ATOM      2  N   UNL     1       6.525   8.511   0.287  0.00  0.00    -0.372 N 
ATOM      3  N   UNL     1       6.030  10.486   1.345  0.00  0.00    -0.372 N 
ATOM      4  C   UNL     1       6.085   9.774   0.215  0.00  0.00    +0.166 C 
ATOM      5  H   UNL     1       5.812   9.700  -1.793  0.00  0.00    +0.163 HD
ATOM      6  H   UNL     1       6.806   8.099   1.166  0.00  0.00    +0.159 HD
ATOM      7  H   UNL     1       6.574   7.917  -0.532  0.00  0.00    +0.159 HD
ATOM      8  H   UNL     1       5.713  11.447   1.358  0.00  0.00    +0.159 HD
ATOM      9  H   UNL     1       6.318  10.095   2.233  0.00  0.00    +0.159 HD
ENDROOT
BRANCH   1  10
ATOM     10  C   UNL     1       5.175  11.628  -1.147  0.00  0.00    +0.151 C 
BRANCH  10  11
ATOM     11  C   UNL     1       4.206  11.618  -2.297  0.00  0.00    -0.028 A 
ATOM     12  C   UNL     1       4.643  11.906  -3.598  0.00  0.00    +0.005 A 
ATOM     13  C   UNL     1       2.850  11.317  -2.093  0.00  0.00    +0.005 A 
ATOM     14  C   UNL     1       3.749  11.867  -4.672  0.00  0.00    +0.000 A 
ATOM     15  C   UNL     1       1.961  11.280  -3.167  0.00  0.00    +0.000 A 
ATOM     16  C   UNL     1       2.412  11.553  -4.456  0.00  0.00    +0.000 A 
ENDBRANCH  10  11
ENDBRANCH   1  10
TORSDOF 2
ENDMDL
MODEL 4
REMARK VINA RESULT:    -4.386     21.145     22.340
REMARK INTER + INTRA:          -5.021
REMARK INTER:                  -4.842
REMARK INTRA:                  -0.180
REMARK UNBOUND:                -0.123
REMARK  Name = 1550473
REMARK  2 active torsions:
REMARK  status: ('A' for Active; 'I' for Inactive)
REMARK    1  A    between atoms: N_1  and  C_4
REMARK    2  A    between atoms: C_4  and  C_5
REMARK                            x       y       z     vdW  Elec       q    Type
REMARK                         _______ _______ _______ _____ _____    ______ ____
ROOT
ATOM      1  N   UNL     1       2.912   9.421  16.017  0.00  0.00    -0.354 N 
ATOM      2  N   UNL     1       2.225   7.254  15.575  0.00  0.00    -0.372 N 
ATOM      3  N   UNL     1       4.329   7.904  14.930  0.00  0.00    -0.372 N 
ATOM      4  C   UNL     1       3.162   8.207  15.509  0.00  0.00    +0.166 C 
ATOM      5  H   UNL     1       1.997   9.597  16.416  0.00  0.00    +0.163 HD
ATOM      6  H   UNL     1       2.386   6.328  15.203  0.00  0.00    +0.159 HD
ATOM      7  H   UNL     1       1.328   7.418  16.015  0.00  0.00    +0.159 HD
ATOM      8  H   UNL     1       5.075   8.580  14.843  0.00  0.00    +0.159 HD
ATOM      9  H   UNL     1       4.505   6.986  14.541  0.00  0.00    +0.159 HD
ENDROOT
BRANCH   1  10
ATOM     10  C   UNL     1       3.884  10.512  16.044  0.00  0.00    +0.151 C 
BRANCH  10  11
ATOM     11  C   UNL     1       3.604  11.449  14.902  0.00  0.00    -0.028 A 
ATOM     12  C   UNL     1       2.441  12.234  14.894  0.00  0.00    +0.005 A 
ATOM     13  C   UNL     1       4.499  11.560  13.827  0.00  0.00    +0.005 A 
ATOM     14  C   UNL     1       2.195  13.126  13.847  0.00  0.00    +0.000 A 
ATOM     15  C   UNL     1       4.249  12.451  12.783  0.00  0.00    +0.000 A 
ATOM     16  C   UNL     1       3.098  13.235  12.795  0.00  0.00    +0.000 A 
ENDBRANCH  10  11
ENDBRANCH   1  10
TORSDOF 2
ENDMDL
MODEL 5
REMARK VINA RESULT:    -4.277      2.565      3.493
REMARK INTER + INTRA:          -4.900
REMARK INTER:                  -4.781
REMARK INTRA:                  -0.119
REMARK UNBOUND:                -0.123
REMARK  Name = 1550473
REMARK  2 active torsions:
REMARK  status: ('A' for Active; 'I' for Inactive)
REMARK    1  A    between atoms: N_1  and  C_4
REMARK    2  A    between atoms: C_4  and  C_5
REMARK                            x       y       z     vdW  Elec       q    Type
REMARK                         _______ _______ _______ _____ _____    ______ ____
ROOT
ATOM      1  N   UNL     1       3.133  11.455  -4.048  0.00  0.00    -0.354 N 
ATOM      2  N   UNL     1       3.570  11.055  -1.809  0.00  0.00    -0.372 N 
ATOM      3  N   UNL     1       1.388  11.182  -2.508  0.00  0.00    -0.372 N 
ATOM      4  C   UNL     1       2.691  11.234  -2.803  0.00  0.00    +0.166 C 
ATOM      5  H   UNL     1       4.133  11.512  -4.201  0.00  0.00    +0.163 HD
ATOM      6  H   UNL     1       3.266  10.883  -0.860  0.00  0.00    +0.159 HD
ATOM      7  H   UNL     1       4.569  11.068  -1.973  0.00  0.00    +0.159 HD
ATOM      8  H   UNL     1       0.674  11.314  -3.211  0.00  0.00    +0.159 HD
ATOM      9  H   UNL     1       1.064  11.022  -1.562  0.00  0.00    +0.159 HD
ENDROOT
BRANCH   1  10
ATOM     10  C   UNL     1       2.259  11.608  -5.210  0.00  0.00    +0.151 C 
BRANCH  10  11
ATOM     11  C   UNL     1       2.821  10.811  -6.355  0.00  0.00    -0.028 A 
ATOM     12  C   UNL     1       4.176  10.917  -6.699  0.00  0.00    +0.005 A 
ATOM     13  C   UNL     1       2.004   9.943  -7.096  0.00  0.00    +0.005 A 
ATOM     14  C   UNL     1       4.705  10.154  -7.743  0.00  0.00    +0.000 A 
ATOM     15  C   UNL     1       2.536   9.184  -8.139  0.00  0.00    +0.000 A 
ATOM     16  C   UNL     1       3.887   9.288  -8.460  0.00  0.00    +0.000 A 
ENDBRANCH  10  11
ENDBRANCH   1  10
TORSDOF 2
ENDMDL
MODEL 6
REMARK VINA RESULT:    -4.265     25.007     26.147
REMARK INTER + INTRA:          -4.886
REMARK INTER:                  -4.717
REMARK INTRA:                  -0.169
REMARK UNBOUND:                -0.123
REMARK  Name = 1550473
REMARK  2 active torsions:
REMARK  status: ('A' for Active; 'I' for Inactive)
REMARK    1  A    between atoms: N_1  and  C_4
REMARK    2  A    between atoms: C_4  and  C_5
REMARK                            x       y       z     vdW  Elec       q    Type
REMARK                         _______ _______ _______ _____ _____    ______ ____
ROOT
ATOM      1  N   UNL     1       3.131   7.267  16.634  0.00  0.00    -0.354 N 
ATOM      2  N   UNL     1       4.294   7.879  14.727  0.00  0.00    -0.372 N 
ATOM      3  N   UNL     1       4.195   9.350  16.486  0.00  0.00    -0.372 N 
ATOM      4  C   UNL     1       3.866   8.164  15.963  0.00  0.00    +0.166 C 
ATOM      5  H   UNL     1       2.890   6.398  16.171  0.00  0.00    +0.163 HD
ATOM      6  H   UNL     1       4.853   8.535  14.197  0.00  0.00    +0.159 HD
ATOM      7  H   UNL     1       4.090   6.992  14.284  0.00  0.00    +0.159 HD
ATOM      8  H   UNL     1       3.899   9.628  17.412  0.00  0.00    +0.159 HD
ATOM      9  H   UNL     1       4.744  10.024  15.967  0.00  0.00    +0.159 HD
ENDROOT
BRANCH   1  10
ATOM     10  C   UNL     1       2.661   7.457  18.005  0.00  0.00    +0.151 C 
BRANCH  10  11
ATOM     11  C   UNL     1       3.573   6.716  18.944  0.00  0.00    -0.028 A 
ATOM     12  C   UNL     1       3.954   7.288  20.167  0.00  0.00    +0.005 A 
ATOM     13  C   UNL     1       4.054   5.438  18.619  0.00  0.00    +0.005 A 
ATOM     14  C   UNL     1       4.776   6.587  21.052  0.00  0.00    +0.000 A 
ATOM     15  C   UNL     1       4.876   4.742  19.506  0.00  0.00    +0.000 A 
ATOM     16  C   UNL     1       5.235   5.316  20.723  0.00  0.00    +0.000 A 
ENDBRANCH  10  11
ENDBRANCH   1  10
TORSDOF 2
ENDMDL
MODEL 7
REMARK VINA RESULT:    -4.258      1.087      1.955
REMARK INTER + INTRA:          -4.879
REMARK INTER:                  -4.745
REMARK INTRA:                  -0.134
REMARK UNBOUND:                -0.123
REMARK  Name = 1550473
REMARK  2 active torsions:
REMARK  status: ('A' for Active; 'I' for Inactive)
REMARK    1  A    between atoms: N_1  and  C_4
REMARK    2  A    between atoms: C_4  and  C_5
REMARK                            x       y       z     vdW  Elec       q    Type
REMARK                         _______ _______ _______ _____ _____    ______ ____
ROOT
ATOM      1  N   UNL     1      -0.098  10.504  -6.089  0.00  0.00    -0.354 N 
ATOM      2  N   UNL     1      -2.194  10.612  -7.069  0.00  0.00    -0.372 N 
ATOM      3  N   UNL     1      -1.043  12.561  -6.695  0.00  0.00    -0.372 N 
ATOM      4  C   UNL     1      -1.098  11.228  -6.611  0.00  0.00    +0.166 C 
ATOM      5  H   UNL     1      -0.214   9.499  -6.026  0.00  0.00    +0.163 HD
ATOM      6  H   UNL     1      -2.963  11.132  -7.471  0.00  0.00    +0.159 HD
ATOM      7  H   UNL     1      -2.288   9.604  -7.046  0.00  0.00    +0.159 HD
ATOM      8  H   UNL     1      -0.245  13.087  -6.362  0.00  0.00    +0.159 HD
ATOM      9  H   UNL     1      -1.807  13.100  -7.084  0.00  0.00    +0.159 HD
ENDROOT
BRANCH   1  10
ATOM     10  C   UNL     1       1.161  11.073  -5.612  0.00  0.00    +0.151 C 
BRANCH  10  11
ATOM     11  C   UNL     1       2.277  10.620  -6.513  0.00  0.00    -0.028 A 
ATOM     12  C   UNL     1       3.566  11.156  -6.374  0.00  0.00    +0.005 A 
ATOM     13  C   UNL     1       2.053   9.652  -7.504  0.00  0.00    +0.005 A 
ATOM     14  C   UNL     1       4.609  10.714  -7.191  0.00  0.00    +0.000 A 
ATOM     15  C   UNL     1       3.097   9.214  -8.318  0.00  0.00    +0.000 A 
ATOM     16  C   UNL     1       4.376   9.743  -8.160  0.00  0.00    +0.000 A 
ENDBRANCH  10  11
ENDBRANCH   1  10
TORSDOF 2
ENDMDL
MODEL 8
REMARK VINA RESULT:    -4.219     27.488     28.632
REMARK INTER + INTRA:          -4.835
REMARK INTER:                  -4.742
REMARK INTRA:                  -0.093
REMARK UNBOUND:                -0.123
REMARK  Name = 1550473
REMARK  2 active torsions:
REMARK  status: ('A' for Active; 'I' for Inactive)
REMARK    1  A    between atoms: N_1  and  C_4
REMARK    2  A    between atoms: C_4  and  C_5
REMARK                            x       y       z     vdW  Elec       q    Type
REMARK                         _______ _______ _______ _____ _____    ______ ____
ROOT
ATOM      1  N   UNL     1      11.757  20.503  19.151  0.00  0.00    -0.354 N 
ATOM      2  N   UNL     1      13.074  21.299  20.883  0.00  0.00    -0.372 N 
ATOM      3  N   UNL     1      11.894  22.798  19.608  0.00  0.00    -0.372 N 
ATOM      4  C   UNL     1      12.232  21.531  19.868  0.00  0.00    +0.166 C 
ATOM      5  H   UNL     1      12.075  19.569  19.380  0.00  0.00    +0.163 HD
ATOM      6  H   UNL     1      13.446  22.053  21.443  0.00  0.00    +0.159 HD
ATOM      7  H   UNL     1      13.354  20.360  21.138  0.00  0.00    +0.159 HD
ATOM      8  H   UNL     1      11.267  23.040  18.852  0.00  0.00    +0.159 HD
ATOM      9  H   UNL     1      12.265  23.568  20.150  0.00  0.00    +0.159 HD
ENDROOT
BRANCH   1  10
ATOM     10  C   UNL     1      10.793  20.644  18.061  0.00  0.00    +0.151 C 
BRANCH  10  11
ATOM     11  C   UNL     1      10.789  19.381  17.244  0.00  0.00    -0.028 A 
ATOM     12  C   UNL     1      10.118  18.238  17.702  0.00  0.00    +0.005 A 
ATOM     13  C   UNL     1      11.451  19.323  16.007  0.00  0.00    +0.005 A 
ATOM     14  C   UNL     1      10.088  17.075  16.930  0.00  0.00    +0.000 A 
ATOM     15  C   UNL     1      11.420  18.159  15.239  0.00  0.00    +0.000 A 
ATOM     16  C   UNL     1      10.736  17.036  15.700  0.00  0.00    +0.000 A 
ENDBRANCH  10  11
ENDBRANCH   1  10
TORSDOF 2
ENDMDL
MODEL 9
REMARK VINA RESULT:    -4.177     37.175     38.118
REMARK INTER + INTRA:          -4.788
REMARK INTER:                  -4.677
REMARK INTRA:                  -0.111
REMARK UNBOUND:                -0.123
REMARK  Name = 1550473
REMARK  2 active torsions:
REMARK  status: ('A' for Active; 'I' for Inactive)
REMARK    1  A    between atoms: N_1  and  C_4
REMARK    2  A    between atoms: C_4  and  C_5
REMARK                            x       y       z     vdW  Elec       q    Type
REMARK                         _______ _______ _______ _____ _____    ______ ____
ROOT
ATOM      1  N   UNL     1       8.651  24.518  27.770  0.00  0.00    -0.354 N 
ATOM      2  N   UNL     1       8.794  26.719  27.065  0.00  0.00    -0.372 N 
ATOM      3  N   UNL     1      10.701  25.445  27.116  0.00  0.00    -0.372 N 
ATOM      4  C   UNL     1       9.384  25.545  27.321  0.00  0.00    +0.166 C 
ATOM      5  H   UNL     1       7.662  24.668  27.934  0.00  0.00    +0.163 HD
ATOM      6  H   UNL     1       9.321  27.511  26.722  0.00  0.00    +0.159 HD
ATOM      7  H   UNL     1       7.797  26.853  27.186  0.00  0.00    +0.159 HD
ATOM      8  H   UNL     1      11.207  24.588  27.296  0.00  0.00    +0.159 HD
ATOM      9  H   UNL     1      11.248  26.230  26.784  0.00  0.00    +0.159 HD
ENDROOT
BRANCH   1  10
ATOM     10  C   UNL     1       9.186  23.183  28.029  0.00  0.00    +0.151 C 
BRANCH  10  11
ATOM     11  C   UNL     1       8.054  22.193  28.043  0.00  0.00    -0.028 A 
ATOM     12  C   UNL     1       6.831  22.520  28.647  0.00  0.00    +0.005 A 
ATOM     13  C   UNL     1       8.196  20.930  27.449  0.00  0.00    +0.005 A 
ATOM     14  C   UNL     1       5.769  21.612  28.635  0.00  0.00    +0.000 A 
ATOM     15  C   UNL     1       7.133  20.026  27.440  0.00  0.00    +0.000 A 
ATOM     16  C   UNL     1       5.919  20.369  28.030  0.00  0.00    +0.000 A 
ENDBRANCH  10  11
ENDBRANCH   1  10
TORSDOF 2
ENDMDL
