MODEL 1
REMARK VINA RESULT:    -5.537      0.000      0.000
REMARK INTER + INTRA:          -6.277
REMARK INTER:                  -6.184
REMARK INTRA:                  -0.093
REMARK UNBOUND:                -0.093
REMARK  Name = 1550473
REMARK  2 active torsions:
REMARK  status: ('A' for Active; 'I' for Inactive)
REMARK    1  A    between atoms: N_1  and  C_4
REMARK    2  A    between atoms: C_4  and  C_5
REMARK                            x       y       z     vdW  Elec       q    Type
REMARK                         _______ _______ _______ _____ _____    ______ ____
ROOT
ATOM      1  N   UNL     1      -2.612  -6.496  -3.985  0.00  0.00    -0.354 N 
ATOM      2  N   UNL     1      -2.197  -4.530  -5.138  0.00  0.00    -0.372 N 
ATOM      3  N   UNL     1      -4.313  -4.925  -4.345  0.00  0.00    -0.372 N 
ATOM      4  C   UNL     1      -3.046  -5.330  -4.481  0.00  0.00    +0.166 C 
ATOM      5  H   UNL     1      -1.647  -6.759  -4.148  0.00  0.00    +0.163 HD
ATOM      6  H   UNL     1      -2.495  -3.643  -5.520  0.00  0.00    +0.159 HD
ATOM      7  H   UNL     1      -1.221  -4.775  -5.260  0.00  0.00    +0.159 HD
ATOM      8  H   UNL     1      -5.006  -5.485  -3.865  0.00  0.00    +0.159 HD
ATOM      9  H   UNL     1      -4.634  -4.046  -4.731  0.00  0.00    +0.159 HD
ENDROOT
BRANCH   1  10
ATOM     10  C   UNL     1      -3.443  -7.414  -3.208  0.00  0.00    +0.151 C 
BRANCH  10  11
ATOM     11  C   UNL     1      -4.182  -8.324  -4.149  0.00  0.00    -0.028 A 
ATOM     12  C   UNL     1      -3.548  -8.831  -5.294  0.00  0.00    +0.005 A 
ATOM     13  C   UNL     1      -5.514  -8.689  -3.900  0.00  0.00    +0.005 A 
ATOM     14  C   UNL     1      -4.224  -9.701  -6.153  0.00  0.00    +0.000 A 
ATOM     15  C   UNL     1      -6.186  -9.556  -4.761  0.00  0.00    +0.000 A 
ATOM     16  C   UNL     1      -5.540 -10.064  -5.885  0.00  0.00    +0.000 A 
ENDBRANCH  10  11
ENDBRANCH   1  10
TORSDOF 2
ENDMDL
MODEL 2
REMARK VINA RESULT:    -5.264     19.658     20.771
REMARK INTER + INTRA:          -5.973
REMARK INTER:                  -5.862
REMARK INTRA:                  -0.111
REMARK UNBOUND:                -0.093
REMARK  Name = 1550473
REMARK  2 active torsions:
REMARK  status: ('A' for Active; 'I' for Inactive)
REMARK    1  A    between atoms: N_1  and  C_4
REMARK    2  A    between atoms: C_4  and  C_5
REMARK                            x       y       z     vdW  Elec       q    Type
REMARK                         _______ _______ _______ _____ _____    ______ ____
ROOT
ATOM      1  N   UNL     1       1.236  -3.256  15.589  0.00  0.00    -0.354 N 
ATOM      2  N   UNL     1       2.582  -1.440  16.095  0.00  0.00    -0.372 N 
ATOM      3  N   UNL     1       3.421  -3.104  14.755  0.00  0.00    -0.372 N 
ATOM      4  C   UNL     1       2.406  -2.613  15.475  0.00  0.00    +0.166 C 
ATOM      5  H   UNL     1       0.517  -2.846  16.174  0.00  0.00    +0.163 HD
ATOM      6  H   UNL     1       3.453  -0.931  16.024  0.00  0.00    +0.159 HD
ATOM      7  H   UNL     1       1.846  -1.010  16.641  0.00  0.00    +0.159 HD
ATOM      8  H   UNL     1       3.355  -3.987  14.268  0.00  0.00    +0.159 HD
ATOM      9  H   UNL     1       4.305  -2.614  14.682  0.00  0.00    +0.159 HD
ENDROOT
BRANCH   1  10
ATOM     10  C   UNL     1       0.924  -4.512  14.910  0.00  0.00    +0.151 C 
BRANCH  10  11
ATOM     11  C   UNL     1      -0.536  -4.821  15.096  0.00  0.00    -0.028 A 
ATOM     12  C   UNL     1      -1.277  -5.408  14.060  0.00  0.00    +0.005 A 
ATOM     13  C   UNL     1      -1.183  -4.535  16.308  0.00  0.00    +0.005 A 
ATOM     14  C   UNL     1      -2.626  -5.723  14.242  0.00  0.00    +0.000 A 
ATOM     15  C   UNL     1      -2.530  -4.850  16.486  0.00  0.00    +0.000 A 
ATOM     16  C   UNL     1      -3.250  -5.446  15.454  0.00  0.00    +0.000 A 
ENDBRANCH  10  11
ENDBRANCH   1  10
TORSDOF 2
ENDMDL
MODEL 3
REMARK VINA RESULT:    -5.256      3.354      4.975
REMARK INTER + INTRA:          -5.964
REMARK INTER:                  -5.834
REMARK INTRA:                  -0.129
REMARK UNBOUND:                -0.093
REMARK  Name = 1550473
REMARK  2 active torsions:
REMARK  status: ('A' for Active; 'I' for Inactive)
REMARK    1  A    between atoms: N_1  and  C_4
REMARK    2  A    between atoms: C_4  and  C_5
REMARK                            x       y       z     vdW  Elec       q    Type
REMARK                         _______ _______ _______ _____ _____    ______ ____
ROOT
ATOM      1  N   UNL     1      -6.158  -9.885  -5.600  0.00  0.00    -0.354 N 
ATOM      2  N   UNL     1      -5.782 -11.634  -7.071  0.00  0.00    -0.372 N 
ATOM      3  N   UNL     1      -5.354 -11.951  -4.839  0.00  0.00    -0.372 N 
ATOM      4  C   UNL     1      -5.766 -11.146  -5.825  0.00  0.00    +0.166 C 
ATOM      5  H   UNL     1      -6.431  -9.317  -6.394  0.00  0.00    +0.163 HD
ATOM      6  H   UNL     1      -5.495 -12.583  -7.271  0.00  0.00    +0.159 HD
ATOM      7  H   UNL     1      -6.098 -11.079  -7.857  0.00  0.00    +0.159 HD
ATOM      8  H   UNL     1      -5.313 -11.641  -3.877  0.00  0.00    +0.159 HD
ATOM      9  H   UNL     1      -5.052 -12.900  -5.021  0.00  0.00    +0.159 HD
ENDROOT
BRANCH   1  10
ATOM     10  C   UNL     1      -6.229  -9.275  -4.274  0.00  0.00    +0.151 C 
BRANCH  10  11
ATOM     11  C   UNL     1      -5.406  -8.017  -4.267  0.00  0.00    -0.028 A 
ATOM     12  C   UNL     1      -5.797  -6.906  -5.029  0.00  0.00    +0.005 A 
ATOM     13  C   UNL     1      -4.237  -7.927  -3.496  0.00  0.00    +0.005 A 
ATOM     14  C   UNL     1      -5.049  -5.727  -4.999  0.00  0.00    +0.000 A 
ATOM     15  C   UNL     1      -3.492  -6.748  -3.470  0.00  0.00    +0.000 A 
ATOM     16  C   UNL     1      -3.899  -5.647  -4.220  0.00  0.00    +0.000 A 
ENDBRANCH  10  11
ENDBRANCH   1  10
TORSDOF 2
ENDMDL
MODEL 4
REMARK VINA RESULT:    -5.239      1.343      2.393
REMARK INTER + INTRA:          -5.945
REMARK INTER:                  -5.824
REMARK INTRA:                  -0.121
REMARK UNBOUND:                -0.093
REMARK  Name = 1550473
REMARK  2 active torsions:
REMARK  status: ('A' for Active; 'I' for Inactive)
REMARK    1  A    between atoms: N_1  and  C_4
REMARK    2  A    between atoms: C_4  and  C_5
REMARK                            x       y       z     vdW  Elec       q    Type
REMARK                         _______ _______ _______ _____ _____    ______ ____
ROOT
ATOM      1  N   UNL     1      -4.316  -7.076  -5.075  0.00  0.00    -0.354 N 
ATOM      2  N   UNL     1      -4.218  -4.874  -4.365  0.00  0.00    -0.372 N 
ATOM      3  N   UNL     1      -2.667  -6.366  -3.570  0.00  0.00    -0.372 N 
ATOM      4  C   UNL     1      -3.732  -6.121  -4.340  0.00  0.00    +0.166 C 
ATOM      5  H   UNL     1      -5.139  -6.833  -5.615  0.00  0.00    +0.163 HD
ATOM      6  H   UNL     1      -3.796  -4.131  -3.824  0.00  0.00    +0.159 HD
ATOM      7  H   UNL     1      -5.013  -4.623  -4.941  0.00  0.00    +0.159 HD
ATOM      8  H   UNL     1      -2.256  -7.288  -3.502  0.00  0.00    +0.159 HD
ATOM      9  H   UNL     1      -2.238  -5.639  -3.011  0.00  0.00    +0.159 HD
ENDROOT
BRANCH   1  10
ATOM     10  C   UNL     1      -3.833  -8.453  -5.159  0.00  0.00    +0.151 C 
BRANCH  10  11
ATOM     11  C   UNL     1      -4.910  -9.382  -4.669  0.00  0.00    -0.028 A 
ATOM     12  C   UNL     1      -5.956  -8.900  -3.869  0.00  0.00    +0.005 A 
ATOM     13  C   UNL     1      -4.892 -10.745  -5.006  0.00  0.00    +0.005 A 
ATOM     14  C   UNL     1      -6.972  -9.757  -3.438  0.00  0.00    +0.000 A 
ATOM     15  C   UNL     1      -5.908 -11.597  -4.573  0.00  0.00    +0.000 A 
ATOM     16  C   UNL     1      -6.949 -11.102  -3.791  0.00  0.00    +0.000 A 
ENDBRANCH  10  11
ENDBRANCH   1  10
TORSDOF 2
ENDMDL
MODEL 5
REMARK VINA RESULT:    -5.093      3.487      5.019
REMARK INTER + INTRA:          -5.782
REMARK INTER:                  -5.669
REMARK INTRA:                  -0.113
REMARK UNBOUND:                -0.093
REMARK  Name = 1550473
REMARK  2 active torsions:
REMARK  status: ('A' for Active; 'I' for Inactive)
REMARK    1  A    between atoms: N_1  and  C_4
REMARK    2  A    between atoms: C_4  and  C_5
REMARK                            x       y       z     vdW  Elec       q    Type
REMARK                         _______ _______ _______ _____ _____    ______ ____
ROOT
ATOM      1  N   UNL     1      -5.924  -9.956  -4.006  0.00  0.00    -0.354 N 
ATOM      2  N   UNL     1      -7.788 -11.274  -3.620  0.00  0.00    -0.372 N 
ATOM      3  N   UNL     1      -6.571 -11.610  -5.535  0.00  0.00    -0.372 N 
ATOM      4  C   UNL     1      -6.748 -10.939  -4.392  0.00  0.00    +0.166 C 
ATOM      5  H   UNL     1      -6.130  -9.466  -3.143  0.00  0.00    +0.163 HD
ATOM      6  H   UNL     1      -8.426 -12.014  -3.883  0.00  0.00    +0.159 HD
ATOM      7  H   UNL     1      -7.966 -10.814  -2.735  0.00  0.00    +0.159 HD
ATOM      8  H   UNL     1      -5.808 -11.401  -6.166  0.00  0.00    +0.159 HD
ATOM      9  H   UNL     1      -7.205 -12.345  -5.822  0.00  0.00    +0.159 HD
ENDROOT
BRANCH   1  10
ATOM     10  C   UNL     1      -4.731  -9.551  -4.748  0.00  0.00    +0.151 C 
BRANCH  10  11
ATOM     11  C   UNL     1      -4.524  -8.071  -4.574  0.00  0.00    -0.028 A 
ATOM     12  C   UNL     1      -3.457  -7.588  -3.802  0.00  0.00    +0.005 A 
ATOM     13  C   UNL     1      -5.388  -7.148  -5.182  0.00  0.00    +0.005 A 
ATOM     14  C   UNL     1      -3.246  -6.214  -3.664  0.00  0.00    +0.000 A 
ATOM     15  C   UNL     1      -5.174  -5.776  -5.042  0.00  0.00    +0.000 A 
ATOM     16  C   UNL     1      -4.102  -5.310  -4.285  0.00  0.00    +0.000 A 
ENDBRANCH  10  11
ENDBRANCH   1  10
TORSDOF 2
ENDMDL
MODEL 6
REMARK VINA RESULT:    -5.081      6.496      9.046
REMARK INTER + INTRA:          -5.768
REMARK INTER:                  -5.604
REMARK INTRA:                  -0.164
REMARK UNBOUND:                -0.093
REMARK  Name = 1550473
REMARK  2 active torsions:
REMARK  status: ('A' for Active; 'I' for Inactive)
REMARK    1  A    between atoms: N_1  and  C_4
REMARK    2  A    between atoms: C_4  and  C_5
REMARK                            x       y       z     vdW  Elec       q    Type
REMARK                         _______ _______ _______ _____ _____    ______ ____
ROOT
ATOM      1  N   UNL     1      -2.857  -2.767  -8.739  0.00  0.00    -0.354 N 
ATOM      2  N   UNL     1      -4.384  -2.670  -7.000  0.00  0.00    -0.372 N 
ATOM      3  N   UNL     1      -2.209  -3.237  -6.536  0.00  0.00    -0.372 N 
ATOM      4  C   UNL     1      -3.138  -2.893  -7.435  0.00  0.00    +0.166 C 
ATOM      5  H   UNL     1      -3.612  -2.533  -9.373  0.00  0.00    +0.163 HD
ATOM      6  H   UNL     1      -4.625  -2.754  -6.021  0.00  0.00    +0.159 HD
ATOM      7  H   UNL     1      -5.126  -2.391  -7.629  0.00  0.00    +0.159 HD
ATOM      8  H   UNL     1      -1.251  -3.425  -6.801  0.00  0.00    +0.159 HD
ATOM      9  H   UNL     1      -2.433  -3.338  -5.554  0.00  0.00    +0.159 HD
ENDROOT
BRANCH   1  10
ATOM     10  C   UNL     1      -1.521  -2.935  -9.307  0.00  0.00    +0.151 C 
BRANCH  10  11
ATOM     11  C   UNL     1      -0.964  -1.583  -9.661  0.00  0.00    -0.028 A 
ATOM     12  C   UNL     1       0.336  -1.226  -9.274  0.00  0.00    +0.005 A 
ATOM     13  C   UNL     1      -1.729  -0.658 -10.387  0.00  0.00    +0.005 A 
ATOM     14  C   UNL     1       0.865   0.018  -9.628  0.00  0.00    +0.000 A 
ATOM     15  C   UNL     1      -1.198   0.583 -10.737  0.00  0.00    +0.000 A 
ATOM     16  C   UNL     1       0.100   0.920 -10.360  0.00  0.00    +0.000 A 
ENDBRANCH  10  11
ENDBRANCH   1  10
TORSDOF 2
ENDMDL
MODEL 7
REMARK VINA RESULT:    -5.054      4.464      5.682
REMARK INTER + INTRA:          -5.738
REMARK INTER:                  -5.609
REMARK INTRA:                  -0.130
REMARK UNBOUND:                -0.093
REMARK  Name = 1550473
REMARK  2 active torsions:
REMARK  status: ('A' for Active; 'I' for Inactive)
REMARK    1  A    between atoms: N_1  and  C_4
REMARK    2  A    between atoms: C_4  and  C_5
REMARK                            x       y       z     vdW  Elec       q    Type
REMARK                         _______ _______ _______ _____ _____    ______ ____
ROOT
ATOM      1  N   UNL     1      -6.576 -11.081  -7.012  0.00  0.00    -0.354 N 
ATOM      2  N   UNL     1      -8.302 -11.965  -8.278  0.00  0.00    -0.372 N 
ATOM      3  N   UNL     1      -6.233 -11.722  -9.240  0.00  0.00    -0.372 N 
ATOM      4  C   UNL     1      -7.024 -11.583  -8.170  0.00  0.00    +0.166 C 
ATOM      5  H   UNL     1      -7.234 -10.973  -6.248  0.00  0.00    +0.163 HD
ATOM      6  H   UNL     1      -8.667 -12.351  -9.138  0.00  0.00    +0.159 HD
ATOM      7  H   UNL     1      -8.945 -11.900  -7.499  0.00  0.00    +0.159 HD
ATOM      8  H   UNL     1      -5.260 -11.447  -9.225  0.00  0.00    +0.159 HD
ATOM      9  H   UNL     1      -6.583 -12.095 -10.113  0.00  0.00    +0.159 HD
ENDROOT
BRANCH   1  10
ATOM     10  C   UNL     1      -5.189 -10.685  -6.774  0.00  0.00    +0.151 C 
BRANCH  10  11
ATOM     11  C   UNL     1      -5.172  -9.417  -5.965  0.00  0.00    -0.028 A 
ATOM     12  C   UNL     1      -4.396  -9.326  -4.800  0.00  0.00    +0.005 A 
ATOM     13  C   UNL     1      -5.926  -8.301  -6.361  0.00  0.00    +0.005 A 
ATOM     14  C   UNL     1      -4.356  -8.138  -4.065  0.00  0.00    +0.000 A 
ATOM     15  C   UNL     1      -5.884  -7.118  -5.624  0.00  0.00    +0.000 A 
ATOM     16  C   UNL     1      -5.097  -7.036  -4.478  0.00  0.00    +0.000 A 
ENDBRANCH  10  11
ENDBRANCH   1  10
TORSDOF 2
ENDMDL
MODEL 8
REMARK VINA RESULT:    -5.031      7.400     10.104
REMARK INTER + INTRA:          -5.712
REMARK INTER:                  -5.577
REMARK INTRA:                  -0.135
REMARK UNBOUND:                -0.093
REMARK  Name = 1550473
REMARK  2 active torsions:
REMARK  status: ('A' for Active; 'I' for Inactive)
REMARK    1  A    between atoms: N_1  and  C_4
REMARK    2  A    between atoms: C_4  and  C_5
REMARK                            x       y       z     vdW  Elec       q    Type
REMARK                         _______ _______ _______ _____ _____    ______ ____
ROOT
ATOM      1  N   UNL     1      -1.293  -2.115  -8.650  0.00  0.00    -0.354 N 
ATOM      2  N   UNL     1      -1.968  -3.316  -6.788  0.00  0.00    -0.372 N 
ATOM      3  N   UNL     1      -3.563  -2.523  -8.234  0.00  0.00    -0.372 N 
ATOM      4  C   UNL     1      -2.273  -2.643  -7.904  0.00  0.00    +0.166 C 
ATOM      5  H   UNL     1      -0.337  -2.215  -8.329  0.00  0.00    +0.163 HD
ATOM      6  H   UNL     1      -2.686  -3.728  -6.206  0.00  0.00    +0.159 HD
ATOM      7  H   UNL     1      -1.009  -3.453  -6.494  0.00  0.00    +0.159 HD
ATOM      8  H   UNL     1      -3.860  -2.023  -9.061  0.00  0.00    +0.159 HD
ATOM      9  H   UNL     1      -4.296  -2.919  -7.659  0.00  0.00    +0.159 HD
ENDROOT
BRANCH   1  10
ATOM     10  C   UNL     1      -1.515  -1.411  -9.911  0.00  0.00    +0.151 C 
BRANCH  10  11
ATOM     11  C   UNL     1      -0.550  -0.262 -10.008  0.00  0.00    -0.028 A 
ATOM     12  C   UNL     1      -0.626   0.644 -11.077  0.00  0.00    +0.005 A 
ATOM     13  C   UNL     1       0.439  -0.069  -9.032  0.00  0.00    +0.005 A 
ATOM     14  C   UNL     1       0.251   1.729 -11.151  0.00  0.00    +0.000 A 
ATOM     15  C   UNL     1       1.314   1.015  -9.110  0.00  0.00    +0.000 A 
ATOM     16  C   UNL     1       1.218   1.915 -10.169  0.00  0.00    +0.000 A 
ENDBRANCH  10  11
ENDBRANCH   1  10
TORSDOF 2
ENDMDL
MODEL 9
REMARK VINA RESULT:    -4.887     21.031     22.282
REMARK INTER + INTRA:          -5.552
REMARK INTER:                  -5.385
REMARK INTRA:                  -0.167
REMARK UNBOUND:                -0.093
REMARK  Name = 1550473
REMARK  2 active torsions:
REMARK  status: ('A' for Active; 'I' for Inactive)
REMARK    1  A    between atoms: N_1  and  C_4
REMARK    2  A    between atoms: C_4  and  C_5
REMARK                            x       y       z     vdW  Elec       q    Type
REMARK                         _______ _______ _______ _____ _____    ______ ____
ROOT
ATOM      1  N   UNL     1       4.508  -2.706  15.900  0.00  0.00    -0.354 N 
ATOM      2  N   UNL     1       2.583  -1.419  15.953  0.00  0.00    -0.372 N 
ATOM      3  N   UNL     1       2.587  -3.360  14.729  0.00  0.00    -0.372 N 
ATOM      4  C   UNL     1       3.237  -2.505  15.525  0.00  0.00    +0.166 C 
ATOM      5  H   UNL     1       4.954  -2.005  16.481  0.00  0.00    +0.163 HD
ATOM      6  H   UNL     1       1.622  -1.243  15.689  0.00  0.00    +0.159 HD
ATOM      7  H   UNL     1       3.017  -0.744  16.570  0.00  0.00    +0.159 HD
ATOM      8  H   UNL     1       3.026  -4.196  14.367  0.00  0.00    +0.159 HD
ATOM      9  H   UNL     1       1.629  -3.195  14.444  0.00  0.00    +0.159 HD
ENDROOT
BRANCH   1  10
ATOM     10  C   UNL     1       5.293  -3.883  15.534  0.00  0.00    +0.151 C 
BRANCH  10  11
ATOM     11  C   UNL     1       6.349  -3.480  14.542  0.00  0.00    -0.028 A 
ATOM     12  C   UNL     1       7.681  -3.314  14.948  0.00  0.00    +0.005 A 
ATOM     13  C   UNL     1       6.025  -3.269  13.193  0.00  0.00    +0.005 A 
ATOM     14  C   UNL     1       8.668  -2.969  14.022  0.00  0.00    +0.000 A 
ATOM     15  C   UNL     1       7.013  -2.924  12.271  0.00  0.00    +0.000 A 
ATOM     16  C   UNL     1       8.334  -2.776  12.685  0.00  0.00    +0.000 A 
ENDBRANCH  10  11
ENDBRANCH   1  10
TORSDOF 2
ENDMDL
