MODEL 1
REMARK VINA RESULT:    -6.324      0.000      0.000
REMARK INTER + INTRA:          -7.193
REMARK INTER:                  -7.064
REMARK INTRA:                  -0.129
REMARK UNBOUND:                -0.129
REMARK  Name = 1550473
REMARK  2 active torsions:
REMARK  status: ('A' for Active; 'I' for Inactive)
REMARK    1  A    between atoms: N_1  and  C_4
REMARK    2  A    between atoms: C_4  and  C_5
REMARK                            x       y       z     vdW  Elec       q    Type
REMARK                         _______ _______ _______ _____ _____    ______ ____
ROOT
ATOM      1  N   UNL     1       6.640   5.763  16.738  0.00  0.00    -0.354 N 
ATOM      2  N   UNL     1       8.714   4.945  17.366  0.00  0.00    -0.372 N 
ATOM      3  N   UNL     1       6.841   4.148  18.425  0.00  0.00    -0.372 N 
ATOM      4  C   UNL     1       7.383   4.956  17.507  0.00  0.00    +0.166 C 
ATOM      5  H   UNL     1       7.114   6.373  16.082  0.00  0.00    +0.163 HD
ATOM      6  H   UNL     1       9.300   4.345  17.930  0.00  0.00    +0.159 HD
ATOM      7  H   UNL     1       9.182   5.523  16.678  0.00  0.00    +0.159 HD
ATOM      8  H   UNL     1       5.843   4.113  18.584  0.00  0.00    +0.159 HD
ATOM      9  H   UNL     1       7.412   3.548  19.007  0.00  0.00    +0.159 HD
ENDROOT
BRANCH   1  10
ATOM     10  C   UNL     1       5.180   5.811  16.775  0.00  0.00    +0.151 C 
BRANCH  10  11
ATOM     11  C   UNL     1       4.662   6.093  15.392  0.00  0.00    -0.028 A 
ATOM     12  C   UNL     1       5.313   5.565  14.267  0.00  0.00    +0.005 A 
ATOM     13  C   UNL     1       3.518   6.883  15.199  0.00  0.00    +0.005 A 
ATOM     14  C   UNL     1       4.815   5.802  12.983  0.00  0.00    +0.000 A 
ATOM     15  C   UNL     1       3.025   7.118  13.915  0.00  0.00    +0.000 A 
ATOM     16  C   UNL     1       3.672   6.575  12.808  0.00  0.00    +0.000 A 
ENDBRANCH  10  11
ENDBRANCH   1  10
TORSDOF 2
ENDMDL
MODEL 2
REMARK VINA RESULT:    -6.313      6.284      7.788
REMARK INTER + INTRA:          -7.180
REMARK INTER:                  -7.051
REMARK INTRA:                  -0.129
REMARK UNBOUND:                -0.129
REMARK  Name = 1550473
REMARK  2 active torsions:
REMARK  status: ('A' for Active; 'I' for Inactive)
REMARK    1  A    between atoms: N_1  and  C_4
REMARK    2  A    between atoms: C_4  and  C_5
REMARK                            x       y       z     vdW  Elec       q    Type
REMARK                         _______ _______ _______ _____ _____    ______ ____
ROOT
ATOM      1  N   UNL     1       7.887   8.388  11.284  0.00  0.00    -0.354 N 
ATOM      2  N   UNL     1       7.256   9.412  13.263  0.00  0.00    -0.372 N 
ATOM      3  N   UNL     1       7.269  10.649  11.330  0.00  0.00    -0.372 N 
ATOM      4  C   UNL     1       7.475   9.479  11.944  0.00  0.00    +0.166 C 
ATOM      5  H   UNL     1       8.054   7.540  11.812  0.00  0.00    +0.163 HD
ATOM      6  H   UNL     1       6.941  10.217  13.788  0.00  0.00    +0.159 HD
ATOM      7  H   UNL     1       7.379   8.551  13.781  0.00  0.00    +0.159 HD
ATOM      8  H   UNL     1       7.422  10.766  10.337  0.00  0.00    +0.159 HD
ATOM      9  H   UNL     1       6.966  11.469  11.840  0.00  0.00    +0.159 HD
ENDROOT
BRANCH   1  10
ATOM     10  C   UNL     1       8.103   8.341   9.839  0.00  0.00    +0.151 C 
BRANCH  10  11
ATOM     11  C   UNL     1       9.169   7.325   9.535  0.00  0.00    -0.028 A 
ATOM     12  C   UNL     1      10.162   7.030  10.481  0.00  0.00    +0.005 A 
ATOM     13  C   UNL     1       9.190   6.651   8.304  0.00  0.00    +0.005 A 
ATOM     14  C   UNL     1      11.135   6.065  10.210  0.00  0.00    +0.000 A 
ATOM     15  C   UNL     1      10.164   5.688   8.038  0.00  0.00    +0.000 A 
ATOM     16  C   UNL     1      11.135   5.394   8.992  0.00  0.00    +0.000 A 
ENDBRANCH  10  11
ENDBRANCH   1  10
TORSDOF 2
ENDMDL
MODEL 3
REMARK VINA RESULT:    -5.996      7.407      8.508
REMARK INTER + INTRA:          -6.826
REMARK INTER:                  -6.657
REMARK INTRA:                  -0.169
REMARK UNBOUND:                -0.129
REMARK  Name = 1550473
REMARK  2 active torsions:
REMARK  status: ('A' for Active; 'I' for Inactive)
REMARK    1  A    between atoms: N_1  and  C_4
REMARK    2  A    between atoms: C_4  and  C_5
REMARK                            x       y       z     vdW  Elec       q    Type
REMARK                         _______ _______ _______ _____ _____    ______ ____
ROOT
ATOM      1  N   UNL     1      12.394   4.424  10.402  0.00  0.00    -0.354 N 
ATOM      2  N   UNL     1      12.388   2.241  11.176  0.00  0.00    -0.372 N 
ATOM      3  N   UNL     1      12.208   2.618   8.920  0.00  0.00    -0.372 N 
ATOM      4  C   UNL     1      12.329   3.108  10.158  0.00  0.00    +0.166 C 
ATOM      5  H   UNL     1      12.455   4.732  11.366  0.00  0.00    +0.163 HD
ATOM      6  H   UNL     1      12.345   1.242  11.023  0.00  0.00    +0.159 HD
ATOM      7  H   UNL     1      12.495   2.551  12.134  0.00  0.00    +0.159 HD
ATOM      8  H   UNL     1      12.153   3.220   8.109  0.00  0.00    +0.159 HD
ATOM      9  H   UNL     1      12.152   1.622   8.747  0.00  0.00    +0.159 HD
ENDROOT
BRANCH   1  10
ATOM     10  C   UNL     1      12.393   5.450   9.361  0.00  0.00    +0.151 C 
BRANCH  10  11
ATOM     11  C   UNL     1      11.061   6.147   9.359  0.00  0.00    -0.028 A 
ATOM     12  C   UNL     1      10.637   6.876  10.480  0.00  0.00    +0.005 A 
ATOM     13  C   UNL     1      10.220   6.088   8.237  0.00  0.00    +0.005 A 
ATOM     14  C   UNL     1       9.413   7.548  10.468  0.00  0.00    +0.000 A 
ATOM     15  C   UNL     1       8.998   6.761   8.229  0.00  0.00    +0.000 A 
ATOM     16  C   UNL     1       8.596   7.493   9.344  0.00  0.00    +0.000 A 
ENDBRANCH  10  11
ENDBRANCH   1  10
TORSDOF 2
ENDMDL
MODEL 4
REMARK VINA RESULT:    -5.948      4.320      5.542
REMARK INTER + INTRA:          -6.772
REMARK INTER:                  -6.630
REMARK INTRA:                  -0.142
REMARK UNBOUND:                -0.129
REMARK  Name = 1550473
REMARK  2 active torsions:
REMARK  status: ('A' for Active; 'I' for Inactive)
REMARK    1  A    between atoms: N_1  and  C_4
REMARK    2  A    between atoms: C_4  and  C_5
REMARK                            x       y       z     vdW  Elec       q    Type
REMARK                         _______ _______ _______ _____ _____    ______ ____
ROOT
ATOM      1  N   UNL     1       7.558   8.588  12.054  0.00  0.00    -0.354 N 
ATOM      2  N   UNL     1       8.115   8.707   9.809  0.00  0.00    -0.372 N 
ATOM      3  N   UNL     1       7.053  10.492  10.784  0.00  0.00    -0.372 N 
ATOM      4  C   UNL     1       7.570   9.264  10.897  0.00  0.00    +0.166 C 
ATOM      5  H   UNL     1       7.940   7.649  12.066  0.00  0.00    +0.163 HD
ATOM      6  H   UNL     1       8.141   9.194   8.923  0.00  0.00    +0.159 HD
ATOM      7  H   UNL     1       8.536   7.787   9.835  0.00  0.00    +0.159 HD
ATOM      8  H   UNL     1       6.622  10.965  11.567  0.00  0.00    +0.159 HD
ATOM      9  H   UNL     1       7.059  10.991   9.904  0.00  0.00    +0.159 HD
ENDROOT
BRANCH   1  10
ATOM     10  C   UNL     1       7.038   9.125  13.310  0.00  0.00    +0.151 C 
BRANCH  10  11
ATOM     11  C   UNL     1       6.113   8.115  13.931  0.00  0.00    -0.028 A 
ATOM     12  C   UNL     1       5.362   8.442  15.069  0.00  0.00    +0.005 A 
ATOM     13  C   UNL     1       5.980   6.830  13.382  0.00  0.00    +0.005 A 
ATOM     14  C   UNL     1       4.480   7.514  15.628  0.00  0.00    +0.000 A 
ATOM     15  C   UNL     1       5.099   5.906  13.944  0.00  0.00    +0.000 A 
ATOM     16  C   UNL     1       4.348   6.249  15.065  0.00  0.00    +0.000 A 
ENDBRANCH  10  11
ENDBRANCH   1  10
TORSDOF 2
ENDMDL
MODEL 5
REMARK VINA RESULT:    -5.884      7.845      8.898
REMARK INTER + INTRA:          -6.701
REMARK INTER:                  -6.595
REMARK INTRA:                  -0.106
REMARK UNBOUND:                -0.129
REMARK  Name = 1550473
REMARK  2 active torsions:
REMARK  status: ('A' for Active; 'I' for Inactive)
REMARK    1  A    between atoms: N_1  and  C_4
REMARK    2  A    between atoms: C_4  and  C_5
REMARK                            x       y       z     vdW  Elec       q    Type
REMARK                         _______ _______ _______ _____ _____    ______ ____
ROOT
ATOM      1  N   UNL     1      12.015   3.209   9.979  0.00  0.00    -0.354 N 
ATOM      2  N   UNL     1      12.562   1.292  11.157  0.00  0.00    -0.372 N 
ATOM      3  N   UNL     1      13.145   1.437   8.943  0.00  0.00    -0.372 N 
ATOM      4  C   UNL     1      12.571   1.991  10.016  0.00  0.00    +0.166 C 
ATOM      5  H   UNL     1      11.570   3.561  10.819  0.00  0.00    +0.163 HD
ATOM      6  H   UNL     1      12.977   0.372  11.217  0.00  0.00    +0.159 HD
ATOM      7  H   UNL     1      12.157   1.665  12.008  0.00  0.00    +0.159 HD
ATOM      8  H   UNL     1      13.179   1.910   8.050  0.00  0.00    +0.159 HD
ATOM      9  H   UNL     1      13.555   0.512   8.979  0.00  0.00    +0.159 HD
ENDROOT
BRANCH   1  10
ATOM     10  C   UNL     1      12.019   4.075   8.801  0.00  0.00    +0.151 C 
BRANCH  10  11
ATOM     11  C   UNL     1      11.120   5.254   9.055  0.00  0.00    -0.028 A 
ATOM     12  C   UNL     1      10.180   5.652   8.093  0.00  0.00    +0.005 A 
ATOM     13  C   UNL     1      11.200   5.973  10.257  0.00  0.00    +0.005 A 
ATOM     14  C   UNL     1       9.325   6.728   8.340  0.00  0.00    +0.000 A 
ATOM     15  C   UNL     1      10.345   7.048  10.499  0.00  0.00    +0.000 A 
ATOM     16  C   UNL     1       9.406   7.423   9.542  0.00  0.00    +0.000 A 
ENDBRANCH  10  11
ENDBRANCH   1  10
TORSDOF 2
ENDMDL
MODEL 6
REMARK VINA RESULT:    -5.850      8.108      9.142
REMARK INTER + INTRA:          -6.663
REMARK INTER:                  -6.554
REMARK INTRA:                  -0.109
REMARK UNBOUND:                -0.129
REMARK  Name = 1550473
REMARK  2 active torsions:
REMARK  status: ('A' for Active; 'I' for Inactive)
REMARK    1  A    between atoms: N_1  and  C_4
REMARK    2  A    between atoms: C_4  and  C_5
REMARK                            x       y       z     vdW  Elec       q    Type
REMARK                         _______ _______ _______ _____ _____    ______ ____
ROOT
ATOM      1  N   UNL     1      12.808   4.939   8.704  0.00  0.00    -0.354 N 
ATOM      2  N   UNL     1      13.695   3.738   6.933  0.00  0.00    -0.372 N 
ATOM      3  N   UNL     1      12.467   2.628   8.521  0.00  0.00    -0.372 N 
ATOM      4  C   UNL     1      12.983   3.774   8.066  0.00  0.00    +0.166 C 
ATOM      5  H   UNL     1      13.251   5.767   8.323  0.00  0.00    +0.163 HD
ATOM      6  H   UNL     1      13.840   2.875   6.427  0.00  0.00    +0.159 HD
ATOM      7  H   UNL     1      14.097   4.576   6.530  0.00  0.00    +0.159 HD
ATOM      8  H   UNL     1      11.925   2.586   9.374  0.00  0.00    +0.159 HD
ATOM      9  H   UNL     1      12.612   1.751   8.036  0.00  0.00    +0.159 HD
ENDROOT
BRANCH   1  10
ATOM     10  C   UNL     1      12.005   5.095   9.916  0.00  0.00    +0.151 C 
BRANCH  10  11
ATOM     11  C   UNL     1      10.833   5.989   9.617  0.00  0.00    -0.028 A 
ATOM     12  C   UNL     1      10.152   5.885   8.395  0.00  0.00    +0.005 A 
ATOM     13  C   UNL     1      10.396   6.937  10.554  0.00  0.00    +0.005 A 
ATOM     14  C   UNL     1       9.045   6.694   8.129  0.00  0.00    +0.000 A 
ATOM     15  C   UNL     1       9.290   7.744  10.284  0.00  0.00    +0.000 A 
ATOM     16  C   UNL     1       8.614   7.620   9.073  0.00  0.00    +0.000 A 
ENDBRANCH  10  11
ENDBRANCH   1  10
TORSDOF 2
ENDMDL
MODEL 7
REMARK VINA RESULT:    -5.374      1.756      2.091
REMARK INTER + INTRA:          -6.131
REMARK INTER:                  -5.987
REMARK INTRA:                  -0.145
REMARK UNBOUND:                -0.129
REMARK  Name = 1550473
REMARK  2 active torsions:
REMARK  status: ('A' for Active; 'I' for Inactive)
REMARK    1  A    between atoms: N_1  and  C_4
REMARK    2  A    between atoms: C_4  and  C_5
REMARK                            x       y       z     vdW  Elec       q    Type
REMARK                         _______ _______ _______ _____ _____    ______ ____
ROOT
ATOM      1  N   UNL     1       6.941   6.375  17.722  0.00  0.00    -0.354 N 
ATOM      2  N   UNL     1       7.703   6.891  19.848  0.00  0.00    -0.372 N 
ATOM      3  N   UNL     1       6.058   5.309  19.613  0.00  0.00    -0.372 N 
ATOM      4  C   UNL     1       6.894   6.186  19.048  0.00  0.00    +0.166 C 
ATOM      5  H   UNL     1       7.575   7.077  17.358  0.00  0.00    +0.163 HD
ATOM      6  H   UNL     1       7.692   6.767  20.851  0.00  0.00    +0.159 HD
ATOM      7  H   UNL     1       8.369   7.559  19.478  0.00  0.00    +0.159 HD
ATOM      8  H   UNL     1       5.417   4.751  19.065  0.00  0.00    +0.159 HD
ATOM      9  H   UNL     1       6.024   5.180  20.616  0.00  0.00    +0.159 HD
ENDROOT
BRANCH   1  10
ATOM     10  C   UNL     1       6.140   5.621  16.759  0.00  0.00    +0.151 C 
BRANCH  10  11
ATOM     11  C   UNL     1       5.294   6.579  15.967  0.00  0.00    -0.028 A 
ATOM     12  C   UNL     1       4.354   6.102  15.042  0.00  0.00    +0.005 A 
ATOM     13  C   UNL     1       5.422   7.966  16.142  0.00  0.00    +0.005 A 
ATOM     14  C   UNL     1       3.546   6.990  14.328  0.00  0.00    +0.000 A 
ATOM     15  C   UNL     1       4.615   8.850  15.426  0.00  0.00    +0.000 A 
ATOM     16  C   UNL     1       3.675   8.361  14.522  0.00  0.00    +0.000 A 
ENDBRANCH  10  11
ENDBRANCH   1  10
TORSDOF 2
ENDMDL
MODEL 8
REMARK VINA RESULT:    -4.874      8.814      9.688
REMARK INTER + INTRA:          -5.572
REMARK INTER:                  -5.460
REMARK INTRA:                  -0.112
REMARK UNBOUND:                -0.129
REMARK  Name = 1550473
REMARK  2 active torsions:
REMARK  status: ('A' for Active; 'I' for Inactive)
REMARK    1  A    between atoms: N_1  and  C_4
REMARK    2  A    between atoms: C_4  and  C_5
REMARK                            x       y       z     vdW  Elec       q    Type
REMARK                         _______ _______ _______ _____ _____    ______ ____
ROOT
ATOM      1  N   UNL     1      12.910   9.471   9.362  0.00  0.00    -0.354 N 
ATOM      2  N   UNL     1      13.993  11.504   9.125  0.00  0.00    -0.372 N 
ATOM      3  N   UNL     1      14.115  10.410  11.139  0.00  0.00    -0.372 N 
ATOM      4  C   UNL     1      13.666  10.448   9.880  0.00  0.00    +0.166 C 
ATOM      5  H   UNL     1      12.576   9.573   8.411  0.00  0.00    +0.163 HD
ATOM      6  H   UNL     1      14.566  12.255   9.488  0.00  0.00    +0.159 HD
ATOM      7  H   UNL     1      13.697  11.582   8.160  0.00  0.00    +0.159 HD
ATOM      8  H   UNL     1      13.898   9.644  11.762  0.00  0.00    +0.159 HD
ATOM      9  H   UNL     1      14.679  11.158  11.523  0.00  0.00    +0.159 HD
ENDROOT
BRANCH   1  10
ATOM     10  C   UNL     1      12.542   8.253  10.082  0.00  0.00    +0.151 C 
BRANCH  10  11
ATOM     11  C   UNL     1      11.300   7.673   9.465  0.00  0.00    -0.028 A 
ATOM     12  C   UNL     1      10.127   8.437   9.374  0.00  0.00    +0.005 A 
ATOM     13  C   UNL     1      11.290   6.363   8.963  0.00  0.00    +0.005 A 
ATOM     14  C   UNL     1       8.981   7.909   8.774  0.00  0.00    +0.000 A 
ATOM     15  C   UNL     1      10.144   5.839   8.365  0.00  0.00    +0.000 A 
ATOM     16  C   UNL     1       8.991   6.614   8.268  0.00  0.00    +0.000 A 
ENDBRANCH  10  11
ENDBRANCH   1  10
TORSDOF 2
ENDMDL
MODEL 9
REMARK VINA RESULT:    -4.744      8.291      9.331
REMARK INTER + INTRA:          -5.428
REMARK INTER:                  -5.293
REMARK INTRA:                  -0.134
REMARK UNBOUND:                -0.129
REMARK  Name = 1550473
REMARK  2 active torsions:
REMARK  status: ('A' for Active; 'I' for Inactive)
REMARK    1  A    between atoms: N_1  and  C_4
REMARK    2  A    between atoms: C_4  and  C_5
REMARK                            x       y       z     vdW  Elec       q    Type
REMARK                         _______ _______ _______ _____ _____    ______ ____
ROOT
ATOM      1  N   UNL     1      12.839   9.694   9.166  0.00  0.00    -0.354 N 
ATOM      2  N   UNL     1      13.980  10.243  11.105  0.00  0.00    -0.372 N 
ATOM      3  N   UNL     1      13.861   8.040  10.475  0.00  0.00    -0.372 N 
ATOM      4  C   UNL     1      13.553   9.319  10.236  0.00  0.00    +0.166 C 
ATOM      5  H   UNL     1      12.613  10.676   9.058  0.00  0.00    +0.163 HD
ATOM      6  H   UNL     1      14.524   9.991  11.920  0.00  0.00    +0.159 HD
ATOM      7  H   UNL     1      13.792  11.229  10.970  0.00  0.00    +0.159 HD
ATOM      8  H   UNL     1      13.564   7.294   9.861  0.00  0.00    +0.159 HD
ATOM      9  H   UNL     1      14.394   7.767  11.291  0.00  0.00    +0.159 HD
ENDROOT
BRANCH   1  10
ATOM     10  C   UNL     1      12.372   8.772   8.131  0.00  0.00    +0.151 C 
BRANCH  10  11
ATOM     11  C   UNL     1      10.974   8.328   8.464  0.00  0.00    -0.028 A 
ATOM     12  C   UNL     1      10.544   7.033   8.142  0.00  0.00    +0.005 A 
ATOM     13  C   UNL     1      10.078   9.196   9.106  0.00  0.00    +0.005 A 
ATOM     14  C   UNL     1       9.255   6.610   8.477  0.00  0.00    +0.000 A 
ATOM     15  C   UNL     1       8.792   8.770   9.438  0.00  0.00    +0.000 A 
ATOM     16  C   UNL     1       8.382   7.476   9.126  0.00  0.00    +0.000 A 
ENDBRANCH  10  11
ENDBRANCH   1  10
TORSDOF 2
ENDMDL
