MODEL 1
REMARK VINA RESULT:    -5.575      0.000      0.000
REMARK INTER + INTRA:          -6.396
REMARK INTER:                  -6.226
REMARK INTRA:                  -0.170
REMARK UNBOUND:                -0.170
REMARK  Name = 1550473
REMARK  2 active torsions:
REMARK  status: ('A' for Active; 'I' for Inactive)
REMARK    1  A    between atoms: N_1  and  C_4
REMARK    2  A    between atoms: C_4  and  C_5
REMARK                            x       y       z     vdW  Elec       q    Type
REMARK                         _______ _______ _______ _____ _____    ______ ____
ROOT
ATOM      1  N   UNL     1       0.884  14.458  -2.413  0.00  0.00    -0.354 N 
ATOM      2  N   UNL     1      -0.569  16.241  -2.139  0.00  0.00    -0.372 N 
ATOM      3  N   UNL     1       1.667  16.561  -1.737  0.00  0.00    -0.372 N 
ATOM      4  C   UNL     1       0.673  15.743  -2.097  0.00  0.00    +0.166 C 
ATOM      5  H   UNL     1       0.084  13.883  -2.649  0.00  0.00    +0.163 HD
ATOM      6  H   UNL     1      -0.759  17.207  -1.910  0.00  0.00    +0.159 HD
ATOM      7  H   UNL     1      -1.361  15.675  -2.420  0.00  0.00    +0.159 HD
ATOM      8  H   UNL     1       2.626  16.245  -1.679  0.00  0.00    +0.159 HD
ATOM      9  H   UNL     1       1.496  17.528  -1.492  0.00  0.00    +0.159 HD
ENDROOT
BRANCH   1  10
ATOM     10  C   UNL     1       2.205  13.832  -2.450  0.00  0.00    +0.151 C 
BRANCH  10  11
ATOM     11  C   UNL     1       2.389  12.999  -1.212  0.00  0.00    -0.028 A 
ATOM     12  C   UNL     1       1.387  12.109  -0.797  0.00  0.00    +0.005 A 
ATOM     13  C   UNL     1       3.565  13.091  -0.452  0.00  0.00    +0.005 A 
ATOM     14  C   UNL     1       1.570  11.313   0.336  0.00  0.00    +0.000 A 
ATOM     15  C   UNL     1       3.743  12.296   0.680  0.00  0.00    +0.000 A 
ATOM     16  C   UNL     1       2.747  11.405   1.072  0.00  0.00    +0.000 A 
ENDBRANCH  10  11
ENDBRANCH   1  10
TORSDOF 2
ENDMDL
MODEL 2
REMARK VINA RESULT:    -5.302      3.014      4.044
REMARK INTER + INTRA:          -6.092
REMARK INTER:                  -5.929
REMARK INTRA:                  -0.163
REMARK UNBOUND:                -0.170
REMARK  Name = 1550473
REMARK  2 active torsions:
REMARK  status: ('A' for Active; 'I' for Inactive)
REMARK    1  A    between atoms: N_1  and  C_4
REMARK    2  A    between atoms: C_4  and  C_5
REMARK                            x       y       z     vdW  Elec       q    Type
REMARK                         _______ _______ _______ _____ _____    ______ ____
ROOT
ATOM      1  N   UNL     1       5.783  13.747  -1.163  0.00  0.00    -0.354 N 
ATOM      2  N   UNL     1       7.230  13.568  -2.963  0.00  0.00    -0.372 N 
ATOM      3  N   UNL     1       5.493  15.063  -3.081  0.00  0.00    -0.372 N 
ATOM      4  C   UNL     1       6.157  14.129  -2.392  0.00  0.00    +0.166 C 
ATOM      5  H   UNL     1       6.311  13.012  -0.706  0.00  0.00    +0.163 HD
ATOM      6  H   UNL     1       7.538  13.838  -3.887  0.00  0.00    +0.159 HD
ATOM      7  H   UNL     1       7.783  12.867  -2.485  0.00  0.00    +0.159 HD
ATOM      8  H   UNL     1       4.672  15.520  -2.708  0.00  0.00    +0.159 HD
ATOM      9  H   UNL     1       5.779  15.338  -4.012  0.00  0.00    +0.159 HD
ENDROOT
BRANCH   1  10
ATOM     10  C   UNL     1       4.662  14.333  -0.431  0.00  0.00    +0.151 C 
BRANCH  10  11
ATOM     11  C   UNL     1       3.600  13.286  -0.238  0.00  0.00    -0.028 A 
ATOM     12  C   UNL     1       3.621  12.449   0.887  0.00  0.00    +0.005 A 
ATOM     13  C   UNL     1       2.566  13.130  -1.174  0.00  0.00    +0.005 A 
ATOM     14  C   UNL     1       2.618  11.497   1.082  0.00  0.00    +0.000 A 
ATOM     15  C   UNL     1       1.567  12.177  -0.976  0.00  0.00    +0.000 A 
ATOM     16  C   UNL     1       1.592  11.363   0.153  0.00  0.00    +0.000 A 
ENDBRANCH  10  11
ENDBRANCH   1  10
TORSDOF 2
ENDMDL
MODEL 3
REMARK VINA RESULT:    -5.254      1.006      1.911
REMARK INTER + INTRA:          -6.038
REMARK INTER:                  -5.881
REMARK INTRA:                  -0.158
REMARK UNBOUND:                -0.170
REMARK  Name = 1550473
REMARK  2 active torsions:
REMARK  status: ('A' for Active; 'I' for Inactive)
REMARK    1  A    between atoms: N_1  and  C_4
REMARK    2  A    between atoms: C_4  and  C_5
REMARK                            x       y       z     vdW  Elec       q    Type
REMARK                         _______ _______ _______ _____ _____    ______ ____
ROOT
ATOM      1  N   UNL     1       1.084  14.491  -2.334  0.00  0.00    -0.354 N 
ATOM      2  N   UNL     1      -0.366  16.237  -1.870  0.00  0.00    -0.372 N 
ATOM      3  N   UNL     1       1.811  16.718  -2.412  0.00  0.00    -0.372 N 
ATOM      4  C   UNL     1       0.855  15.805  -2.208  0.00  0.00    +0.166 C 
ATOM      5  H   UNL     1       0.324  13.849  -2.136  0.00  0.00    +0.163 HD
ATOM      6  H   UNL     1      -0.569  17.222  -1.771  0.00  0.00    +0.159 HD
ATOM      7  H   UNL     1      -1.135  15.595  -1.718  0.00  0.00    +0.159 HD
ATOM      8  H   UNL     1       2.755  16.457  -2.664  0.00  0.00    +0.159 HD
ATOM      9  H   UNL     1       1.630  17.708  -2.307  0.00  0.00    +0.159 HD
ENDROOT
BRANCH   1  10
ATOM     10  C   UNL     1       2.363  13.920  -2.751  0.00  0.00    +0.151 C 
BRANCH  10  11
ATOM     11  C   UNL     1       3.151  13.536  -1.529  0.00  0.00    -0.028 A 
ATOM     12  C   UNL     1       4.175  14.368  -1.052  0.00  0.00    +0.005 A 
ATOM     13  C   UNL     1       2.875  12.345  -0.840  0.00  0.00    +0.005 A 
ATOM     14  C   UNL     1       4.887  14.026   0.100  0.00  0.00    +0.000 A 
ATOM     15  C   UNL     1       3.589  12.007   0.309  0.00  0.00    +0.000 A 
ATOM     16  C   UNL     1       4.594  12.849   0.781  0.00  0.00    +0.000 A 
ENDBRANCH  10  11
ENDBRANCH   1  10
TORSDOF 2
ENDMDL
MODEL 4
REMARK VINA RESULT:    -5.194      3.073      4.693
REMARK INTER + INTRA:          -5.971
REMARK INTER:                  -5.831
REMARK INTRA:                  -0.140
REMARK UNBOUND:                -0.170
REMARK  Name = 1550473
REMARK  2 active torsions:
REMARK  status: ('A' for Active; 'I' for Inactive)
REMARK    1  A    between atoms: N_1  and  C_4
REMARK    2  A    between atoms: C_4  and  C_5
REMARK                            x       y       z     vdW  Elec       q    Type
REMARK                         _______ _______ _______ _____ _____    ______ ____
ROOT
ATOM      1  N   UNL     1       2.785  13.541  -0.447  0.00  0.00    -0.354 N 
ATOM      2  N   UNL     1       0.826  12.590  -1.235  0.00  0.00    -0.372 N 
ATOM      3  N   UNL     1       2.251  11.309   0.027  0.00  0.00    -0.372 N 
ATOM      4  C   UNL     1       1.968  12.484  -0.545  0.00  0.00    +0.166 C 
ATOM      5  H   UNL     1       2.528  14.394  -0.930  0.00  0.00    +0.163 HD
ATOM      6  H   UNL     1       0.188  11.810  -1.323  0.00  0.00    +0.159 HD
ATOM      7  H   UNL     1       0.549  13.457  -1.677  0.00  0.00    +0.159 HD
ATOM      8  H   UNL     1       3.101  11.162   0.556  0.00  0.00    +0.159 HD
ATOM      9  H   UNL     1       1.631  10.514  -0.060  0.00  0.00    +0.159 HD
ENDROOT
BRANCH   1  10
ATOM     10  C   UNL     1       4.027  13.546   0.325  0.00  0.00    +0.151 C 
BRANCH  10  11
ATOM     11  C   UNL     1       5.130  14.118  -0.523  0.00  0.00    -0.028 A 
ATOM     12  C   UNL     1       6.272  14.671   0.074  0.00  0.00    +0.005 A 
ATOM     13  C   UNL     1       5.041  14.104  -1.923  0.00  0.00    +0.005 A 
ATOM     14  C   UNL     1       7.310  15.175  -0.713  0.00  0.00    +0.000 A 
ATOM     15  C   UNL     1       6.080  14.609  -2.705  0.00  0.00    +0.000 A 
ATOM     16  C   UNL     1       7.215  15.142  -2.100  0.00  0.00    +0.000 A 
ENDBRANCH  10  11
ENDBRANCH   1  10
TORSDOF 2
ENDMDL
MODEL 5
REMARK VINA RESULT:    -4.886     11.804     13.215
REMARK INTER + INTRA:          -5.627
REMARK INTER:                  -5.471
REMARK INTRA:                  -0.156
REMARK UNBOUND:                -0.170
REMARK  Name = 1550473
REMARK  2 active torsions:
REMARK  status: ('A' for Active; 'I' for Inactive)
REMARK    1  A    between atoms: N_1  and  C_4
REMARK    2  A    between atoms: C_4  and  C_5
REMARK                            x       y       z     vdW  Elec       q    Type
REMARK                         _______ _______ _______ _____ _____    ______ ____
ROOT
ATOM      1  N   UNL     1      11.594  17.146   1.862  0.00  0.00    -0.354 N 
ATOM      2  N   UNL     1      11.231  15.347   0.450  0.00  0.00    -0.372 N 
ATOM      3  N   UNL     1      12.302  14.990   2.448  0.00  0.00    -0.372 N 
ATOM      4  C   UNL     1      11.713  15.838   1.598  0.00  0.00    +0.166 C 
ATOM      5  H   UNL     1      11.164  17.741   1.163  0.00  0.00    +0.163 HD
ATOM      6  H   UNL     1      11.303  14.364   0.224  0.00  0.00    +0.159 HD
ATOM      7  H   UNL     1      10.761  15.936  -0.226  0.00  0.00    +0.159 HD
ATOM      8  H   UNL     1      12.691  15.299   3.328  0.00  0.00    +0.159 HD
ATOM      9  H   UNL     1      12.394  14.005   2.235  0.00  0.00    +0.159 HD
ENDROOT
BRANCH   1  10
ATOM     10  C   UNL     1      12.037  17.773   3.107  0.00  0.00    +0.151 C 
BRANCH  10  11
ATOM     11  C   UNL     1      13.449  18.260   2.936  0.00  0.00    -0.028 A 
ATOM     12  C   UNL     1      14.498  17.671   3.656  0.00  0.00    +0.005 A 
ATOM     13  C   UNL     1      13.745  19.308   2.051  0.00  0.00    +0.005 A 
ATOM     14  C   UNL     1      15.814  18.103   3.475  0.00  0.00    +0.000 A 
ATOM     15  C   UNL     1      15.060  19.738   1.874  0.00  0.00    +0.000 A 
ATOM     16  C   UNL     1      16.095  19.134   2.584  0.00  0.00    +0.000 A 
ENDBRANCH  10  11
ENDBRANCH   1  10
TORSDOF 2
ENDMDL
MODEL 6
REMARK VINA RESULT:    -4.780     12.026     13.516
REMARK INTER + INTRA:          -5.509
REMARK INTER:                  -5.383
REMARK INTRA:                  -0.125
REMARK UNBOUND:                -0.170
REMARK  Name = 1550473
REMARK  2 active torsions:
REMARK  status: ('A' for Active; 'I' for Inactive)
REMARK    1  A    between atoms: N_1  and  C_4
REMARK    2  A    between atoms: C_4  and  C_5
REMARK                            x       y       z     vdW  Elec       q    Type
REMARK                         _______ _______ _______ _____ _____    ______ ____
ROOT
ATOM      1  N   UNL     1      -4.519   1.710  -0.695  0.00  0.00    -0.354 N 
ATOM      2  N   UNL     1      -5.905   2.272   1.073  0.00  0.00    -0.372 N 
ATOM      3  N   UNL     1      -5.661   0.060   0.515  0.00  0.00    -0.372 N 
ATOM      4  C   UNL     1      -5.353   1.341   0.286  0.00  0.00    +0.166 C 
ATOM      5  H   UNL     1      -4.349   2.699  -0.836  0.00  0.00    +0.163 HD
ATOM      6  H   UNL     1      -6.535   2.024   1.824  0.00  0.00    +0.159 HD
ATOM      7  H   UNL     1      -5.698   3.257   0.959  0.00  0.00    +0.159 HD
ATOM      8  H   UNL     1      -5.283  -0.690  -0.047  0.00  0.00    +0.159 HD
ATOM      9  H   UNL     1      -6.299  -0.208   1.254  0.00  0.00    +0.159 HD
ENDROOT
BRANCH   1  10
ATOM     10  C   UNL     1      -3.823   0.771  -1.573  0.00  0.00    +0.151 C 
BRANCH  10  11
ATOM     11  C   UNL     1      -2.702   1.490  -2.271  0.00  0.00    -0.028 A 
ATOM     12  C   UNL     1      -2.343   2.791  -1.889  0.00  0.00    +0.005 A 
ATOM     13  C   UNL     1      -1.990   0.873  -3.312  0.00  0.00    +0.005 A 
ATOM     14  C   UNL     1      -1.282   3.448  -2.517  0.00  0.00    +0.000 A 
ATOM     15  C   UNL     1      -0.932   1.533  -3.937  0.00  0.00    +0.000 A 
ATOM     16  C   UNL     1      -0.576   2.819  -3.537  0.00  0.00    +0.000 A 
ENDBRANCH  10  11
ENDBRANCH   1  10
TORSDOF 2
ENDMDL
MODEL 7
REMARK VINA RESULT:    -4.743     11.382     12.634
REMARK INTER + INTRA:          -5.467
REMARK INTER:                  -5.331
REMARK INTRA:                  -0.136
REMARK UNBOUND:                -0.170
REMARK  Name = 1550473
REMARK  2 active torsions:
REMARK  status: ('A' for Active; 'I' for Inactive)
REMARK    1  A    between atoms: N_1  and  C_4
REMARK    2  A    between atoms: C_4  and  C_5
REMARK                            x       y       z     vdW  Elec       q    Type
REMARK                         _______ _______ _______ _____ _____    ______ ____
ROOT
ATOM      1  N   UNL     1      -1.011   2.504  -3.736  0.00  0.00    -0.354 N 
ATOM      2  N   UNL     1       0.483   1.367  -5.092  0.00  0.00    -0.372 N 
ATOM      3  N   UNL     1       1.298   2.629  -3.358  0.00  0.00    -0.372 N 
ATOM      4  C   UNL     1       0.249   2.175  -4.052  0.00  0.00    +0.166 C 
ATOM      5  H   UNL     1      -1.761   2.151  -4.320  0.00  0.00    +0.163 HD
ATOM      6  H   UNL     1       1.423   1.099  -5.352  0.00  0.00    +0.159 HD
ATOM      7  H   UNL     1      -0.271   0.979  -5.646  0.00  0.00    +0.159 HD
ATOM      8  H   UNL     1       1.189   3.247  -2.565  0.00  0.00    +0.159 HD
ATOM      9  H   UNL     1       2.247   2.382  -3.610  0.00  0.00    +0.159 HD
ENDROOT
BRANCH   1  10
ATOM     10  C   UNL     1      -1.378   3.334  -2.590  0.00  0.00    +0.151 C 
BRANCH  10  11
ATOM     11  C   UNL     1      -2.565   2.721  -1.899  0.00  0.00    -0.028 A 
ATOM     12  C   UNL     1      -3.579   3.533  -1.373  0.00  0.00    +0.005 A 
ATOM     13  C   UNL     1      -2.683   1.328  -1.774  0.00  0.00    +0.005 A 
ATOM     14  C   UNL     1      -4.697   2.964  -0.758  0.00  0.00    +0.000 A 
ATOM     15  C   UNL     1      -3.800   0.764  -1.158  0.00  0.00    +0.000 A 
ATOM     16  C   UNL     1      -4.808   1.581  -0.652  0.00  0.00    +0.000 A 
ENDBRANCH  10  11
ENDBRANCH   1  10
TORSDOF 2
ENDMDL
MODEL 8
REMARK VINA RESULT:    -4.682     12.606     13.896
REMARK INTER + INTRA:          -5.399
REMARK INTER:                  -5.224
REMARK INTRA:                  -0.175
REMARK UNBOUND:                -0.170
REMARK  Name = 1550473
REMARK  2 active torsions:
REMARK  status: ('A' for Active; 'I' for Inactive)
REMARK    1  A    between atoms: N_1  and  C_4
REMARK    2  A    between atoms: C_4  and  C_5
REMARK                            x       y       z     vdW  Elec       q    Type
REMARK                         _______ _______ _______ _____ _____    ______ ____
ROOT
ATOM      1  N   UNL     1      -1.312   1.282  -6.563  0.00  0.00    -0.354 N 
ATOM      2  N   UNL     1      -2.771   1.718  -8.308  0.00  0.00    -0.372 N 
ATOM      3  N   UNL     1      -2.812  -0.352  -7.318  0.00  0.00    -0.372 N 
ATOM      4  C   UNL     1      -2.289   0.877  -7.385  0.00  0.00    +0.166 C 
ATOM      5  H   UNL     1      -0.938   2.217  -6.684  0.00  0.00    +0.163 HD
ATOM      6  H   UNL     1      -3.511   1.441  -8.940  0.00  0.00    +0.159 HD
ATOM      7  H   UNL     1      -2.427   2.666  -8.397  0.00  0.00    +0.159 HD
ATOM      8  H   UNL     1      -2.488  -1.036  -6.648  0.00  0.00    +0.159 HD
ATOM      9  H   UNL     1      -3.544  -0.651  -7.950  0.00  0.00    +0.159 HD
ENDROOT
BRANCH   1  10
ATOM     10  C   UNL     1      -0.755   0.463  -5.488  0.00  0.00    +0.151 C 
BRANCH  10  11
ATOM     11  C   UNL     1      -1.330   0.917  -4.175  0.00  0.00    -0.028 A 
ATOM     12  C   UNL     1      -2.518   0.355  -3.686  0.00  0.00    +0.005 A 
ATOM     13  C   UNL     1      -0.688   1.906  -3.413  0.00  0.00    +0.005 A 
ATOM     14  C   UNL     1      -3.037   0.756  -2.452  0.00  0.00    +0.000 A 
ATOM     15  C   UNL     1      -1.210   2.303  -2.182  0.00  0.00    +0.000 A 
ATOM     16  C   UNL     1      -2.382   1.726  -1.701  0.00  0.00    +0.000 A 
ENDBRANCH  10  11
ENDBRANCH   1  10
TORSDOF 2
ENDMDL
MODEL 9
REMARK VINA RESULT:    -4.671     13.665     15.226
REMARK INTER + INTRA:          -5.387
REMARK INTER:                  -5.261
REMARK INTRA:                  -0.126
REMARK UNBOUND:                -0.170
REMARK  Name = 1550473
REMARK  2 active torsions:
REMARK  status: ('A' for Active; 'I' for Inactive)
REMARK    1  A    between atoms: N_1  and  C_4
REMARK    2  A    between atoms: C_4  and  C_5
REMARK                            x       y       z     vdW  Elec       q    Type
REMARK                         _______ _______ _______ _____ _____    ______ ____
ROOT
ATOM      1  N   UNL     1      -6.241  -0.219   0.401  0.00  0.00    -0.354 N 
ATOM      2  N   UNL     1      -7.331  -2.249   0.631  0.00  0.00    -0.372 N 
ATOM      3  N   UNL     1      -8.490  -0.314   1.053  0.00  0.00    -0.372 N 
ATOM      4  C   UNL     1      -7.349  -0.912   0.694  0.00  0.00    +0.166 C 
ATOM      5  H   UNL     1      -5.400  -0.733   0.165  0.00  0.00    +0.163 HD
ATOM      6  H   UNL     1      -8.153  -2.799   0.844  0.00  0.00    +0.159 HD
ATOM      7  H   UNL     1      -6.502  -2.758   0.351  0.00  0.00    +0.159 HD
ATOM      8  H   UNL     1      -8.567   0.692   1.126  0.00  0.00    +0.159 HD
ATOM      9  H   UNL     1      -9.319  -0.847   1.281  0.00  0.00    +0.159 HD
ENDROOT
BRANCH   1  10
ATOM     10  C   UNL     1      -6.170   1.241   0.387  0.00  0.00    +0.151 C 
BRANCH  10  11
ATOM     11  C   UNL     1      -4.969   1.667  -0.412  0.00  0.00    -0.028 A 
ATOM     12  C   UNL     1      -4.107   0.710  -0.967  0.00  0.00    +0.005 A 
ATOM     13  C   UNL     1      -4.691   3.026  -0.623  0.00  0.00    +0.005 A 
ATOM     14  C   UNL     1      -3.009   1.104  -1.735  0.00  0.00    +0.000 A 
ATOM     15  C   UNL     1      -3.592   3.416  -1.390  0.00  0.00    +0.000 A 
ATOM     16  C   UNL     1      -2.753   2.455  -1.947  0.00  0.00    +0.000 A 
ENDBRANCH  10  11
ENDBRANCH   1  10
TORSDOF 2
ENDMDL
