MODEL 1
REMARK VINA RESULT:    -5.851      0.000      0.000
REMARK INTER + INTRA:          -6.634
REMARK INTER:                  -6.535
REMARK INTRA:                  -0.098
REMARK UNBOUND:                -0.098
REMARK  Name = 1550473
REMARK  2 active torsions:
REMARK  status: ('A' for Active; 'I' for Inactive)
REMARK    1  A    between atoms: N_1  and  C_4
REMARK    2  A    between atoms: C_4  and  C_5
REMARK                            x       y       z     vdW  Elec       q    Type
REMARK                         _______ _______ _______ _____ _____    ______ ____
ROOT
ATOM      1  N   UNL     1       5.163   7.246  -2.772  0.00  0.00    -0.354 N 
ATOM      2  N   UNL     1       7.471   7.065  -2.716  0.00  0.00    -0.372 N 
ATOM      3  N   UNL     1       6.341   7.443  -0.755  0.00  0.00    -0.372 N 
ATOM      4  C   UNL     1       6.309   7.253  -2.079  0.00  0.00    +0.166 C 
ATOM      5  H   UNL     1       5.209   7.127  -3.777  0.00  0.00    +0.163 HD
ATOM      6  H   UNL     1       8.352   7.062  -2.220  0.00  0.00    +0.159 HD
ATOM      7  H   UNL     1       7.511   6.901  -3.715  0.00  0.00    +0.159 HD
ATOM      8  H   UNL     1       5.499   7.596  -0.216  0.00  0.00    +0.159 HD
ATOM      9  H   UNL     1       7.213   7.455  -0.242  0.00  0.00    +0.159 HD
ENDROOT
BRANCH   1  10
ATOM     10  C   UNL     1       3.840   7.387  -2.166  0.00  0.00    +0.151 C 
BRANCH  10  11
ATOM     11  C   UNL     1       2.832   6.657  -3.009  0.00  0.00    -0.028 A 
ATOM     12  C   UNL     1       2.203   5.500  -2.526  0.00  0.00    +0.005 A 
ATOM     13  C   UNL     1       2.498   7.119  -4.291  0.00  0.00    +0.005 A 
ATOM     14  C   UNL     1       1.245   4.838  -3.297  0.00  0.00    +0.000 A 
ATOM     15  C   UNL     1       1.541   6.455  -5.059  0.00  0.00    +0.000 A 
ATOM     16  C   UNL     1       0.913   5.316  -4.561  0.00  0.00    +0.000 A 
ENDBRANCH  10  11
ENDBRANCH   1  10
TORSDOF 2
ENDMDL
MODEL 2
REMARK VINA RESULT:    -5.555      1.128      2.277
REMARK INTER + INTRA:          -6.303
REMARK INTER:                  -6.348
REMARK INTRA:                   0.045
REMARK UNBOUND:                -0.098
REMARK  Name = 1550473
REMARK  2 active torsions:
REMARK  status: ('A' for Active; 'I' for Inactive)
REMARK    1  A    between atoms: N_1  and  C_4
REMARK    2  A    between atoms: C_4  and  C_5
REMARK                            x       y       z     vdW  Elec       q    Type
REMARK                         _______ _______ _______ _____ _____    ______ ____
ROOT
ATOM      1  N   UNL     1       6.005   7.820  -1.352  0.00  0.00    -0.354 N 
ATOM      2  N   UNL     1       7.575   9.345  -2.111  0.00  0.00    -0.372 N 
ATOM      3  N   UNL     1       7.664   7.185  -2.881  0.00  0.00    -0.372 N 
ATOM      4  C   UNL     1       7.072   8.105  -2.111  0.00  0.00    +0.166 C 
ATOM      5  H   UNL     1       5.621   8.554  -0.768  0.00  0.00    +0.163 HD
ATOM      6  H   UNL     1       8.377   9.590  -2.675  0.00  0.00    +0.159 HD
ATOM      7  H   UNL     1       7.161  10.088  -1.561  0.00  0.00    +0.159 HD
ATOM      8  H   UNL     1       7.336   6.229  -2.922  0.00  0.00    +0.159 HD
ATOM      9  H   UNL     1       8.475   7.408  -3.445  0.00  0.00    +0.159 HD
ENDROOT
BRANCH   1  10
ATOM     10  C   UNL     1       5.348   6.515  -1.322  0.00  0.00    +0.151 C 
BRANCH  10  11
ATOM     11  C   UNL     1       4.142   6.551  -2.220  0.00  0.00    -0.028 A 
ATOM     12  C   UNL     1       4.033   7.522  -3.227  0.00  0.00    +0.005 A 
ATOM     13  C   UNL     1       3.108   5.614  -2.074  0.00  0.00    +0.005 A 
ATOM     14  C   UNL     1       2.928   7.538  -4.081  0.00  0.00    +0.000 A 
ATOM     15  C   UNL     1       2.005   5.634  -2.928  0.00  0.00    +0.000 A 
ATOM     16  C   UNL     1       1.917   6.594  -3.933  0.00  0.00    +0.000 A 
ENDBRANCH  10  11
ENDBRANCH   1  10
TORSDOF 2
ENDMDL
MODEL 3
REMARK VINA RESULT:    -5.441      1.755      2.388
REMARK INTER + INTRA:          -6.175
REMARK INTER:                  -5.992
REMARK INTRA:                  -0.184
REMARK UNBOUND:                -0.098
REMARK  Name = 1550473
REMARK  2 active torsions:
REMARK  status: ('A' for Active; 'I' for Inactive)
REMARK    1  A    between atoms: N_1  and  C_4
REMARK    2  A    between atoms: C_4  and  C_5
REMARK                            x       y       z     vdW  Elec       q    Type
REMARK                         _______ _______ _______ _____ _____    ______ ____
ROOT
ATOM      1  N   UNL     1       6.049   9.155  -2.320  0.00  0.00    -0.354 N 
ATOM      2  N   UNL     1       8.295   8.610  -2.169  0.00  0.00    -0.372 N 
ATOM      3  N   UNL     1       7.095   8.913  -0.237  0.00  0.00    -0.372 N 
ATOM      4  C   UNL     1       7.131   8.897  -1.573  0.00  0.00    +0.166 C 
ATOM      5  H   UNL     1       6.149   9.156  -3.329  0.00  0.00    +0.163 HD
ATOM      6  H   UNL     1       9.127   8.407  -1.632  0.00  0.00    +0.159 HD
ATOM      7  H   UNL     1       8.381   8.567  -3.177  0.00  0.00    +0.159 HD
ATOM      8  H   UNL     1       6.249   9.128   0.273  0.00  0.00    +0.159 HD
ATOM      9  H   UNL     1       7.920   8.724   0.318  0.00  0.00    +0.159 HD
ENDROOT
BRANCH   1  10
ATOM     10  C   UNL     1       4.722   9.426  -1.770  0.00  0.00    +0.151 C 
BRANCH  10  11
ATOM     11  C   UNL     1       3.904   8.165  -1.819  0.00  0.00    -0.028 A 
ATOM     12  C   UNL     1       3.556   7.495  -0.636  0.00  0.00    +0.005 A 
ATOM     13  C   UNL     1       3.467   7.638  -3.044  0.00  0.00    +0.005 A 
ATOM     14  C   UNL     1       2.771   6.341  -0.679  0.00  0.00    +0.000 A 
ATOM     15  C   UNL     1       2.684   6.485  -3.083  0.00  0.00    +0.000 A 
ATOM     16  C   UNL     1       2.334   5.838  -1.900  0.00  0.00    +0.000 A 
ENDBRANCH  10  11
ENDBRANCH   1  10
TORSDOF 2
ENDMDL
MODEL 4
REMARK VINA RESULT:    -5.381      3.426      4.622
REMARK INTER + INTRA:          -6.109
REMARK INTER:                  -6.002
REMARK INTRA:                  -0.107
REMARK UNBOUND:                -0.098
REMARK  Name = 1550473
REMARK  2 active torsions:
REMARK  status: ('A' for Active; 'I' for Inactive)
REMARK    1  A    between atoms: N_1  and  C_4
REMARK    2  A    between atoms: C_4  and  C_5
REMARK                            x       y       z     vdW  Elec       q    Type
REMARK                         _______ _______ _______ _____ _____    ______ ____
ROOT
ATOM      1  N   UNL     1       6.714   8.348  -0.826  0.00  0.00    -0.354 N 
ATOM      2  N   UNL     1       8.406   9.238  -2.133  0.00  0.00    -0.372 N 
ATOM      3  N   UNL     1       7.498   7.214  -2.721  0.00  0.00    -0.372 N 
ATOM      4  C   UNL     1       7.528   8.258  -1.886  0.00  0.00    +0.166 C 
ATOM      5  H   UNL     1       6.807   9.151  -0.215  0.00  0.00    +0.163 HD
ATOM      6  H   UNL     1       9.031   9.199  -2.928  0.00  0.00    +0.159 HD
ATOM      7  H   UNL     1       8.465  10.061  -1.547  0.00  0.00    +0.159 HD
ATOM      8  H   UNL     1       6.863   6.439  -2.587  0.00  0.00    +0.159 HD
ATOM      9  H   UNL     1       8.124   7.152  -3.515  0.00  0.00    +0.159 HD
ENDROOT
BRANCH   1  10
ATOM     10  C   UNL     1       5.685   7.362  -0.499  0.00  0.00    +0.151 C 
BRANCH  10  11
ATOM     11  C   UNL     1       4.524   8.061   0.152  0.00  0.00    -0.028 A 
ATOM     12  C   UNL     1       3.219   7.865  -0.321  0.00  0.00    +0.005 A 
ATOM     13  C   UNL     1       4.722   8.916   1.247  0.00  0.00    +0.005 A 
ATOM     14  C   UNL     1       2.136   8.490   0.302  0.00  0.00    +0.000 A 
ATOM     15  C   UNL     1       3.639   9.539   1.867  0.00  0.00    +0.000 A 
ATOM     16  C   UNL     1       2.346   9.324   1.396  0.00  0.00    +0.000 A 
ENDBRANCH  10  11
ENDBRANCH   1  10
TORSDOF 2
ENDMDL
MODEL 5
REMARK VINA RESULT:    -5.254     10.042     11.883
REMARK INTER + INTRA:          -5.967
REMARK INTER:                  -5.829
REMARK INTRA:                  -0.138
REMARK UNBOUND:                -0.098
REMARK  Name = 1550473
REMARK  2 active torsions:
REMARK  status: ('A' for Active; 'I' for Inactive)
REMARK    1  A    between atoms: N_1  and  C_4
REMARK    2  A    between atoms: C_4  and  C_5
REMARK                            x       y       z     vdW  Elec       q    Type
REMARK                         _______ _______ _______ _____ _____    ______ ____
ROOT
ATOM      1  N   UNL     1      12.543   9.308   1.997  0.00  0.00    -0.354 N 
ATOM      2  N   UNL     1      13.568   9.495  -0.071  0.00  0.00    -0.372 N 
ATOM      3  N   UNL     1      11.279   9.356   0.024  0.00  0.00    -0.372 N 
ATOM      4  C   UNL     1      12.454   9.385   0.662  0.00  0.00    +0.166 C 
ATOM      5  H   UNL     1      13.464   9.305   2.419  0.00  0.00    +0.163 HD
ATOM      6  H   UNL     1      13.532   9.558  -1.080  0.00  0.00    +0.159 HD
ATOM      7  H   UNL     1      14.485   9.538   0.356  0.00  0.00    +0.159 HD
ATOM      8  H   UNL     1      10.402   9.268   0.519  0.00  0.00    +0.159 HD
ATOM      9  H   UNL     1      11.224   9.406  -0.986  0.00  0.00    +0.159 HD
ENDROOT
BRANCH   1  10
ATOM     10  C   UNL     1      11.388   9.240   2.891  0.00  0.00    +0.151 C 
BRANCH  10  11
ATOM     11  C   UNL     1      11.572  10.230   4.008  0.00  0.00    -0.028 A 
ATOM     12  C   UNL     1      12.021  11.531   3.739  0.00  0.00    +0.005 A 
ATOM     13  C   UNL     1      11.293   9.874   5.336  0.00  0.00    +0.005 A 
ATOM     14  C   UNL     1      12.164  12.460   4.773  0.00  0.00    +0.000 A 
ATOM     15  C   UNL     1      11.437  10.805   6.366  0.00  0.00    +0.000 A 
ATOM     16  C   UNL     1      11.870  12.098   6.083  0.00  0.00    +0.000 A 
ENDBRANCH  10  11
ENDBRANCH   1  10
TORSDOF 2
ENDMDL
MODEL 6
REMARK VINA RESULT:    -5.195      3.356      5.308
REMARK INTER + INTRA:          -5.901
REMARK INTER:                  -5.730
REMARK INTRA:                  -0.172
REMARK UNBOUND:                -0.098
REMARK  Name = 1550473
REMARK  2 active torsions:
REMARK  status: ('A' for Active; 'I' for Inactive)
REMARK    1  A    between atoms: N_1  and  C_4
REMARK    2  A    between atoms: C_4  and  C_5
REMARK                            x       y       z     vdW  Elec       q    Type
REMARK                         _______ _______ _______ _____ _____    ______ ____
ROOT
ATOM      1  N   UNL     1       1.569   6.897  -2.104  0.00  0.00    -0.354 N 
ATOM      2  N   UNL     1       0.983   4.658  -2.014  0.00  0.00    -0.372 N 
ATOM      3  N   UNL     1       3.206   5.219  -2.107  0.00  0.00    -0.372 N 
ATOM      4  C   UNL     1       1.926   5.606  -2.076  0.00  0.00    +0.166 C 
ATOM      5  H   UNL     1       0.581   7.123  -2.109  0.00  0.00    +0.163 HD
ATOM      6  H   UNL     1       1.222   3.676  -1.988  0.00  0.00    +0.159 HD
ATOM      7  H   UNL     1      -0.003   4.889  -1.973  0.00  0.00    +0.159 HD
ATOM      8  H   UNL     1       3.965   5.885  -2.159  0.00  0.00    +0.159 HD
ATOM      9  H   UNL     1       3.464   4.241  -2.093  0.00  0.00    +0.159 HD
ENDROOT
BRANCH   1  10
ATOM     10  C   UNL     1       2.520   8.008  -2.117  0.00  0.00    +0.151 C 
BRANCH  10  11
ATOM     11  C   UNL     1       2.792   8.438  -0.702  0.00  0.00    -0.028 A 
ATOM     12  C   UNL     1       4.074   8.303  -0.151  0.00  0.00    +0.005 A 
ATOM     13  C   UNL     1       1.772   8.987   0.091  0.00  0.00    +0.005 A 
ATOM     14  C   UNL     1       4.334   8.731   1.153  0.00  0.00    +0.000 A 
ATOM     15  C   UNL     1       2.036   9.411   1.393  0.00  0.00    +0.000 A 
ATOM     16  C   UNL     1       3.317   9.285   1.923  0.00  0.00    +0.000 A 
ENDBRANCH  10  11
ENDBRANCH   1  10
TORSDOF 2
ENDMDL
MODEL 7
REMARK VINA RESULT:    -4.913      1.961      2.871
REMARK INTER + INTRA:          -5.585
REMARK INTER:                  -5.404
REMARK INTRA:                  -0.181
REMARK UNBOUND:                -0.098
REMARK  Name = 1550473
REMARK  2 active torsions:
REMARK  status: ('A' for Active; 'I' for Inactive)
REMARK    1  A    between atoms: N_1  and  C_4
REMARK    2  A    between atoms: C_4  and  C_5
REMARK                            x       y       z     vdW  Elec       q    Type
REMARK                         _______ _______ _______ _____ _____    ______ ____
ROOT
ATOM      1  N   UNL     1       6.021   9.658  -1.632  0.00  0.00    -0.354 N 
ATOM      2  N   UNL     1       7.640   8.848  -0.187  0.00  0.00    -0.372 N 
ATOM      3  N   UNL     1       7.606   8.090  -2.353  0.00  0.00    -0.372 N 
ATOM      4  C   UNL     1       7.079   8.869  -1.402  0.00  0.00    +0.166 C 
ATOM      5  H   UNL     1       5.651  10.202  -0.861  0.00  0.00    +0.163 HD
ATOM      6  H   UNL     1       8.441   8.265   0.014  0.00  0.00    +0.159 HD
ATOM      7  H   UNL     1       7.296   9.427   0.569  0.00  0.00    +0.159 HD
ATOM      8  H   UNL     1       7.226   8.056  -3.289  0.00  0.00    +0.159 HD
ATOM      9  H   UNL     1       8.401   7.491  -2.167  0.00  0.00    +0.159 HD
ENDROOT
BRANCH   1  10
ATOM     10  C   UNL     1       5.370   9.796  -2.933  0.00  0.00    +0.151 C 
BRANCH  10  11
ATOM     11  C   UNL     1       4.095   8.998  -2.931  0.00  0.00    -0.028 A 
ATOM     12  C   UNL     1       3.984   7.831  -3.701  0.00  0.00    +0.005 A 
ATOM     13  C   UNL     1       2.997   9.401  -2.156  0.00  0.00    +0.005 A 
ATOM     14  C   UNL     1       2.810   7.074  -3.676  0.00  0.00    +0.000 A 
ATOM     15  C   UNL     1       1.826   8.642  -2.135  0.00  0.00    +0.000 A 
ATOM     16  C   UNL     1       1.734   7.478  -2.893  0.00  0.00    +0.000 A 
ENDBRANCH  10  11
ENDBRANCH   1  10
TORSDOF 2
ENDMDL
MODEL 8
REMARK VINA RESULT:    -4.855     11.559     12.665
REMARK INTER + INTRA:          -5.521
REMARK INTER:                  -5.357
REMARK INTRA:                  -0.164
REMARK UNBOUND:                -0.098
REMARK  Name = 1550473
REMARK  2 active torsions:
REMARK  status: ('A' for Active; 'I' for Inactive)
REMARK    1  A    between atoms: N_1  and  C_4
REMARK    2  A    between atoms: C_4  and  C_5
REMARK                            x       y       z     vdW  Elec       q    Type
REMARK                         _______ _______ _______ _____ _____    ______ ____
ROOT
ATOM      1  N   UNL     1      14.170   7.952   3.993  0.00  0.00    -0.354 N 
ATOM      2  N   UNL     1      16.385   7.283   4.087  0.00  0.00    -0.372 N 
ATOM      3  N   UNL     1      15.540   8.565   5.792  0.00  0.00    -0.372 N 
ATOM      4  C   UNL     1      15.350   7.939   4.626  0.00  0.00    +0.166 C 
ATOM      5  H   UNL     1      14.099   7.483   3.097  0.00  0.00    +0.163 HD
ATOM      6  H   UNL     1      17.287   7.253   4.543  0.00  0.00    +0.159 HD
ATOM      7  H   UNL     1      16.299   6.777   3.214  0.00  0.00    +0.159 HD
ATOM      8  H   UNL     1      14.801   9.083   6.248  0.00  0.00    +0.159 HD
ATOM      9  H   UNL     1      16.439   8.557   6.258  0.00  0.00    +0.159 HD
ENDROOT
BRANCH   1  10
ATOM     10  C   UNL     1      12.966   8.592   4.520  0.00  0.00    +0.151 C 
BRANCH  10  11
ATOM     11  C   UNL     1      12.699   9.852   3.744  0.00  0.00    -0.028 A 
ATOM     12  C   UNL     1      12.669   9.832   2.342  0.00  0.00    +0.005 A 
ATOM     13  C   UNL     1      12.470  11.068   4.406  0.00  0.00    +0.005 A 
ATOM     14  C   UNL     1      12.392  10.996   1.622  0.00  0.00    +0.000 A 
ATOM     15  C   UNL     1      12.194  12.229   3.683  0.00  0.00    +0.000 A 
ATOM     16  C   UNL     1      12.153  12.192   2.291  0.00  0.00    +0.000 A 
ENDBRANCH  10  11
ENDBRANCH   1  10
TORSDOF 2
ENDMDL
MODEL 9
REMARK VINA RESULT:    -4.750      2.637      5.139
REMARK INTER + INTRA:          -5.404
REMARK INTER:                  -5.276
REMARK INTRA:                  -0.128
REMARK UNBOUND:                -0.098
REMARK  Name = 1550473
REMARK  2 active torsions:
REMARK  status: ('A' for Active; 'I' for Inactive)
REMARK    1  A    between atoms: N_1  and  C_4
REMARK    2  A    between atoms: C_4  and  C_5
REMARK                            x       y       z     vdW  Elec       q    Type
REMARK                         _______ _______ _______ _____ _____    ______ ____
ROOT
ATOM      1  N   UNL     1       2.520   5.887  -3.058  0.00  0.00    -0.354 N 
ATOM      2  N   UNL     1       0.480   5.549  -4.100  0.00  0.00    -0.372 N 
ATOM      3  N   UNL     1       0.858   4.570  -2.059  0.00  0.00    -0.372 N 
ATOM      4  C   UNL     1       1.299   5.336  -3.063  0.00  0.00    +0.166 C 
ATOM      5  H   UNL     1       2.806   6.432  -3.863  0.00  0.00    +0.163 HD
ATOM      6  H   UNL     1      -0.449   5.149  -4.130  0.00  0.00    +0.159 HD
ATOM      7  H   UNL     1       0.751   6.132  -4.882  0.00  0.00    +0.159 HD
ATOM      8  H   UNL     1       1.430   4.366  -1.250  0.00  0.00    +0.159 HD
ATOM      9  H   UNL     1      -0.064   4.152  -2.077  0.00  0.00    +0.159 HD
ENDROOT
BRANCH   1  10
ATOM     10  C   UNL     1       3.469   5.761  -1.953  0.00  0.00    +0.151 C 
BRANCH  10  11
ATOM     11  C   UNL     1       4.438   6.909  -2.004  0.00  0.00    -0.028 A 
ATOM     12  C   UNL     1       4.196   8.008  -2.841  0.00  0.00    +0.005 A 
ATOM     13  C   UNL     1       5.599   6.907  -1.215  0.00  0.00    +0.005 A 
ATOM     14  C   UNL     1       5.081   9.089  -2.867  0.00  0.00    +0.000 A 
ATOM     15  C   UNL     1       6.480   7.987  -1.245  0.00  0.00    +0.000 A 
ATOM     16  C   UNL     1       6.219   9.079  -2.069  0.00  0.00    +0.000 A 
ENDBRANCH  10  11
ENDBRANCH   1  10
TORSDOF 2
ENDMDL
