MODEL 1
REMARK VINA RESULT:    -5.884      0.000      0.000
REMARK INTER + INTRA:          -6.731
REMARK INTER:                  -6.572
REMARK INTRA:                  -0.159
REMARK UNBOUND:                -0.159
REMARK  Name = 1550473
REMARK  2 active torsions:
REMARK  status: ('A' for Active; 'I' for Inactive)
REMARK    1  A    between atoms: N_1  and  C_4
REMARK    2  A    between atoms: C_4  and  C_5
REMARK                            x       y       z     vdW  Elec       q    Type
REMARK                         _______ _______ _______ _____ _____    ______ ____
ROOT
ATOM      1  N   UNL     1     -12.104  -5.518  -8.874  0.00  0.00    -0.354 N 
ATOM      2  N   UNL     1     -12.686  -7.449  -7.735  0.00  0.00    -0.372 N 
ATOM      3  N   UNL     1     -10.824  -6.286  -7.067  0.00  0.00    -0.372 N 
ATOM      4  C   UNL     1     -11.865  -6.404  -7.898  0.00  0.00    +0.166 C 
ATOM      5  H   UNL     1     -12.892  -5.681  -9.490  0.00  0.00    +0.163 HD
ATOM      6  H   UNL     1     -12.533  -8.132  -7.006  0.00  0.00    +0.159 HD
ATOM      7  H   UNL     1     -13.499  -7.584  -8.323  0.00  0.00    +0.159 HD
ATOM      8  H   UNL     1     -10.164  -5.523  -7.141  0.00  0.00    +0.159 HD
ATOM      9  H   UNL     1     -10.647  -6.966  -6.338  0.00  0.00    +0.159 HD
ENDROOT
BRANCH   1  10
ATOM     10  C   UNL     1     -11.302  -4.317  -9.102  0.00  0.00    +0.151 C 
BRANCH  10  11
ATOM     11  C   UNL     1     -10.393  -4.549 -10.277  0.00  0.00    -0.028 A 
ATOM     12  C   UNL     1     -10.752  -4.099 -11.556  0.00  0.00    +0.005 A 
ATOM     13  C   UNL     1      -9.167  -5.215 -10.117  0.00  0.00    +0.005 A 
ATOM     14  C   UNL     1      -9.894  -4.288 -12.642  0.00  0.00    +0.000 A 
ATOM     15  C   UNL     1      -8.314  -5.402 -11.205  0.00  0.00    +0.000 A 
ATOM     16  C   UNL     1      -8.677  -4.937 -12.466  0.00  0.00    +0.000 A 
ENDBRANCH  10  11
ENDBRANCH   1  10
TORSDOF 2
ENDMDL
MODEL 2
REMARK VINA RESULT:    -5.362      0.980      1.848
REMARK INTER + INTRA:          -6.148
REMARK INTER:                  -6.037
REMARK INTRA:                  -0.111
REMARK UNBOUND:                -0.159
REMARK  Name = 1550473
REMARK  2 active torsions:
REMARK  status: ('A' for Active; 'I' for Inactive)
REMARK    1  A    between atoms: N_1  and  C_4
REMARK    2  A    between atoms: C_4  and  C_5
REMARK                            x       y       z     vdW  Elec       q    Type
REMARK                         _______ _______ _______ _____ _____    ______ ____
ROOT
ATOM      1  N   UNL     1     -11.907  -5.817  -8.644  0.00  0.00    -0.354 N 
ATOM      2  N   UNL     1     -13.949  -6.731  -8.043  0.00  0.00    -0.372 N 
ATOM      3  N   UNL     1     -13.401  -4.640  -7.274  0.00  0.00    -0.372 N 
ATOM      4  C   UNL     1     -13.072  -5.721  -7.990  0.00  0.00    +0.166 C 
ATOM      5  H   UNL     1     -11.705  -6.675  -9.143  0.00  0.00    +0.163 HD
ATOM      6  H   UNL     1     -14.837  -6.686  -7.563  0.00  0.00    +0.159 HD
ATOM      7  H   UNL     1     -13.764  -7.569  -8.581  0.00  0.00    +0.159 HD
ATOM      8  H   UNL     1     -12.781  -3.846  -7.189  0.00  0.00    +0.159 HD
ATOM      9  H   UNL     1     -14.280  -4.580  -6.777  0.00  0.00    +0.159 HD
ENDROOT
BRANCH   1  10
ATOM     10  C   UNL     1     -10.907  -4.752  -8.693  0.00  0.00    +0.151 C 
BRANCH  10  11
ATOM     11  C   UNL     1     -10.231  -4.775 -10.036  0.00  0.00    -0.028 A 
ATOM     12  C   UNL     1      -8.938  -5.303 -10.173  0.00  0.00    +0.005 A 
ATOM     13  C   UNL     1     -10.879  -4.276 -11.176  0.00  0.00    +0.005 A 
ATOM     14  C   UNL     1      -8.321  -5.353 -11.426  0.00  0.00    +0.000 A 
ATOM     15  C   UNL     1     -10.259  -4.327 -12.425  0.00  0.00    +0.000 A 
ATOM     16  C   UNL     1      -8.982  -4.867 -12.550  0.00  0.00    +0.000 A 
ENDBRANCH  10  11
ENDBRANCH   1  10
TORSDOF 2
ENDMDL
MODEL 3
REMARK VINA RESULT:    -5.245     30.966     31.962
REMARK INTER + INTRA:          -6.018
REMARK INTER:                  -5.880
REMARK INTRA:                  -0.137
REMARK UNBOUND:                -0.159
REMARK  Name = 1550473
REMARK  2 active torsions:
REMARK  status: ('A' for Active; 'I' for Inactive)
REMARK    1  A    between atoms: N_1  and  C_4
REMARK    2  A    between atoms: C_4  and  C_5
REMARK                            x       y       z     vdW  Elec       q    Type
REMARK                         _______ _______ _______ _____ _____    ______ ____
ROOT
ATOM      1  N   UNL     1      11.284   1.510  10.358  0.00  0.00    -0.354 N 
ATOM      2  N   UNL     1       9.864   0.191   9.089  0.00  0.00    -0.372 N 
ATOM      3  N   UNL     1      11.145  -0.802  10.713  0.00  0.00    -0.372 N 
ATOM      4  C   UNL     1      10.775   0.307  10.063  0.00  0.00    +0.166 C 
ATOM      5  H   UNL     1      10.984   2.307   9.808  0.00  0.00    +0.163 HD
ATOM      6  H   UNL     1       9.460  -0.703   8.846  0.00  0.00    +0.159 HD
ATOM      7  H   UNL     1       9.533   0.996   8.572  0.00  0.00    +0.159 HD
ATOM      8  H   UNL     1      11.833  -0.784  11.454  0.00  0.00    +0.159 HD
ATOM      9  H   UNL     1      10.761  -1.708  10.477  0.00  0.00    +0.159 HD
ENDROOT
BRANCH   1  10
ATOM     10  C   UNL     1      12.240   1.752  11.436  0.00  0.00    +0.151 C 
BRANCH  10  11
ATOM     11  C   UNL     1      13.274   2.737  10.964  0.00  0.00    -0.028 A 
ATOM     12  C   UNL     1      13.173   3.321   9.693  0.00  0.00    +0.005 A 
ATOM     13  C   UNL     1      14.354   3.095  11.786  0.00  0.00    +0.005 A 
ATOM     14  C   UNL     1      14.117   4.258   9.266  0.00  0.00    +0.000 A 
ATOM     15  C   UNL     1      15.294   4.031  11.355  0.00  0.00    +0.000 A 
ATOM     16  C   UNL     1      15.174   4.614  10.096  0.00  0.00    +0.000 A 
ENDBRANCH  10  11
ENDBRANCH   1  10
TORSDOF 2
ENDMDL
MODEL 4
REMARK VINA RESULT:    -5.234     35.892     36.814
REMARK INTER + INTRA:          -6.005
REMARK INTER:                  -5.887
REMARK INTRA:                  -0.118
REMARK UNBOUND:                -0.159
REMARK  Name = 1550473
REMARK  2 active torsions:
REMARK  status: ('A' for Active; 'I' for Inactive)
REMARK    1  A    between atoms: N_1  and  C_4
REMARK    2  A    between atoms: C_4  and  C_5
REMARK                            x       y       z     vdW  Elec       q    Type
REMARK                         _______ _______ _______ _____ _____    ______ ____
ROOT
ATOM      1  N   UNL     1       9.348  15.775  11.059  0.00  0.00    -0.354 N 
ATOM      2  N   UNL     1       9.510  14.018   9.558  0.00  0.00    -0.372 N 
ATOM      3  N   UNL     1      11.185  14.320  11.098  0.00  0.00    -0.372 N 
ATOM      4  C   UNL     1      10.016  14.716  10.583  0.00  0.00    +0.166 C 
ATOM      5  H   UNL     1       8.482  16.041  10.605  0.00  0.00    +0.163 HD
ATOM      6  H   UNL     1       9.990  13.212   9.180  0.00  0.00    +0.159 HD
ATOM      7  H   UNL     1       8.622  14.259   9.137  0.00  0.00    +0.159 HD
ATOM      8  H   UNL     1      11.623  14.808  11.868  0.00  0.00    +0.159 HD
ATOM      9  H   UNL     1      11.686  13.523  10.725  0.00  0.00    +0.159 HD
ENDROOT
BRANCH   1  10
ATOM     10  C   UNL     1       9.785  16.569  12.205  0.00  0.00    +0.151 C 
BRANCH  10  11
ATOM     11  C   UNL     1       8.584  16.946  13.029  0.00  0.00    -0.028 A 
ATOM     12  C   UNL     1       8.642  16.912  14.430  0.00  0.00    +0.005 A 
ATOM     13  C   UNL     1       7.387  17.343  12.414  0.00  0.00    +0.005 A 
ATOM     14  C   UNL     1       7.536  17.290  15.195  0.00  0.00    +0.000 A 
ATOM     15  C   UNL     1       6.285  17.719  13.182  0.00  0.00    +0.000 A 
ATOM     16  C   UNL     1       6.361  17.695  14.572  0.00  0.00    +0.000 A 
ENDBRANCH  10  11
ENDBRANCH   1  10
TORSDOF 2
ENDMDL
MODEL 5
REMARK VINA RESULT:    -4.940      5.521      7.282
REMARK INTER + INTRA:          -5.677
REMARK INTER:                  -5.566
REMARK INTRA:                  -0.111
REMARK UNBOUND:                -0.159
REMARK  Name = 1550473
REMARK  2 active torsions:
REMARK  status: ('A' for Active; 'I' for Inactive)
REMARK    1  A    between atoms: N_1  and  C_4
REMARK    2  A    between atoms: C_4  and  C_5
REMARK                            x       y       z     vdW  Elec       q    Type
REMARK                         _______ _______ _______ _____ _____    ______ ____
ROOT
ATOM      1  N   UNL     1     -11.563  -3.371  -2.833  0.00  0.00    -0.354 N 
ATOM      2  N   UNL     1     -11.275  -1.120  -2.369  0.00  0.00    -0.372 N 
ATOM      3  N   UNL     1     -10.350  -2.671  -0.953  0.00  0.00    -0.372 N 
ATOM      4  C   UNL     1     -11.063  -2.403  -2.052  0.00  0.00    +0.166 C 
ATOM      5  H   UNL     1     -12.120  -3.102  -3.635  0.00  0.00    +0.163 HD
ATOM      6  H   UNL     1     -10.907  -0.368  -1.801  0.00  0.00    +0.159 HD
ATOM      7  H   UNL     1     -11.793  -0.854  -3.197  0.00  0.00    +0.159 HD
ATOM      8  H   UNL     1     -10.160  -3.619  -0.656  0.00  0.00    +0.159 HD
ATOM      9  H   UNL     1      -9.984  -1.933  -0.366  0.00  0.00    +0.159 HD
ENDROOT
BRANCH   1  10
ATOM     10  C   UNL     1     -11.345  -4.798  -2.606  0.00  0.00    +0.151 C 
BRANCH  10  11
ATOM     11  C   UNL     1     -11.802  -5.564  -3.817  0.00  0.00    -0.028 A 
ATOM     12  C   UNL     1     -12.617  -6.696  -3.678  0.00  0.00    +0.005 A 
ATOM     13  C   UNL     1     -11.427  -5.158  -5.108  0.00  0.00    +0.005 A 
ATOM     14  C   UNL     1     -13.067  -7.390  -4.804  0.00  0.00    +0.000 A 
ATOM     15  C   UNL     1     -11.878  -5.853  -6.230  0.00  0.00    +0.000 A 
ATOM     16  C   UNL     1     -12.699  -6.968  -6.078  0.00  0.00    +0.000 A 
ENDBRANCH  10  11
ENDBRANCH   1  10
TORSDOF 2
ENDMDL
MODEL 6
REMARK VINA RESULT:    -4.872      7.102      8.535
REMARK INTER + INTRA:          -5.601
REMARK INTER:                  -5.432
REMARK INTRA:                  -0.169
REMARK UNBOUND:                -0.159
REMARK  Name = 1550473
REMARK  2 active torsions:
REMARK  status: ('A' for Active; 'I' for Inactive)
REMARK    1  A    between atoms: N_1  and  C_4
REMARK    2  A    between atoms: C_4  and  C_5
REMARK                            x       y       z     vdW  Elec       q    Type
REMARK                         _______ _______ _______ _____ _____    ______ ____
ROOT
ATOM      1  N   UNL     1     -11.513  -3.308  -3.278  0.00  0.00    -0.354 N 
ATOM      2  N   UNL     1     -11.808  -1.163  -2.458  0.00  0.00    -0.372 N 
ATOM      3  N   UNL     1     -10.480  -2.623  -1.289  0.00  0.00    -0.372 N 
ATOM      4  C   UNL     1     -11.264  -2.380  -2.345  0.00  0.00    +0.166 C 
ATOM      5  H   UNL     1     -12.139  -3.071  -4.039  0.00  0.00    +0.163 HD
ATOM      6  H   UNL     1     -11.636  -0.441  -1.772  0.00  0.00    +0.159 HD
ATOM      7  H   UNL     1     -12.398  -0.913  -3.244  0.00  0.00    +0.159 HD
ATOM      8  H   UNL     1     -10.044  -3.524  -1.143  0.00  0.00    +0.159 HD
ATOM      9  H   UNL     1     -10.305  -1.917  -0.585  0.00  0.00    +0.159 HD
ENDROOT
BRANCH   1  10
ATOM     10  C   UNL     1     -10.926  -4.647  -3.277  0.00  0.00    +0.151 C 
BRANCH  10  11
ATOM     11  C   UNL     1     -12.002  -5.655  -2.979  0.00  0.00    -0.028 A 
ATOM     12  C   UNL     1     -12.566  -6.420  -4.009  0.00  0.00    +0.005 A 
ATOM     13  C   UNL     1     -12.456  -5.853  -1.666  0.00  0.00    +0.005 A 
ATOM     14  C   UNL     1     -13.544  -7.377  -3.729  0.00  0.00    +0.000 A 
ATOM     15  C   UNL     1     -13.434  -6.809  -1.390  0.00  0.00    +0.000 A 
ATOM     16  C   UNL     1     -13.975  -7.573  -2.421  0.00  0.00    +0.000 A 
ENDBRANCH  10  11
ENDBRANCH   1  10
TORSDOF 2
ENDMDL
MODEL 7
REMARK VINA RESULT:    -4.851      5.115      6.831
REMARK INTER + INTRA:          -5.577
REMARK INTER:                  -5.447
REMARK INTRA:                  -0.130
REMARK UNBOUND:                -0.159
REMARK  Name = 1550473
REMARK  2 active torsions:
REMARK  status: ('A' for Active; 'I' for Inactive)
REMARK    1  A    between atoms: N_1  and  C_4
REMARK    2  A    between atoms: C_4  and  C_5
REMARK                            x       y       z     vdW  Elec       q    Type
REMARK                         _______ _______ _______ _____ _____    ______ ____
ROOT
ATOM      1  N   UNL     1     -11.925  -3.396  -2.272  0.00  0.00    -0.354 N 
ATOM      2  N   UNL     1     -10.254  -2.576  -0.894  0.00  0.00    -0.372 N 
ATOM      3  N   UNL     1     -11.264  -1.151  -2.382  0.00  0.00    -0.372 N 
ATOM      4  C   UNL     1     -11.159  -2.378  -1.860  0.00  0.00    +0.166 C 
ATOM      5  H   UNL     1     -11.776  -4.309  -1.857  0.00  0.00    +0.163 HD
ATOM      6  H   UNL     1      -9.664  -1.826  -0.560  0.00  0.00    +0.159 HD
ATOM      7  H   UNL     1     -10.139  -3.479  -0.449  0.00  0.00    +0.159 HD
ATOM      8  H   UNL     1     -11.923  -0.937  -3.118  0.00  0.00    +0.159 HD
ATOM      9  H   UNL     1     -10.674  -0.390  -2.069  0.00  0.00    +0.159 HD
ENDROOT
BRANCH   1  10
ATOM     10  C   UNL     1     -12.977  -3.273  -3.279  0.00  0.00    +0.151 C 
BRANCH  10  11
ATOM     11  C   UNL     1     -12.483  -3.845  -4.579  0.00  0.00    -0.028 A 
ATOM     12  C   UNL     1     -11.372  -4.701  -4.603  0.00  0.00    +0.005 A 
ATOM     13  C   UNL     1     -13.124  -3.540  -5.789  0.00  0.00    +0.005 A 
ATOM     14  C   UNL     1     -10.930  -5.257  -5.806  0.00  0.00    +0.000 A 
ATOM     15  C   UNL     1     -12.680  -4.096  -6.988  0.00  0.00    +0.000 A 
ATOM     16  C   UNL     1     -11.584  -4.956  -6.996  0.00  0.00    +0.000 A 
ENDBRANCH  10  11
ENDBRANCH   1  10
TORSDOF 2
ENDMDL
MODEL 8
REMARK VINA RESULT:    -4.363     22.363     23.237
REMARK INTER + INTRA:          -5.032
REMARK INTER:                  -4.938
REMARK INTRA:                  -0.094
REMARK UNBOUND:                -0.159
REMARK  Name = 1550473
REMARK  2 active torsions:
REMARK  status: ('A' for Active; 'I' for Inactive)
REMARK    1  A    between atoms: N_1  and  C_4
REMARK    2  A    between atoms: C_4  and  C_5
REMARK                            x       y       z     vdW  Elec       q    Type
REMARK                         _______ _______ _______ _____ _____    ______ ____
ROOT
ATOM      1  N   UNL     1     -13.554   2.752  11.586  0.00  0.00    -0.354 N 
ATOM      2  N   UNL     1     -14.978   1.025  12.178  0.00  0.00    -0.372 N 
ATOM      3  N   UNL     1     -12.732   0.801  12.590  0.00  0.00    -0.372 N 
ATOM      4  C   UNL     1     -13.743   1.536  12.115  0.00  0.00    +0.166 C 
ATOM      5  H   UNL     1     -14.357   3.246  11.216  0.00  0.00    +0.163 HD
ATOM      6  H   UNL     1     -15.152   0.111  12.574  0.00  0.00    +0.159 HD
ATOM      7  H   UNL     1     -15.785   1.540  11.849  0.00  0.00    +0.159 HD
ATOM      8  H   UNL     1     -11.775   1.127  12.566  0.00  0.00    +0.159 HD
ATOM      9  H   UNL     1     -12.884  -0.121  12.980  0.00  0.00    +0.159 HD
ENDROOT
BRANCH   1  10
ATOM     10  C   UNL     1     -12.256   3.422  11.519  0.00  0.00    +0.151 C 
BRANCH  10  11
ATOM     11  C   UNL     1     -12.431   4.770  10.875  0.00  0.00    -0.028 A 
ATOM     12  C   UNL     1     -12.650   4.876   9.494  0.00  0.00    +0.005 A 
ATOM     13  C   UNL     1     -12.386   5.944  11.642  0.00  0.00    +0.005 A 
ATOM     14  C   UNL     1     -12.843   6.125   8.900  0.00  0.00    +0.000 A 
ATOM     15  C   UNL     1     -12.578   7.190  11.045  0.00  0.00    +0.000 A 
ATOM     16  C   UNL     1     -12.809   7.280   9.674  0.00  0.00    +0.000 A 
ENDBRANCH  10  11
ENDBRANCH   1  10
TORSDOF 2
ENDMDL
MODEL 9
REMARK VINA RESULT:    -4.247      3.983      6.850
REMARK INTER + INTRA:          -4.903
REMARK INTER:                  -4.781
REMARK INTRA:                  -0.121
REMARK UNBOUND:                -0.159
REMARK  Name = 1550473
REMARK  2 active torsions:
REMARK  status: ('A' for Active; 'I' for Inactive)
REMARK    1  A    between atoms: N_1  and  C_4
REMARK    2  A    between atoms: C_4  and  C_5
REMARK                            x       y       z     vdW  Elec       q    Type
REMARK                         _______ _______ _______ _____ _____    ______ ____
ROOT
ATOM      1  N   UNL     1     -11.648  -6.023  -6.592  0.00  0.00    -0.354 N 
ATOM      2  N   UNL     1     -11.997  -7.130  -8.597  0.00  0.00    -0.372 N 
ATOM      3  N   UNL     1     -10.286  -5.608  -8.453  0.00  0.00    -0.372 N 
ATOM      4  C   UNL     1     -11.306  -6.245  -7.868  0.00  0.00    +0.166 C 
ATOM      5  H   UNL     1     -12.451  -6.516  -6.217  0.00  0.00    +0.163 HD
ATOM      6  H   UNL     1     -11.760  -7.321  -9.561  0.00  0.00    +0.159 HD
ATOM      7  H   UNL     1     -12.770  -7.655  -8.205  0.00  0.00    +0.159 HD
ATOM      8  H   UNL     1      -9.728  -4.924  -7.960  0.00  0.00    +0.159 HD
ATOM      9  H   UNL     1     -10.041  -5.777  -9.421  0.00  0.00    +0.159 HD
ENDROOT
BRANCH   1  10
ATOM     10  C   UNL     1     -10.927  -5.120  -5.697  0.00  0.00    +0.151 C 
BRANCH  10  11
ATOM     11  C   UNL     1     -11.427  -5.317  -4.293  0.00  0.00    -0.028 A 
ATOM     12  C   UNL     1     -11.282  -4.302  -3.336  0.00  0.00    +0.005 A 
ATOM     13  C   UNL     1     -12.051  -6.516  -3.914  0.00  0.00    +0.005 A 
ATOM     14  C   UNL     1     -11.773  -4.474  -2.040  0.00  0.00    +0.000 A 
ATOM     15  C   UNL     1     -12.539  -6.683  -2.618  0.00  0.00    +0.000 A 
ATOM     16  C   UNL     1     -12.402  -5.661  -1.682  0.00  0.00    +0.000 A 
ENDBRANCH  10  11
ENDBRANCH   1  10
TORSDOF 2
ENDMDL
