MODEL 1
REMARK VINA RESULT:    -5.676      0.000      0.000
REMARK INTER + INTRA:          -6.495
REMARK INTER:                  -6.339
REMARK INTRA:                  -0.156
REMARK UNBOUND:                -0.156
REMARK  Name = 1550473
REMARK  2 active torsions:
REMARK  status: ('A' for Active; 'I' for Inactive)
REMARK    1  A    between atoms: N_1  and  C_4
REMARK    2  A    between atoms: C_4  and  C_5
REMARK                            x       y       z     vdW  Elec       q    Type
REMARK                         _______ _______ _______ _____ _____    ______ ____
ROOT
ATOM      1  N   UNL     1      -3.902  -1.619   3.334  0.00  0.00    -0.354 N 
ATOM      2  N   UNL     1      -1.688  -1.247   3.906  0.00  0.00    -0.372 N 
ATOM      3  N   UNL     1      -2.813   0.364   2.721  0.00  0.00    -0.372 N 
ATOM      4  C   UNL     1      -2.816  -0.834   3.315  0.00  0.00    +0.166 C 
ATOM      5  H   UNL     1      -3.830  -2.529   3.775  0.00  0.00    +0.163 HD
ATOM      6  H   UNL     1      -0.854  -0.675   3.910  0.00  0.00    +0.159 HD
ATOM      7  H   UNL     1      -1.633  -2.137   4.385  0.00  0.00    +0.159 HD
ATOM      8  H   UNL     1      -3.631   0.731   2.252  0.00  0.00    +0.159 HD
ATOM      9  H   UNL     1      -1.985   0.946   2.704  0.00  0.00    +0.159 HD
ENDROOT
BRANCH   1  10
ATOM     10  C   UNL     1      -5.195  -1.240   2.767  0.00  0.00    +0.151 C 
BRANCH  10  11
ATOM     11  C   UNL     1      -5.402  -1.985   1.477  0.00  0.00    -0.028 A 
ATOM     12  C   UNL     1      -6.251  -3.101   1.428  0.00  0.00    +0.005 A 
ATOM     13  C   UNL     1      -4.758  -1.576   0.299  0.00  0.00    +0.005 A 
ATOM     14  C   UNL     1      -6.467  -3.775   0.223  0.00  0.00    +0.000 A 
ATOM     15  C   UNL     1      -4.976  -2.252  -0.901  0.00  0.00    +0.000 A 
ATOM     16  C   UNL     1      -5.833  -3.350  -0.939  0.00  0.00    +0.000 A 
ENDBRANCH  10  11
ENDBRANCH   1  10
TORSDOF 2
ENDMDL
MODEL 2
REMARK VINA RESULT:    -5.565      2.466      3.216
REMARK INTER + INTRA:          -6.372
REMARK INTER:                  -6.264
REMARK INTRA:                  -0.107
REMARK UNBOUND:                -0.156
REMARK  Name = 1550473
REMARK  2 active torsions:
REMARK  status: ('A' for Active; 'I' for Inactive)
REMARK    1  A    between atoms: N_1  and  C_4
REMARK    2  A    between atoms: C_4  and  C_5
REMARK                            x       y       z     vdW  Elec       q    Type
REMARK                         _______ _______ _______ _____ _____    ______ ____
ROOT
ATOM      1  N   UNL     1      -4.225   1.549   0.761  0.00  0.00    -0.354 N 
ATOM      2  N   UNL     1      -4.763   3.760   0.327  0.00  0.00    -0.372 N 
ATOM      3  N   UNL     1      -4.101   3.174   2.445  0.00  0.00    -0.372 N 
ATOM      4  C   UNL     1      -4.359   2.813   1.183  0.00  0.00    +0.166 C 
ATOM      5  H   UNL     1      -4.465   1.335  -0.200  0.00  0.00    +0.163 HD
ATOM      6  H   UNL     1      -4.870   4.723   0.616  0.00  0.00    +0.159 HD
ATOM      7  H   UNL     1      -4.958   3.551  -0.645  0.00  0.00    +0.159 HD
ATOM      8  H   UNL     1      -3.799   2.506   3.142  0.00  0.00    +0.159 HD
ATOM      9  H   UNL     1      -4.214   4.131   2.756  0.00  0.00    +0.159 HD
ENDROOT
BRANCH   1  10
ATOM     10  C   UNL     1      -3.740   0.454   1.599  0.00  0.00    +0.151 C 
BRANCH  10  11
ATOM     11  C   UNL     1      -4.467  -0.808   1.227  0.00  0.00    -0.028 A 
ATOM     12  C   UNL     1      -5.197  -1.521   2.191  0.00  0.00    +0.005 A 
ATOM     13  C   UNL     1      -4.436  -1.295  -0.089  0.00  0.00    +0.005 A 
ATOM     14  C   UNL     1      -5.897  -2.677   1.839  0.00  0.00    +0.000 A 
ATOM     15  C   UNL     1      -5.136  -2.450  -0.436  0.00  0.00    +0.000 A 
ATOM     16  C   UNL     1      -5.869  -3.139   0.527  0.00  0.00    +0.000 A 
ENDBRANCH  10  11
ENDBRANCH   1  10
TORSDOF 2
ENDMDL
MODEL 3
REMARK VINA RESULT:    -5.092     16.367     17.801
REMARK INTER + INTRA:          -5.843
REMARK INTER:                  -5.724
REMARK INTRA:                  -0.119
REMARK UNBOUND:                -0.156
REMARK  Name = 1550473
REMARK  2 active torsions:
REMARK  status: ('A' for Active; 'I' for Inactive)
REMARK    1  A    between atoms: N_1  and  C_4
REMARK    2  A    between atoms: C_4  and  C_5
REMARK                            x       y       z     vdW  Elec       q    Type
REMARK                         _______ _______ _______ _____ _____    ______ ____
ROOT
ATOM      1  N   UNL     1     -18.809  -1.404 -10.418  0.00  0.00    -0.354 N 
ATOM      2  N   UNL     1     -19.240  -2.804 -12.212  0.00  0.00    -0.372 N 
ATOM      3  N   UNL     1     -19.888  -3.462 -10.111  0.00  0.00    -0.372 N 
ATOM      4  C   UNL     1     -19.310  -2.549 -10.900  0.00  0.00    +0.166 C 
ATOM      5  H   UNL     1     -18.356  -0.767 -11.063  0.00  0.00    +0.163 HD
ATOM      6  H   UNL     1     -19.613  -3.657 -12.605  0.00  0.00    +0.159 HD
ATOM      7  H   UNL     1     -18.828  -2.145 -12.861  0.00  0.00    +0.159 HD
ATOM      8  H   UNL     1     -19.968  -3.332  -9.112  0.00  0.00    +0.159 HD
ATOM      9  H   UNL     1     -20.257  -4.328 -10.485  0.00  0.00    +0.159 HD
ENDROOT
BRANCH   1  10
ATOM     10  C   UNL     1     -18.882  -1.007  -9.013  0.00  0.00    +0.151 C 
BRANCH  10  11
ATOM     11  C   UNL     1     -17.622  -0.276  -8.642  0.00  0.00    -0.028 A 
ATOM     12  C   UNL     1     -17.664   1.079  -8.281  0.00  0.00    +0.005 A 
ATOM     13  C   UNL     1     -16.382  -0.933  -8.645  0.00  0.00    +0.005 A 
ATOM     14  C   UNL     1     -16.498   1.751  -7.907  0.00  0.00    +0.000 A 
ATOM     15  C   UNL     1     -15.219  -0.259  -8.273  0.00  0.00    +0.000 A 
ATOM     16  C   UNL     1     -15.278   1.082  -7.902  0.00  0.00    +0.000 A 
ENDBRANCH  10  11
ENDBRANCH   1  10
TORSDOF 2
ENDMDL
MODEL 4
REMARK VINA RESULT:    -4.993      2.984      4.113
REMARK INTER + INTRA:          -5.733
REMARK INTER:                  -5.564
REMARK INTRA:                  -0.169
REMARK UNBOUND:                -0.156
REMARK  Name = 1550473
REMARK  2 active torsions:
REMARK  status: ('A' for Active; 'I' for Inactive)
REMARK    1  A    between atoms: N_1  and  C_4
REMARK    2  A    between atoms: C_4  and  C_5
REMARK                            x       y       z     vdW  Elec       q    Type
REMARK                         _______ _______ _______ _____ _____    ______ ____
ROOT
ATOM      1  N   UNL     1      -2.333  -1.627   5.200  0.00  0.00    -0.354 N 
ATOM      2  N   UNL     1      -0.195  -2.220   5.865  0.00  0.00    -0.372 N 
ATOM      3  N   UNL     1      -1.127  -0.301   6.710  0.00  0.00    -0.372 N 
ATOM      4  C   UNL     1      -1.232  -1.376   5.922  0.00  0.00    +0.166 C 
ATOM      5  H   UNL     1      -2.339  -2.443   4.599  0.00  0.00    +0.163 HD
ATOM      6  H   UNL     1       0.647  -2.059   6.401  0.00  0.00    +0.159 HD
ATOM      7  H   UNL     1      -0.221  -3.059   5.299  0.00  0.00    +0.159 HD
ATOM      8  H   UNL     1      -1.872   0.378   6.793  0.00  0.00    +0.159 HD
ATOM      9  H   UNL     1      -0.288  -0.116   7.245  0.00  0.00    +0.159 HD
ENDROOT
BRANCH   1  10
ATOM     10  C   UNL     1      -3.538  -0.800   5.232  0.00  0.00    +0.151 C 
BRANCH  10  11
ATOM     11  C   UNL     1      -3.652  -0.047   3.935  0.00  0.00    -0.028 A 
ATOM     12  C   UNL     1      -3.947  -0.724   2.743  0.00  0.00    +0.005 A 
ATOM     13  C   UNL     1      -3.471   1.344   3.893  0.00  0.00    +0.005 A 
ATOM     14  C   UNL     1      -4.083  -0.021   1.543  0.00  0.00    +0.000 A 
ATOM     15  C   UNL     1      -3.607   2.042   2.693  0.00  0.00    +0.000 A 
ATOM     16  C   UNL     1      -3.915   1.359   1.519  0.00  0.00    +0.000 A 
ENDBRANCH  10  11
ENDBRANCH   1  10
TORSDOF 2
ENDMDL
MODEL 5
REMARK VINA RESULT:    -4.735     23.633     25.178
REMARK INTER + INTRA:          -5.445
REMARK INTER:                  -5.323
REMARK INTRA:                  -0.122
REMARK UNBOUND:                -0.156
REMARK  Name = 1550473
REMARK  2 active torsions:
REMARK  status: ('A' for Active; 'I' for Inactive)
REMARK    1  A    between atoms: N_1  and  C_4
REMARK    2  A    between atoms: C_4  and  C_5
REMARK                            x       y       z     vdW  Elec       q    Type
REMARK                         _______ _______ _______ _____ _____    ______ ____
ROOT
ATOM      1  N   UNL     1      -6.540  -2.860 -22.192  0.00  0.00    -0.354 N 
ATOM      2  N   UNL     1      -5.359  -2.946 -20.201  0.00  0.00    -0.372 N 
ATOM      3  N   UNL     1      -4.479  -1.769 -21.964  0.00  0.00    -0.372 N 
ATOM      4  C   UNL     1      -5.465  -2.523 -21.467  0.00  0.00    +0.166 C 
ATOM      5  H   UNL     1      -7.239  -3.459 -21.767  0.00  0.00    +0.163 HD
ATOM      6  H   UNL     1      -4.561  -2.705 -19.629  0.00  0.00    +0.159 HD
ATOM      7  H   UNL     1      -6.081  -3.506 -19.764  0.00  0.00    +0.159 HD
ATOM      8  H   UNL     1      -4.496  -1.423 -22.914  0.00  0.00    +0.159 HD
ATOM      9  H   UNL     1      -3.666  -1.527 -21.410  0.00  0.00    +0.159 HD
ENDROOT
BRANCH   1  10
ATOM     10  C   UNL     1      -6.778  -2.407 -23.561  0.00  0.00    +0.151 C 
BRANCH  10  11
ATOM     11  C   UNL     1      -8.127  -2.894 -24.013  0.00  0.00    -0.028 A 
ATOM     12  C   UNL     1      -8.672  -2.456 -25.228  0.00  0.00    +0.005 A 
ATOM     13  C   UNL     1      -8.863  -3.799 -23.232  0.00  0.00    +0.005 A 
ATOM     14  C   UNL     1      -9.912  -2.932 -25.662  0.00  0.00    +0.000 A 
ATOM     15  C   UNL     1     -10.101  -4.271 -23.668  0.00  0.00    +0.000 A 
ATOM     16  C   UNL     1     -10.624  -3.839 -24.885  0.00  0.00    +0.000 A 
ENDBRANCH  10  11
ENDBRANCH   1  10
TORSDOF 2
ENDMDL
MODEL 6
REMARK VINA RESULT:    -4.722      2.975      4.941
REMARK INTER + INTRA:          -5.430
REMARK INTER:                  -5.280
REMARK INTRA:                  -0.149
REMARK UNBOUND:                -0.156
REMARK  Name = 1550473
REMARK  2 active torsions:
REMARK  status: ('A' for Active; 'I' for Inactive)
REMARK    1  A    between atoms: N_1  and  C_4
REMARK    2  A    between atoms: C_4  and  C_5
REMARK                            x       y       z     vdW  Elec       q    Type
REMARK                         _______ _______ _______ _____ _____    ______ ____
ROOT
ATOM      1  N   UNL     1      -5.055  -1.210   2.883  0.00  0.00    -0.354 N 
ATOM      2  N   UNL     1      -6.321  -2.911   1.952  0.00  0.00    -0.372 N 
ATOM      3  N   UNL     1      -4.042  -2.948   1.681  0.00  0.00    -0.372 N 
ATOM      4  C   UNL     1      -5.128  -2.346   2.177  0.00  0.00    +0.166 C 
ATOM      5  H   UNL     1      -5.918  -0.787   3.206  0.00  0.00    +0.163 HD
ATOM      6  H   UNL     1      -6.407  -3.770   1.426  0.00  0.00    +0.159 HD
ATOM      7  H   UNL     1      -7.177  -2.511   2.315  0.00  0.00    +0.159 HD
ATOM      8  H   UNL     1      -3.114  -2.569   1.810  0.00  0.00    +0.159 HD
ATOM      9  H   UNL     1      -4.109  -3.802   1.141  0.00  0.00    +0.159 HD
ENDROOT
BRANCH   1  10
ATOM     10  C   UNL     1      -3.802  -0.542   3.229  0.00  0.00    +0.151 C 
BRANCH  10  11
ATOM     11  C   UNL     1      -3.861   0.887   2.765  0.00  0.00    -0.028 A 
ATOM     12  C   UNL     1      -4.094   1.187   1.414  0.00  0.00    +0.005 A 
ATOM     13  C   UNL     1      -3.692   1.945   3.670  0.00  0.00    +0.005 A 
ATOM     14  C   UNL     1      -4.180   2.515   0.987  0.00  0.00    +0.000 A 
ATOM     15  C   UNL     1      -3.777   3.269   3.240  0.00  0.00    +0.000 A 
ATOM     16  C   UNL     1      -4.024   3.553   1.899  0.00  0.00    +0.000 A 
ENDBRANCH  10  11
ENDBRANCH   1  10
TORSDOF 2
ENDMDL
MODEL 7
REMARK VINA RESULT:    -4.652     22.584     23.756
REMARK INTER + INTRA:          -5.352
REMARK INTER:                  -5.199
REMARK INTRA:                  -0.152
REMARK UNBOUND:                -0.156
REMARK  Name = 1550473
REMARK  2 active torsions:
REMARK  status: ('A' for Active; 'I' for Inactive)
REMARK    1  A    between atoms: N_1  and  C_4
REMARK    2  A    between atoms: C_4  and  C_5
REMARK                            x       y       z     vdW  Elec       q    Type
REMARK                         _______ _______ _______ _____ _____    ______ ____
ROOT
ATOM      1  N   UNL     1      -6.262  19.665  -9.681  0.00  0.00    -0.354 N 
ATOM      2  N   UNL     1      -7.338  20.745  -7.938  0.00  0.00    -0.372 N 
ATOM      3  N   UNL     1      -7.230  18.453  -7.925  0.00  0.00    -0.372 N 
ATOM      4  C   UNL     1      -6.937  19.611  -8.525  0.00  0.00    +0.166 C 
ATOM      5  H   UNL     1      -6.098  20.573 -10.101  0.00  0.00    +0.163 HD
ATOM      6  H   UNL     1      -7.846  20.736  -7.064  0.00  0.00    +0.159 HD
ATOM      7  H   UNL     1      -7.132  21.653  -8.336  0.00  0.00    +0.159 HD
ATOM      8  H   UNL     1      -6.961  17.562  -8.320  0.00  0.00    +0.159 HD
ATOM      9  H   UNL     1      -7.748  18.423  -7.055  0.00  0.00    +0.159 HD
ENDROOT
BRANCH   1  10
ATOM     10  C   UNL     1      -5.734  18.491 -10.375  0.00  0.00    +0.151 C 
BRANCH  10  11
ATOM     11  C   UNL     1      -4.262  18.374 -10.092  0.00  0.00    -0.028 A 
ATOM     12  C   UNL     1      -3.320  18.874 -11.003  0.00  0.00    +0.005 A 
ATOM     13  C   UNL     1      -3.803  17.770  -8.911  0.00  0.00    +0.005 A 
ATOM     14  C   UNL     1      -1.953  18.793 -10.726  0.00  0.00    +0.000 A 
ATOM     15  C   UNL     1      -2.437  17.690  -8.639  0.00  0.00    +0.000 A 
ATOM     16  C   UNL     1      -1.513  18.203  -9.545  0.00  0.00    +0.000 A 
ENDBRANCH  10  11
ENDBRANCH   1  10
TORSDOF 2
ENDMDL
MODEL 8
REMARK VINA RESULT:    -4.549     23.930     24.515
REMARK INTER + INTRA:          -5.236
REMARK INTER:                  -5.127
REMARK INTRA:                  -0.109
REMARK UNBOUND:                -0.156
REMARK  Name = 1550473
REMARK  2 active torsions:
REMARK  status: ('A' for Active; 'I' for Inactive)
REMARK    1  A    between atoms: N_1  and  C_4
REMARK    2  A    between atoms: C_4  and  C_5
REMARK                            x       y       z     vdW  Elec       q    Type
REMARK                         _______ _______ _______ _____ _____    ______ ____
ROOT
ATOM      1  N   UNL     1       2.260   9.835  22.075  0.00  0.00    -0.354 N 
ATOM      2  N   UNL     1       2.267  12.146  22.237  0.00  0.00    -0.372 N 
ATOM      3  N   UNL     1       4.197  11.071  21.618  0.00  0.00    -0.372 N 
ATOM      4  C   UNL     1       2.911  11.002  21.975  0.00  0.00    +0.166 C 
ATOM      5  H   UNL     1       1.293   9.848  22.380  0.00  0.00    +0.163 HD
ATOM      6  H   UNL     1       2.731  13.042  22.166  0.00  0.00    +0.159 HD
ATOM      7  H   UNL     1       1.288  12.159  22.497  0.00  0.00    +0.159 HD
ATOM      8  H   UNL     1       4.742  10.244  21.413  0.00  0.00    +0.159 HD
ATOM      9  H   UNL     1       4.683  11.958  21.553  0.00  0.00    +0.159 HD
ENDROOT
BRANCH   1  10
ATOM     10  C   UNL     1       2.854   8.538  21.760  0.00  0.00    +0.151 C 
BRANCH  10  11
ATOM     11  C   UNL     1       2.144   7.469  22.544  0.00  0.00    -0.028 A 
ATOM     12  C   UNL     1       0.743   7.443  22.604  0.00  0.00    +0.005 A 
ATOM     13  C   UNL     1       2.866   6.476  23.224  0.00  0.00    +0.005 A 
ATOM     14  C   UNL     1       0.081   6.432  23.307  0.00  0.00    +0.000 A 
ATOM     15  C   UNL     1       2.202   5.469  23.925  0.00  0.00    +0.000 A 
ATOM     16  C   UNL     1       0.810   5.447  23.965  0.00  0.00    +0.000 A 
ENDBRANCH  10  11
ENDBRANCH   1  10
TORSDOF 2
ENDMDL
MODEL 9
REMARK VINA RESULT:    -4.525     15.601     16.795
REMARK INTER + INTRA:          -5.210
REMARK INTER:                  -5.070
REMARK INTRA:                  -0.140
REMARK UNBOUND:                -0.156
REMARK  Name = 1550473
REMARK  2 active torsions:
REMARK  status: ('A' for Active; 'I' for Inactive)
REMARK    1  A    between atoms: N_1  and  C_4
REMARK    2  A    between atoms: C_4  and  C_5
REMARK                            x       y       z     vdW  Elec       q    Type
REMARK                         _______ _______ _______ _____ _____    ______ ____
ROOT
ATOM      1  N   UNL     1     -19.665   1.714  -7.082  0.00  0.00    -0.354 N 
ATOM      2  N   UNL     1     -21.278   1.654  -5.421  0.00  0.00    -0.372 N 
ATOM      3  N   UNL     1     -19.834   3.435  -5.500  0.00  0.00    -0.372 N 
ATOM      4  C   UNL     1     -20.247   2.270  -6.011  0.00  0.00    +0.166 C 
ATOM      5  H   UNL     1     -20.006   0.815  -7.402  0.00  0.00    +0.163 HD
ATOM      6  H   UNL     1     -21.740   2.052  -4.614  0.00  0.00    +0.159 HD
ATOM      7  H   UNL     1     -21.646   0.778  -5.771  0.00  0.00    +0.159 HD
ATOM      8  H   UNL     1     -19.057   3.948  -5.896  0.00  0.00    +0.159 HD
ATOM      9  H   UNL     1     -20.275   3.843  -4.686  0.00  0.00    +0.159 HD
ENDROOT
BRANCH   1  10
ATOM     10  C   UNL     1     -18.570   2.330  -7.830  0.00  0.00    +0.151 C 
BRANCH  10  11
ATOM     11  C   UNL     1     -17.419   1.364  -7.900  0.00  0.00    -0.028 A 
ATOM     12  C   UNL     1     -16.099   1.834  -7.951  0.00  0.00    +0.005 A 
ATOM     13  C   UNL     1     -17.643  -0.021  -7.910  0.00  0.00    +0.005 A 
ATOM     14  C   UNL     1     -15.028   0.937  -7.986  0.00  0.00    +0.000 A 
ATOM     15  C   UNL     1     -16.571  -0.913  -7.946  0.00  0.00    +0.000 A 
ATOM     16  C   UNL     1     -15.264  -0.434  -7.981  0.00  0.00    +0.000 A 
ENDBRANCH  10  11
ENDBRANCH   1  10
TORSDOF 2
ENDMDL
