MODEL 1
REMARK VINA RESULT:    -4.678      0.000      0.000
REMARK INTER + INTRA:          -5.375
REMARK INTER:                  -5.225
REMARK INTRA:                  -0.150
REMARK UNBOUND:                -0.150
REMARK  Name = 1550473
REMARK  2 active torsions:
REMARK  status: ('A' for Active; 'I' for Inactive)
REMARK    1  A    between atoms: N_1  and  C_4
REMARK    2  A    between atoms: C_4  and  C_5
REMARK                            x       y       z     vdW  Elec       q    Type
REMARK                         _______ _______ _______ _____ _____    ______ ____
ROOT
ATOM      1  N   UNL     1      14.701   6.937  28.097  0.00  0.00    -0.354 N 
ATOM      2  N   UNL     1      16.017   7.269  29.974  0.00  0.00    -0.372 N 
ATOM      3  N   UNL     1      14.292   5.760  30.082  0.00  0.00    -0.372 N 
ATOM      4  C   UNL     1      14.993   6.651  29.373  0.00  0.00    +0.166 C 
ATOM      5  H   UNL     1      15.252   7.644  27.624  0.00  0.00    +0.163 HD
ATOM      6  H   UNL     1      16.263   7.072  30.935  0.00  0.00    +0.159 HD
ATOM      7  H   UNL     1      16.595   7.942  29.485  0.00  0.00    +0.159 HD
ATOM      8  H   UNL     1      13.504   5.264  29.689  0.00  0.00    +0.159 HD
ATOM      9  H   UNL     1      14.516   5.558  31.049  0.00  0.00    +0.159 HD
ENDROOT
BRANCH   1  10
ATOM     10  C   UNL     1      13.641   6.281  27.335  0.00  0.00    +0.151 C 
BRANCH  10  11
ATOM     11  C   UNL     1      12.657   7.319  26.870  0.00  0.00    -0.028 A 
ATOM     12  C   UNL     1      11.556   7.665  27.667  0.00  0.00    +0.005 A 
ATOM     13  C   UNL     1      12.822   7.963  25.634  0.00  0.00    +0.005 A 
ATOM     14  C   UNL     1      10.659   8.650  27.249  0.00  0.00    +0.000 A 
ATOM     15  C   UNL     1      11.923   8.946  25.220  0.00  0.00    +0.000 A 
ATOM     16  C   UNL     1      10.843   9.291  26.028  0.00  0.00    +0.000 A 
ENDBRANCH  10  11
ENDBRANCH   1  10
TORSDOF 2
ENDMDL
MODEL 2
REMARK VINA RESULT:    -4.639     19.865     21.110
REMARK INTER + INTRA:          -5.332
REMARK INTER:                  -5.208
REMARK INTRA:                  -0.123
REMARK UNBOUND:                -0.150
REMARK  Name = 1550473
REMARK  2 active torsions:
REMARK  status: ('A' for Active; 'I' for Inactive)
REMARK    1  A    between atoms: N_1  and  C_4
REMARK    2  A    between atoms: C_4  and  C_5
REMARK                            x       y       z     vdW  Elec       q    Type
REMARK                         _______ _______ _______ _____ _____    ______ ____
ROOT
ATOM      1  N   UNL     1      17.384  21.273  40.142  0.00  0.00    -0.354 N 
ATOM      2  N   UNL     1      15.636  19.994  39.322  0.00  0.00    -0.372 N 
ATOM      3  N   UNL     1      17.499  18.932  40.141  0.00  0.00    -0.372 N 
ATOM      4  C   UNL     1      16.853  20.073  39.874  0.00  0.00    +0.166 C 
ATOM      5  H   UNL     1      16.856  22.100  39.888  0.00  0.00    +0.163 HD
ATOM      6  H   UNL     1      15.209  19.102  39.111  0.00  0.00    +0.159 HD
ATOM      7  H   UNL     1      15.092  20.821  39.111  0.00  0.00    +0.159 HD
ATOM      8  H   UNL     1      18.422  18.924  40.552  0.00  0.00    +0.159 HD
ATOM      9  H   UNL     1      17.092  18.030  39.927  0.00  0.00    +0.159 HD
ENDROOT
BRANCH   1  10
ATOM     10  C   UNL     1      18.679  21.468  40.792  0.00  0.00    +0.151 C 
BRANCH  10  11
ATOM     11  C   UNL     1      18.653  22.760  41.561  0.00  0.00    -0.028 A 
ATOM     12  C   UNL     1      19.551  22.978  42.616  0.00  0.00    +0.005 A 
ATOM     13  C   UNL     1      17.737  23.772  41.235  0.00  0.00    +0.005 A 
ATOM     14  C   UNL     1      19.547  24.190  43.312  0.00  0.00    +0.000 A 
ATOM     15  C   UNL     1      17.737  24.980  41.932  0.00  0.00    +0.000 A 
ATOM     16  C   UNL     1      18.643  25.190  42.969  0.00  0.00    +0.000 A 
ENDBRANCH  10  11
ENDBRANCH   1  10
TORSDOF 2
ENDMDL
MODEL 3
REMARK VINA RESULT:    -4.586     18.350     18.944
REMARK INTER + INTRA:          -5.272
REMARK INTER:                  -5.149
REMARK INTRA:                  -0.123
REMARK UNBOUND:                -0.150
REMARK  Name = 1550473
REMARK  2 active torsions:
REMARK  status: ('A' for Active; 'I' for Inactive)
REMARK    1  A    between atoms: N_1  and  C_4
REMARK    2  A    between atoms: C_4  and  C_5
REMARK                            x       y       z     vdW  Elec       q    Type
REMARK                         _______ _______ _______ _____ _____    ______ ____
ROOT
ATOM      1  N   UNL     1      -0.338  -4.039  18.377  0.00  0.00    -0.354 N 
ATOM      2  N   UNL     1      -2.515  -4.828  18.407  0.00  0.00    -0.372 N 
ATOM      3  N   UNL     1      -0.859  -6.106  19.349  0.00  0.00    -0.372 N 
ATOM      4  C   UNL     1      -1.222  -4.988  18.712  0.00  0.00    +0.166 C 
ATOM      5  H   UNL     1      -0.673  -3.228  17.868  0.00  0.00    +0.163 HD
ATOM      6  H   UNL     1      -3.206  -5.526  18.650  0.00  0.00    +0.159 HD
ATOM      7  H   UNL     1      -2.854  -3.996  17.939  0.00  0.00    +0.159 HD
ATOM      8  H   UNL     1       0.103  -6.290  19.602  0.00  0.00    +0.159 HD
ATOM      9  H   UNL     1      -1.533  -6.822  19.591  0.00  0.00    +0.159 HD
ENDROOT
BRANCH   1  10
ATOM     10  C   UNL     1       1.084  -4.091  18.710  0.00  0.00    +0.151 C 
BRANCH  10  11
ATOM     11  C   UNL     1       1.714  -2.764  18.385  0.00  0.00    -0.028 A 
ATOM     12  C   UNL     1       0.915  -1.638  18.142  0.00  0.00    +0.005 A 
ATOM     13  C   UNL     1       3.109  -2.626  18.325  0.00  0.00    +0.005 A 
ATOM     14  C   UNL     1       1.500  -0.398  17.870  0.00  0.00    +0.000 A 
ATOM     15  C   UNL     1       3.689  -1.388  18.053  0.00  0.00    +0.000 A 
ATOM     16  C   UNL     1       2.884  -0.274  17.828  0.00  0.00    +0.000 A 
ENDBRANCH  10  11
ENDBRANCH   1  10
TORSDOF 2
ENDMDL
MODEL 4
REMARK VINA RESULT:    -4.553     12.671     13.311
REMARK INTER + INTRA:          -5.235
REMARK INTER:                  -5.088
REMARK INTRA:                  -0.147
REMARK UNBOUND:                -0.150
REMARK  Name = 1550473
REMARK  2 active torsions:
REMARK  status: ('A' for Active; 'I' for Inactive)
REMARK    1  A    between atoms: N_1  and  C_4
REMARK    2  A    between atoms: C_4  and  C_5
REMARK                            x       y       z     vdW  Elec       q    Type
REMARK                         _______ _______ _______ _____ _____    ______ ____
ROOT
ATOM      1  N   UNL     1      18.789  18.036  33.202  0.00  0.00    -0.354 N 
ATOM      2  N   UNL     1      20.098  16.295  33.989  0.00  0.00    -0.372 N 
ATOM      3  N   UNL     1      21.051  18.364  33.720  0.00  0.00    -0.372 N 
ATOM      4  C   UNL     1      19.973  17.579  33.632  0.00  0.00    +0.166 C 
ATOM      5  H   UNL     1      18.018  17.383  33.130  0.00  0.00    +0.163 HD
ATOM      6  H   UNL     1      20.977  15.921  34.320  0.00  0.00    +0.159 HD
ATOM      7  H   UNL     1      19.313  15.655  33.959  0.00  0.00    +0.159 HD
ATOM      8  H   UNL     1      21.025  19.341  33.460  0.00  0.00    +0.159 HD
ATOM      9  H   UNL     1      21.943  18.006  34.037  0.00  0.00    +0.159 HD
ENDROOT
BRANCH   1  10
ATOM     10  C   UNL     1      18.534  19.430  32.841  0.00  0.00    +0.151 C 
BRANCH  10  11
ATOM     11  C   UNL     1      18.088  19.491  31.406  0.00  0.00    -0.028 A 
ATOM     12  C   UNL     1      17.762  18.317  30.711  0.00  0.00    +0.005 A 
ATOM     13  C   UNL     1      17.983  20.720  30.737  0.00  0.00    +0.005 A 
ATOM     14  C   UNL     1      17.318  18.375  29.388  0.00  0.00    +0.000 A 
ATOM     15  C   UNL     1      17.541  20.774  29.416  0.00  0.00    +0.000 A 
ATOM     16  C   UNL     1      17.206  19.602  28.742  0.00  0.00    +0.000 A 
ENDBRANCH  10  11
ENDBRANCH   1  10
TORSDOF 2
ENDMDL
MODEL 5
REMARK VINA RESULT:    -4.407     19.334     19.928
REMARK INTER + INTRA:          -5.072
REMARK INTER:                  -4.942
REMARK INTRA:                  -0.131
REMARK UNBOUND:                -0.150
REMARK  Name = 1550473
REMARK  2 active torsions:
REMARK  status: ('A' for Active; 'I' for Inactive)
REMARK    1  A    between atoms: N_1  and  C_4
REMARK    2  A    between atoms: C_4  and  C_5
REMARK                            x       y       z     vdW  Elec       q    Type
REMARK                         _______ _______ _______ _____ _____    ______ ____
ROOT
ATOM      1  N   UNL     1      -1.046  -4.884  19.057  0.00  0.00    -0.354 N 
ATOM      2  N   UNL     1      -3.207  -5.658  19.363  0.00  0.00    -0.372 N 
ATOM      3  N   UNL     1      -1.783  -6.849  18.014  0.00  0.00    -0.372 N 
ATOM      4  C   UNL     1      -1.997  -5.794  18.807  0.00  0.00    +0.166 C 
ATOM      5  H   UNL     1      -1.280  -4.091  19.643  0.00  0.00    +0.163 HD
ATOM      6  H   UNL     1      -3.943  -6.331  19.197  0.00  0.00    +0.159 HD
ATOM      7  H   UNL     1      -3.424  -4.889  19.986  0.00  0.00    +0.159 HD
ATOM      8  H   UNL     1      -0.894  -7.005  17.559  0.00  0.00    +0.159 HD
ATOM      9  H   UNL     1      -2.512  -7.526  17.825  0.00  0.00    +0.159 HD
ENDROOT
BRANCH   1  10
ATOM     10  C   UNL     1       0.320  -4.968  18.544  0.00  0.00    +0.151 C 
BRANCH  10  11
ATOM     11  C   UNL     1       0.865  -3.577  18.366  0.00  0.00    -0.028 A 
ATOM     12  C   UNL     1       2.246  -3.362  18.249  0.00  0.00    +0.005 A 
ATOM     13  C   UNL     1       0.004  -2.470  18.307  0.00  0.00    +0.005 A 
ATOM     14  C   UNL     1       2.750  -2.074  18.054  0.00  0.00    +0.000 A 
ATOM     15  C   UNL     1       0.511  -1.185  18.113  0.00  0.00    +0.000 A 
ATOM     16  C   UNL     1       1.883  -0.988  17.984  0.00  0.00    +0.000 A 
ENDBRANCH  10  11
ENDBRANCH   1  10
TORSDOF 2
ENDMDL
MODEL 6
REMARK VINA RESULT:    -4.227     42.974     44.176
REMARK INTER + INTRA:          -4.871
REMARK INTER:                  -4.736
REMARK INTRA:                  -0.135
REMARK UNBOUND:                -0.150
REMARK  Name = 1550473
REMARK  2 active torsions:
REMARK  status: ('A' for Active; 'I' for Inactive)
REMARK    1  A    between atoms: N_1  and  C_4
REMARK    2  A    between atoms: C_4  and  C_5
REMARK                            x       y       z     vdW  Elec       q    Type
REMARK                         _______ _______ _______ _____ _____    ______ ____
ROOT
ATOM      1  N   UNL     1     -13.119   3.153  -7.218  0.00  0.00    -0.354 N 
ATOM      2  N   UNL     1     -11.541   1.588  -6.567  0.00  0.00    -0.372 N 
ATOM      3  N   UNL     1     -13.569   0.857  -7.352  0.00  0.00    -0.372 N 
ATOM      4  C   UNL     1     -12.756   1.874  -7.050  0.00  0.00    +0.166 C 
ATOM      5  H   UNL     1     -12.468   3.878  -6.942  0.00  0.00    +0.163 HD
ATOM      6  H   UNL     1     -11.238   0.632  -6.433  0.00  0.00    +0.159 HD
ATOM      7  H   UNL     1     -10.875   2.314  -6.335  0.00  0.00    +0.159 HD
ATOM      8  H   UNL     1     -14.501   1.006  -7.715  0.00  0.00    +0.159 HD
ATOM      9  H   UNL     1     -13.288  -0.106  -7.214  0.00  0.00    +0.159 HD
ENDROOT
BRANCH   1  10
ATOM     10  C   UNL     1     -14.399   3.571  -7.788  0.00  0.00    +0.151 C 
BRANCH  10  11
ATOM     11  C   UNL     1     -15.310   4.013  -6.676  0.00  0.00    -0.028 A 
ATOM     12  C   UNL     1     -14.784   4.396  -5.434  0.00  0.00    +0.005 A 
ATOM     13  C   UNL     1     -16.701   4.056  -6.861  0.00  0.00    +0.005 A 
ATOM     14  C   UNL     1     -15.628   4.835  -4.411  0.00  0.00    +0.000 A 
ATOM     15  C   UNL     1     -17.540   4.494  -5.837  0.00  0.00    +0.000 A 
ATOM     16  C   UNL     1     -17.004   4.886  -4.613  0.00  0.00    +0.000 A 
ENDBRANCH  10  11
ENDBRANCH   1  10
TORSDOF 2
ENDMDL
MODEL 7
REMARK VINA RESULT:    -4.169     42.924     43.975
REMARK INTER + INTRA:          -4.807
REMARK INTER:                  -4.693
REMARK INTRA:                  -0.114
REMARK UNBOUND:                -0.150
REMARK  Name = 1550473
REMARK  2 active torsions:
REMARK  status: ('A' for Active; 'I' for Inactive)
REMARK    1  A    between atoms: N_1  and  C_4
REMARK    2  A    between atoms: C_4  and  C_5
REMARK                            x       y       z     vdW  Elec       q    Type
REMARK                         _______ _______ _______ _____ _____    ______ ____
ROOT
ATOM      1  N   UNL     1     -16.290   5.504  -5.795  0.00  0.00    -0.354 N 
ATOM      2  N   UNL     1     -18.555   5.018  -5.813  0.00  0.00    -0.372 N 
ATOM      3  N   UNL     1     -17.340   4.572  -3.918  0.00  0.00    -0.372 N 
ATOM      4  C   UNL     1     -17.379   5.033  -5.173  0.00  0.00    +0.166 C 
ATOM      5  H   UNL     1     -16.380   5.812  -6.756  0.00  0.00    +0.163 HD
ATOM      6  H   UNL     1     -19.394   4.671  -5.368  0.00  0.00    +0.159 HD
ATOM      7  H   UNL     1     -18.651   5.368  -6.758  0.00  0.00    +0.159 HD
ATOM      8  H   UNL     1     -16.482   4.551  -3.382  0.00  0.00    +0.159 HD
ATOM      9  H   UNL     1     -18.167   4.210  -3.460  0.00  0.00    +0.159 HD
ENDROOT
BRANCH   1  10
ATOM     10  C   UNL     1     -14.974   5.615  -5.168  0.00  0.00    +0.151 C 
BRANCH  10  11
ATOM     11  C   UNL     1     -14.005   4.729  -5.901  0.00  0.00    -0.028 A 
ATOM     12  C   UNL     1     -14.442   3.540  -6.503  0.00  0.00    +0.005 A 
ATOM     13  C   UNL     1     -12.649   5.076  -6.003  0.00  0.00    +0.005 A 
ATOM     14  C   UNL     1     -13.548   2.732  -7.209  0.00  0.00    +0.000 A 
ATOM     15  C   UNL     1     -11.760   4.267  -6.709  0.00  0.00    +0.000 A 
ATOM     16  C   UNL     1     -12.210   3.096  -7.314  0.00  0.00    +0.000 A 
ENDBRANCH  10  11
ENDBRANCH   1  10
TORSDOF 2
ENDMDL
MODEL 8
REMARK VINA RESULT:    -4.147      3.362      3.954
REMARK INTER + INTRA:          -4.782
REMARK INTER:                  -4.647
REMARK INTRA:                  -0.135
REMARK UNBOUND:                -0.150
REMARK  Name = 1550473
REMARK  2 active torsions:
REMARK  status: ('A' for Active; 'I' for Inactive)
REMARK    1  A    between atoms: N_1  and  C_4
REMARK    2  A    between atoms: C_4  and  C_5
REMARK                            x       y       z     vdW  Elec       q    Type
REMARK                         _______ _______ _______ _____ _____    ______ ____
ROOT
ATOM      1  N   UNL     1      12.125   4.620  25.119  0.00  0.00    -0.354 N 
ATOM      2  N   UNL     1      13.398   2.778  24.527  0.00  0.00    -0.372 N 
ATOM      3  N   UNL     1      12.257   2.744  26.518  0.00  0.00    -0.372 N 
ATOM      4  C   UNL     1      12.584   3.392  25.395  0.00  0.00    +0.166 C 
ATOM      5  H   UNL     1      12.434   5.070  24.265  0.00  0.00    +0.163 HD
ATOM      6  H   UNL     1      13.758   1.850  24.706  0.00  0.00    +0.159 HD
ATOM      7  H   UNL     1      13.669   3.211  23.652  0.00  0.00    +0.159 HD
ATOM      8  H   UNL     1      11.652   3.155  27.216  0.00  0.00    +0.159 HD
ATOM      9  H   UNL     1      12.617   1.820  26.720  0.00  0.00    +0.159 HD
ENDROOT
BRANCH   1  10
ATOM     10  C   UNL     1      11.191   5.354  25.972  0.00  0.00    +0.151 C 
BRANCH  10  11
ATOM     11  C   UNL     1      11.548   6.815  25.947  0.00  0.00    -0.028 A 
ATOM     12  C   UNL     1      12.823   7.230  25.535  0.00  0.00    +0.005 A 
ATOM     13  C   UNL     1      10.614   7.790  26.330  0.00  0.00    +0.005 A 
ATOM     14  C   UNL     1      13.145   8.588  25.483  0.00  0.00    +0.000 A 
ATOM     15  C   UNL     1      10.940   9.145  26.278  0.00  0.00    +0.000 A 
ATOM     16  C   UNL     1      12.204   9.544  25.852  0.00  0.00    +0.000 A 
ENDBRANCH  10  11
ENDBRANCH   1  10
TORSDOF 2
ENDMDL
MODEL 9
REMARK VINA RESULT:    -3.960     45.990     47.074
REMARK INTER + INTRA:          -4.573
REMARK INTER:                  -4.445
REMARK INTRA:                  -0.128
REMARK UNBOUND:                -0.150
REMARK  Name = 1550473
REMARK  2 active torsions:
REMARK  status: ('A' for Active; 'I' for Inactive)
REMARK    1  A    between atoms: N_1  and  C_4
REMARK    2  A    between atoms: C_4  and  C_5
REMARK                            x       y       z     vdW  Elec       q    Type
REMARK                         _______ _______ _______ _____ _____    ______ ____
ROOT
ATOM      1  N   UNL     1     -17.774  -7.136  -3.366  0.00  0.00    -0.354 N 
ATOM      2  N   UNL     1     -16.970  -7.159  -1.194  0.00  0.00    -0.372 N 
ATOM      3  N   UNL     1     -17.799  -9.102  -2.091  0.00  0.00    -0.372 N 
ATOM      4  C   UNL     1     -17.521  -7.802  -2.231  0.00  0.00    +0.166 C 
ATOM      5  H   UNL     1     -17.568  -6.144  -3.399  0.00  0.00    +0.163 HD
ATOM      6  H   UNL     1     -16.764  -7.636  -0.327  0.00  0.00    +0.159 HD
ATOM      7  H   UNL     1     -16.723  -6.179  -1.245  0.00  0.00    +0.159 HD
ATOM      8  H   UNL     1     -18.221  -9.643  -2.834  0.00  0.00    +0.159 HD
ATOM      9  H   UNL     1     -17.611  -9.594  -1.226  0.00  0.00    +0.159 HD
ENDROOT
BRANCH   1  10
ATOM     10  C   UNL     1     -18.322  -7.755  -4.572  0.00  0.00    +0.151 C 
BRANCH  10  11
ATOM     11  C   UNL     1     -17.887  -6.960  -5.773  0.00  0.00    -0.028 A 
ATOM     12  C   UNL     1     -18.613  -7.026  -6.971  0.00  0.00    +0.005 A 
ATOM     13  C   UNL     1     -16.753  -6.136  -5.716  0.00  0.00    +0.005 A 
ATOM     14  C   UNL     1     -18.226  -6.266  -8.077  0.00  0.00    +0.000 A 
ATOM     15  C   UNL     1     -16.370  -5.378  -6.823  0.00  0.00    +0.000 A 
ATOM     16  C   UNL     1     -17.108  -5.442  -8.003  0.00  0.00    +0.000 A 
ENDBRANCH  10  11
ENDBRANCH   1  10
TORSDOF 2
ENDMDL
