MODEL 1
REMARK VINA RESULT:    -5.423      0.000      0.000
REMARK INTER + INTRA:          -6.223
REMARK INTER:                  -6.057
REMARK INTRA:                  -0.166
REMARK UNBOUND:                -0.166
REMARK  Name = 1550473
REMARK  2 active torsions:
REMARK  status: ('A' for Active; 'I' for Inactive)
REMARK    1  A    between atoms: N_1  and  C_4
REMARK    2  A    between atoms: C_4  and  C_5
REMARK                            x       y       z     vdW  Elec       q    Type
REMARK                         _______ _______ _______ _____ _____    ______ ____
ROOT
ATOM      1  N   UNL     1       3.224   2.001  16.257  0.00  0.00    -0.354 N 
ATOM      2  N   UNL     1       1.105   2.322  17.135  0.00  0.00    -0.372 N 
ATOM      3  N   UNL     1       1.341   1.036  15.249  0.00  0.00    -0.372 N 
ATOM      4  C   UNL     1       1.903   1.783  16.206  0.00  0.00    +0.166 C 
ATOM      5  H   UNL     1       3.585   2.601  16.990  0.00  0.00    +0.163 HD
ATOM      6  H   UNL     1       0.105   2.172  17.124  0.00  0.00    +0.159 HD
ATOM      7  H   UNL     1       1.473   2.883  17.893  0.00  0.00    +0.159 HD
ATOM      8  H   UNL     1       1.888   0.606  14.515  0.00  0.00    +0.159 HD
ATOM      9  H   UNL     1       0.341   0.884  15.214  0.00  0.00    +0.159 HD
ENDROOT
BRANCH   1  10
ATOM     10  C   UNL     1       4.187   1.416  15.325  0.00  0.00    +0.151 C 
BRANCH  10  11
ATOM     11  C   UNL     1       5.053   0.434  16.065  0.00  0.00    -0.028 A 
ATOM     12  C   UNL     1       4.650  -0.902  16.211  0.00  0.00    +0.005 A 
ATOM     13  C   UNL     1       6.280   0.832  16.618  0.00  0.00    +0.005 A 
ATOM     14  C   UNL     1       5.468  -1.821  16.873  0.00  0.00    +0.000 A 
ATOM     15  C   UNL     1       7.093  -0.089  17.278  0.00  0.00    +0.000 A 
ATOM     16  C   UNL     1       6.688  -1.416  17.403  0.00  0.00    +0.000 A 
ENDBRANCH  10  11
ENDBRANCH   1  10
TORSDOF 2
ENDMDL
MODEL 2
REMARK VINA RESULT:    -4.832      1.193      2.105
REMARK INTER + INTRA:          -5.563
REMARK INTER:                  -5.398
REMARK INTRA:                  -0.164
REMARK UNBOUND:                -0.166
REMARK  Name = 1550473
REMARK  2 active torsions:
REMARK  status: ('A' for Active; 'I' for Inactive)
REMARK    1  A    between atoms: N_1  and  C_4
REMARK    2  A    between atoms: C_4  and  C_5
REMARK                            x       y       z     vdW  Elec       q    Type
REMARK                         _______ _______ _______ _____ _____    ______ ____
ROOT
ATOM      1  N   UNL     1       3.207   0.676  16.465  0.00  0.00    -0.354 N 
ATOM      2  N   UNL     1       1.476   1.093  17.945  0.00  0.00    -0.372 N 
ATOM      3  N   UNL     1       3.428   2.280  18.159  0.00  0.00    -0.372 N 
ATOM      4  C   UNL     1       2.717   1.349  17.514  0.00  0.00    +0.166 C 
ATOM      5  H   UNL     1       2.629  -0.038  16.038  0.00  0.00    +0.163 HD
ATOM      6  H   UNL     1       1.077   1.587  18.732  0.00  0.00    +0.159 HD
ATOM      7  H   UNL     1       0.883   0.411  17.488  0.00  0.00    +0.159 HD
ATOM      8  H   UNL     1       4.373   2.516  17.887  0.00  0.00    +0.159 HD
ATOM      9  H   UNL     1       3.051   2.777  18.957  0.00  0.00    +0.159 HD
ENDROOT
BRANCH   1  10
ATOM     10  C   UNL     1       4.527   0.917  15.884  0.00  0.00    +0.151 C 
BRANCH  10  11
ATOM     11  C   UNL     1       5.513  -0.044  16.489  0.00  0.00    -0.028 A 
ATOM     12  C   UNL     1       6.750   0.413  16.966  0.00  0.00    +0.005 A 
ATOM     13  C   UNL     1       5.213  -1.411  16.594  0.00  0.00    +0.005 A 
ATOM     14  C   UNL     1       7.654  -0.474  17.557  0.00  0.00    +0.000 A 
ATOM     15  C   UNL     1       6.119  -2.293  17.183  0.00  0.00    +0.000 A 
ATOM     16  C   UNL     1       7.338  -1.824  17.666  0.00  0.00    +0.000 A 
ENDBRANCH  10  11
ENDBRANCH   1  10
TORSDOF 2
ENDMDL
MODEL 3
REMARK VINA RESULT:    -4.818     26.094     27.679
REMARK INTER + INTRA:          -5.547
REMARK INTER:                  -5.435
REMARK INTRA:                  -0.112
REMARK UNBOUND:                -0.166
REMARK  Name = 1550473
REMARK  2 active torsions:
REMARK  status: ('A' for Active; 'I' for Inactive)
REMARK    1  A    between atoms: N_1  and  C_4
REMARK    2  A    between atoms: C_4  and  C_5
REMARK                            x       y       z     vdW  Elec       q    Type
REMARK                         _______ _______ _______ _____ _____    ______ ____
ROOT
ATOM      1  N   UNL     1       0.954  16.662  -4.098  0.00  0.00    -0.354 N 
ATOM      2  N   UNL     1       1.990  15.806  -2.212  0.00  0.00    -0.372 N 
ATOM      3  N   UNL     1       0.072  17.040  -1.960  0.00  0.00    -0.372 N 
ATOM      4  C   UNL     1       0.996  16.510  -2.768  0.00  0.00    +0.166 C 
ATOM      5  H   UNL     1       1.701  16.262  -4.653  0.00  0.00    +0.163 HD
ATOM      6  H   UNL     1       2.047  15.671  -1.212  0.00  0.00    +0.159 HD
ATOM      7  H   UNL     1       2.711  15.368  -2.773  0.00  0.00    +0.159 HD
ATOM      8  H   UNL     1      -0.701  17.587  -2.317  0.00  0.00    +0.159 HD
ATOM      9  H   UNL     1       0.118  16.925  -0.955  0.00  0.00    +0.159 HD
ENDROOT
BRANCH   1  10
ATOM     10  C   UNL     1      -0.115  17.365  -4.807  0.00  0.00    +0.151 C 
BRANCH  10  11
ATOM     11  C   UNL     1      -0.306  16.732  -6.158  0.00  0.00    -0.028 A 
ATOM     12  C   UNL     1      -0.828  15.435  -6.269  0.00  0.00    +0.005 A 
ATOM     13  C   UNL     1       0.026  17.427  -7.331  0.00  0.00    +0.005 A 
ATOM     14  C   UNL     1      -1.035  14.858  -7.525  0.00  0.00    +0.000 A 
ATOM     15  C   UNL     1      -0.180  16.847  -8.583  0.00  0.00    +0.000 A 
ATOM     16  C   UNL     1      -0.713  15.564  -8.679  0.00  0.00    +0.000 A 
ENDBRANCH  10  11
ENDBRANCH   1  10
TORSDOF 2
ENDMDL
MODEL 4
REMARK VINA RESULT:    -4.800      1.554      2.050
REMARK INTER + INTRA:          -5.527
REMARK INTER:                  -5.370
REMARK INTRA:                  -0.157
REMARK UNBOUND:                -0.166
REMARK  Name = 1550473
REMARK  2 active torsions:
REMARK  status: ('A' for Active; 'I' for Inactive)
REMARK    1  A    between atoms: N_1  and  C_4
REMARK    2  A    between atoms: C_4  and  C_5
REMARK                            x       y       z     vdW  Elec       q    Type
REMARK                         _______ _______ _______ _____ _____    ______ ____
ROOT
ATOM      1  N   UNL     1       1.907   2.059  16.483  0.00  0.00    -0.354 N 
ATOM      2  N   UNL     1       0.202   2.157  14.918  0.00  0.00    -0.372 N 
ATOM      3  N   UNL     1      -0.121   0.940  16.836  0.00  0.00    -0.372 N 
ATOM      4  C   UNL     1       0.673   1.716  16.091  0.00  0.00    +0.166 C 
ATOM      5  H   UNL     1       2.470   2.625  15.858  0.00  0.00    +0.163 HD
ATOM      6  H   UNL     1      -0.726   1.917  14.598  0.00  0.00    +0.159 HD
ATOM      7  H   UNL     1       0.750   2.760  14.317  0.00  0.00    +0.159 HD
ATOM      8  H   UNL     1       0.177   0.570  17.729  0.00  0.00    +0.159 HD
ATOM      9  H   UNL     1      -1.049   0.680  16.527  0.00  0.00    +0.159 HD
ENDROOT
BRANCH   1  10
ATOM     10  C   UNL     1       2.494   1.677  17.766  0.00  0.00    +0.151 C 
BRANCH  10  11
ATOM     11  C   UNL     1       3.572   0.656  17.528  0.00  0.00    -0.028 A 
ATOM     12  C   UNL     1       3.879  -0.298  18.510  0.00  0.00    +0.005 A 
ATOM     13  C   UNL     1       4.287   0.633  16.321  0.00  0.00    +0.005 A 
ATOM     14  C   UNL     1       4.859  -1.265  18.277  0.00  0.00    +0.000 A 
ATOM     15  C   UNL     1       5.266  -0.334  16.093  0.00  0.00    +0.000 A 
ATOM     16  C   UNL     1       5.550  -1.284  17.070  0.00  0.00    +0.000 A 
ENDBRANCH  10  11
ENDBRANCH   1  10
TORSDOF 2
ENDMDL
MODEL 5
REMARK VINA RESULT:    -4.720     23.088     24.334
REMARK INTER + INTRA:          -5.438
REMARK INTER:                  -5.259
REMARK INTRA:                  -0.179
REMARK UNBOUND:                -0.166
REMARK  Name = 1550473
REMARK  2 active torsions:
REMARK  status: ('A' for Active; 'I' for Inactive)
REMARK    1  A    between atoms: N_1  and  C_4
REMARK    2  A    between atoms: C_4  and  C_5
REMARK                            x       y       z     vdW  Elec       q    Type
REMARK                         _______ _______ _______ _____ _____    ______ ____
ROOT
ATOM      1  N   UNL     1      14.430   7.971  -2.892  0.00  0.00    -0.354 N 
ATOM      2  N   UNL     1      15.941   6.254  -3.257  0.00  0.00    -0.372 N 
ATOM      3  N   UNL     1      16.235   8.243  -4.362  0.00  0.00    -0.372 N 
ATOM      4  C   UNL     1      15.527   7.502  -3.503  0.00  0.00    +0.166 C 
ATOM      5  H   UNL     1      13.920   7.349  -2.275  0.00  0.00    +0.163 HD
ATOM      6  H   UNL     1      16.766   5.874  -3.701  0.00  0.00    +0.159 HD
ATOM      7  H   UNL     1      15.455   5.650  -2.605  0.00  0.00    +0.159 HD
ATOM      8  H   UNL     1      15.972   9.191  -4.595  0.00  0.00    +0.159 HD
ATOM      9  H   UNL     1      17.058   7.876  -4.825  0.00  0.00    +0.159 HD
ENDROOT
BRANCH   1  10
ATOM     10  C   UNL     1      13.926   9.334  -3.050  0.00  0.00    +0.151 C 
BRANCH  10  11
ATOM     11  C   UNL     1      12.704   9.307  -3.926  0.00  0.00    -0.028 A 
ATOM     12  C   UNL     1      12.809   9.554  -5.302  0.00  0.00    +0.005 A 
ATOM     13  C   UNL     1      11.439   9.029  -3.386  0.00  0.00    +0.005 A 
ATOM     14  C   UNL     1      11.678   9.500  -6.121  0.00  0.00    +0.000 A 
ATOM     15  C   UNL     1      10.312   8.976  -4.207  0.00  0.00    +0.000 A 
ATOM     16  C   UNL     1      10.433   9.209  -5.575  0.00  0.00    +0.000 A 
ENDBRANCH  10  11
ENDBRANCH   1  10
TORSDOF 2
ENDMDL
MODEL 6
REMARK VINA RESULT:    -4.709     14.529     15.617
REMARK INTER + INTRA:          -5.426
REMARK INTER:                  -5.298
REMARK INTRA:                  -0.128
REMARK UNBOUND:                -0.166
REMARK  Name = 1550473
REMARK  2 active torsions:
REMARK  status: ('A' for Active; 'I' for Inactive)
REMARK    1  A    between atoms: N_1  and  C_4
REMARK    2  A    between atoms: C_4  and  C_5
REMARK                            x       y       z     vdW  Elec       q    Type
REMARK                         _______ _______ _______ _____ _____    ______ ____
ROOT
ATOM      1  N   UNL     1      -7.362  -7.160  10.314  0.00  0.00    -0.354 N 
ATOM      2  N   UNL     1      -6.925  -7.664   8.096  0.00  0.00    -0.372 N 
ATOM      3  N   UNL     1      -8.869  -8.429   9.045  0.00  0.00    -0.372 N 
ATOM      4  C   UNL     1      -7.724  -7.749   9.166  0.00  0.00    +0.166 C 
ATOM      5  H   UNL     1      -6.467  -6.685  10.350  0.00  0.00    +0.163 HD
ATOM      6  H   UNL     1      -7.173  -8.095   7.216  0.00  0.00    +0.159 HD
ATOM      7  H   UNL     1      -6.053  -7.150   8.121  0.00  0.00    +0.159 HD
ATOM      8  H   UNL     1      -9.513  -8.535   9.817  0.00  0.00    +0.159 HD
ATOM      9  H   UNL     1      -9.129  -8.878   8.176  0.00  0.00    +0.159 HD
ENDROOT
BRANCH   1  10
ATOM     10  C   UNL     1      -8.184  -7.148  11.522  0.00  0.00    +0.151 C 
BRANCH  10  11
ATOM     11  C   UNL     1      -7.597  -8.100  12.526  0.00  0.00    -0.028 A 
ATOM     12  C   UNL     1      -7.635  -9.484  12.301  0.00  0.00    +0.005 A 
ATOM     13  C   UNL     1      -6.996  -7.625  13.702  0.00  0.00    +0.005 A 
ATOM     14  C   UNL     1      -7.063 -10.368  13.220  0.00  0.00    +0.000 A 
ATOM     15  C   UNL     1      -6.426  -8.511  14.616  0.00  0.00    +0.000 A 
ATOM     16  C   UNL     1      -6.458  -9.882  14.374  0.00  0.00    +0.000 A 
ENDBRANCH  10  11
ENDBRANCH   1  10
TORSDOF 2
ENDMDL
MODEL 7
REMARK VINA RESULT:    -4.697     23.933     24.566
REMARK INTER + INTRA:          -5.412
REMARK INTER:                  -5.303
REMARK INTRA:                  -0.109
REMARK UNBOUND:                -0.166
REMARK  Name = 1550473
REMARK  2 active torsions:
REMARK  status: ('A' for Active; 'I' for Inactive)
REMARK    1  A    between atoms: N_1  and  C_4
REMARK    2  A    between atoms: C_4  and  C_5
REMARK                            x       y       z     vdW  Elec       q    Type
REMARK                         _______ _______ _______ _____ _____    ______ ____
ROOT
ATOM      1  N   UNL     1      11.507  -0.807  -6.207  0.00  0.00    -0.354 N 
ATOM      2  N   UNL     1       9.538  -0.320  -5.088  0.00  0.00    -0.372 N 
ATOM      3  N   UNL     1       9.863  -2.446  -5.885  0.00  0.00    -0.372 N 
ATOM      4  C   UNL     1      10.315  -1.197  -5.735  0.00  0.00    +0.166 C 
ATOM      5  H   UNL     1      11.778   0.162  -6.086  0.00  0.00    +0.163 HD
ATOM      6  H   UNL     1       8.635  -0.586  -4.718  0.00  0.00    +0.159 HD
ATOM      7  H   UNL     1       9.832   0.636  -4.929  0.00  0.00    +0.159 HD
ATOM      8  H   UNL     1      10.399  -3.155  -6.369  0.00  0.00    +0.159 HD
ATOM      9  H   UNL     1       8.957  -2.729  -5.532  0.00  0.00    +0.159 HD
ENDROOT
BRANCH   1  10
ATOM     10  C   UNL     1      12.452  -1.698  -6.878  0.00  0.00    +0.151 C 
BRANCH  10  11
ATOM     11  C   UNL     1      13.836  -1.120  -6.766  0.00  0.00    -0.028 A 
ATOM     12  C   UNL     1      14.927  -1.943  -6.453  0.00  0.00    +0.005 A 
ATOM     13  C   UNL     1      14.062   0.249  -6.978  0.00  0.00    +0.005 A 
ATOM     14  C   UNL     1      16.217  -1.412  -6.378  0.00  0.00    +0.000 A 
ATOM     15  C   UNL     1      15.352   0.775  -6.902  0.00  0.00    +0.000 A 
ATOM     16  C   UNL     1      16.429  -0.056  -6.605  0.00  0.00    +0.000 A 
ENDBRANCH  10  11
ENDBRANCH   1  10
TORSDOF 2
ENDMDL
MODEL 8
REMARK VINA RESULT:    -4.600      2.486      3.646
REMARK INTER + INTRA:          -5.304
REMARK INTER:                  -5.160
REMARK INTRA:                  -0.145
REMARK UNBOUND:                -0.166
REMARK  Name = 1550473
REMARK  2 active torsions:
REMARK  status: ('A' for Active; 'I' for Inactive)
REMARK    1  A    between atoms: N_1  and  C_4
REMARK    2  A    between atoms: C_4  and  C_5
REMARK                            x       y       z     vdW  Elec       q    Type
REMARK                         _______ _______ _______ _____ _____    ______ ____
ROOT
ATOM      1  N   UNL     1       1.467  -0.252  18.893  0.00  0.00    -0.354 N 
ATOM      2  N   UNL     1      -0.712  -1.036  18.905  0.00  0.00    -0.372 N 
ATOM      3  N   UNL     1      -0.333   1.194  19.291  0.00  0.00    -0.372 N 
ATOM      4  C   UNL     1       0.154  -0.023  19.030  0.00  0.00    +0.166 C 
ATOM      5  H   UNL     1       1.775  -1.203  18.726  0.00  0.00    +0.163 HD
ATOM      6  H   UNL     1      -1.709  -0.893  19.000  0.00  0.00    +0.159 HD
ATOM      7  H   UNL     1      -0.405  -1.977  18.693  0.00  0.00    +0.159 HD
ATOM      8  H   UNL     1       0.268   2.000  19.403  0.00  0.00    +0.159 HD
ATOM      9  H   UNL     1      -1.327   1.355  19.401  0.00  0.00    +0.159 HD
ENDROOT
BRANCH   1  10
ATOM     10  C   UNL     1       2.490   0.791  18.958  0.00  0.00    +0.151 C 
BRANCH  10  11
ATOM     11  C   UNL     1       3.212   0.853  17.640  0.00  0.00    -0.028 A 
ATOM     12  C   UNL     1       2.917   1.865  16.714  0.00  0.00    +0.005 A 
ATOM     13  C   UNL     1       4.195  -0.093  17.313  0.00  0.00    +0.005 A 
ATOM     14  C   UNL     1       3.608   1.941  15.502  0.00  0.00    +0.000 A 
ATOM     15  C   UNL     1       4.883  -0.014  16.102  0.00  0.00    +0.000 A 
ATOM     16  C   UNL     1       4.591   1.004  15.198  0.00  0.00    +0.000 A 
ENDBRANCH  10  11
ENDBRANCH   1  10
TORSDOF 2
ENDMDL
MODEL 9
REMARK VINA RESULT:    -4.535      3.313      4.954
REMARK INTER + INTRA:          -5.231
REMARK INTER:                  -5.048
REMARK INTRA:                  -0.183
REMARK UNBOUND:                -0.166
REMARK  Name = 1550473
REMARK  2 active torsions:
REMARK  status: ('A' for Active; 'I' for Inactive)
REMARK    1  A    between atoms: N_1  and  C_4
REMARK    2  A    between atoms: C_4  and  C_5
REMARK                            x       y       z     vdW  Elec       q    Type
REMARK                         _______ _______ _______ _____ _____    ______ ____
ROOT
ATOM      1  N   UNL     1       7.221   0.616  18.382  0.00  0.00    -0.354 N 
ATOM      2  N   UNL     1       8.819   2.153  19.051  0.00  0.00    -0.372 N 
ATOM      3  N   UNL     1       8.754   1.507  16.850  0.00  0.00    -0.372 N 
ATOM      4  C   UNL     1       8.255   1.415  18.087  0.00  0.00    +0.166 C 
ATOM      5  H   UNL     1       6.909   0.568  19.345  0.00  0.00    +0.163 HD
ATOM      6  H   UNL     1       9.599   2.767  18.858  0.00  0.00    +0.159 HD
ATOM      7  H   UNL     1       8.476   2.137  20.003  0.00  0.00    +0.159 HD
ATOM      8  H   UNL     1       8.377   0.972  16.079  0.00  0.00    +0.159 HD
ATOM      9  H   UNL     1       9.541   2.108  16.639  0.00  0.00    +0.159 HD
ENDROOT
BRANCH   1  10
ATOM     10  C   UNL     1       6.501  -0.188  17.395  0.00  0.00    +0.151 C 
BRANCH  10  11
ATOM     11  C   UNL     1       5.248   0.538  16.990  0.00  0.00    -0.028 A 
ATOM     12  C   UNL     1       4.246   0.810  17.933  0.00  0.00    +0.005 A 
ATOM     13  C   UNL     1       5.059   0.962  15.666  0.00  0.00    +0.005 A 
ATOM     14  C   UNL     1       3.095   1.510  17.565  0.00  0.00    +0.000 A 
ATOM     15  C   UNL     1       3.908   1.661  15.301  0.00  0.00    +0.000 A 
ATOM     16  C   UNL     1       2.927   1.937  16.251  0.00  0.00    +0.000 A 
ENDBRANCH  10  11
ENDBRANCH   1  10
TORSDOF 2
ENDMDL
