MODEL 1
REMARK VINA RESULT:    -4.981      0.000      0.000
REMARK INTER + INTRA:          -5.667
REMARK INTER:                  -5.563
REMARK INTRA:                  -0.104
REMARK UNBOUND:                -0.104
REMARK  Name = 1550473
REMARK  2 active torsions:
REMARK  status: ('A' for Active; 'I' for Inactive)
REMARK    1  A    between atoms: N_1  and  C_4
REMARK    2  A    between atoms: C_4  and  C_5
REMARK                            x       y       z     vdW  Elec       q    Type
REMARK                         _______ _______ _______ _____ _____    ______ ____
ROOT
ATOM      1  N   UNL     1      19.633   0.893   4.706  0.00  0.00    -0.354 N 
ATOM      2  N   UNL     1      20.378  -0.289   2.859  0.00  0.00    -0.372 N 
ATOM      3  N   UNL     1      19.519  -1.447   4.644  0.00  0.00    -0.372 N 
ATOM      4  C   UNL     1      19.838  -0.275   4.084  0.00  0.00    +0.166 C 
ATOM      5  H   UNL     1      19.925   1.744   4.240  0.00  0.00    +0.163 HD
ATOM      6  H   UNL     1      20.542  -1.155   2.363  0.00  0.00    +0.159 HD
ATOM      7  H   UNL     1      20.626   0.566   2.377  0.00  0.00    +0.159 HD
ATOM      8  H   UNL     1      19.114  -1.505   5.569  0.00  0.00    +0.159 HD
ATOM      9  H   UNL     1      19.686  -2.325   4.169  0.00  0.00    +0.159 HD
ENDROOT
BRANCH   1  10
ATOM     10  C   UNL     1      19.002   1.021   6.019  0.00  0.00    +0.151 C 
BRANCH  10  11
ATOM     11  C   UNL     1      19.414   2.328   6.637  0.00  0.00    -0.028 A 
ATOM     12  C   UNL     1      19.271   3.528   5.925  0.00  0.00    +0.005 A 
ATOM     13  C   UNL     1      19.942   2.374   7.936  0.00  0.00    +0.005 A 
ATOM     14  C   UNL     1      19.625   4.746   6.510  0.00  0.00    +0.000 A 
ATOM     15  C   UNL     1      20.296   3.592   8.516  0.00  0.00    +0.000 A 
ATOM     16  C   UNL     1      20.135   4.778   7.804  0.00  0.00    +0.000 A 
ENDBRANCH  10  11
ENDBRANCH   1  10
TORSDOF 2
ENDMDL
MODEL 2
REMARK VINA RESULT:    -4.785      1.097      2.064
REMARK INTER + INTRA:          -5.449
REMARK INTER:                  -5.331
REMARK INTRA:                  -0.118
REMARK UNBOUND:                -0.104
REMARK  Name = 1550473
REMARK  2 active torsions:
REMARK  status: ('A' for Active; 'I' for Inactive)
REMARK    1  A    between atoms: N_1  and  C_4
REMARK    2  A    between atoms: C_4  and  C_5
REMARK                            x       y       z     vdW  Elec       q    Type
REMARK                         _______ _______ _______ _____ _____    ______ ____
ROOT
ATOM      1  N   UNL     1      19.896   0.714   6.093  0.00  0.00    -0.354 N 
ATOM      2  N   UNL     1      19.355  -1.527   5.880  0.00  0.00    -0.372 N 
ATOM      3  N   UNL     1      19.666  -0.277   3.982  0.00  0.00    -0.372 N 
ATOM      4  C   UNL     1      19.642  -0.348   5.317  0.00  0.00    +0.166 C 
ATOM      5  H   UNL     1      19.833   0.602   7.098  0.00  0.00    +0.163 HD
ATOM      6  H   UNL     1      19.162  -2.347   5.320  0.00  0.00    +0.159 HD
ATOM      7  H   UNL     1      19.337  -1.648   6.886  0.00  0.00    +0.159 HD
ATOM      8  H   UNL     1      19.870   0.586   3.495  0.00  0.00    +0.159 HD
ATOM      9  H   UNL     1      19.464  -1.083   3.404  0.00  0.00    +0.159 HD
ENDROOT
BRANCH   1  10
ATOM     10  C   UNL     1      20.272   2.031   5.580  0.00  0.00    +0.151 C 
BRANCH  10  11
ATOM     11  C   UNL     1      20.025   3.062   6.646  0.00  0.00    -0.028 A 
ATOM     12  C   UNL     1      20.097   2.715   8.003  0.00  0.00    +0.005 A 
ATOM     13  C   UNL     1      19.723   4.390   6.305  0.00  0.00    +0.005 A 
ATOM     14  C   UNL     1      19.897   3.680   8.993  0.00  0.00    +0.000 A 
ATOM     15  C   UNL     1      19.523   5.350   7.297  0.00  0.00    +0.000 A 
ATOM     16  C   UNL     1      19.612   4.995   8.641  0.00  0.00    +0.000 A 
ENDBRANCH  10  11
ENDBRANCH   1  10
TORSDOF 2
ENDMDL
MODEL 3
REMARK VINA RESULT:    -4.735     30.039     31.076
REMARK INTER + INTRA:          -5.393
REMARK INTER:                  -5.295
REMARK INTRA:                  -0.098
REMARK UNBOUND:                -0.104
REMARK  Name = 1550473
REMARK  2 active torsions:
REMARK  status: ('A' for Active; 'I' for Inactive)
REMARK    1  A    between atoms: N_1  and  C_4
REMARK    2  A    between atoms: C_4  and  C_5
REMARK                            x       y       z     vdW  Elec       q    Type
REMARK                         _______ _______ _______ _____ _____    ______ ____
ROOT
ATOM      1  N   UNL     1      -3.906   5.406 -11.429  0.00  0.00    -0.354 N 
ATOM      2  N   UNL     1      -2.811   6.666  -9.823  0.00  0.00    -0.372 N 
ATOM      3  N   UNL     1      -3.104   7.553 -11.919  0.00  0.00    -0.372 N 
ATOM      4  C   UNL     1      -3.281   6.535 -11.070  0.00  0.00    +0.166 C 
ATOM      5  H   UNL     1      -3.981   4.660 -10.748  0.00  0.00    +0.163 HD
ATOM      6  H   UNL     1      -2.338   7.507  -9.522  0.00  0.00    +0.159 HD
ATOM      7  H   UNL     1      -2.928   5.936  -9.131  0.00  0.00    +0.159 HD
ATOM      8  H   UNL     1      -3.430   7.515 -12.876  0.00  0.00    +0.159 HD
ATOM      9  H   UNL     1      -2.623   8.399 -11.640  0.00  0.00    +0.159 HD
ENDROOT
BRANCH   1  10
ATOM     10  C   UNL     1      -4.501   5.185 -12.746  0.00  0.00    +0.151 C 
BRANCH  10  11
ATOM     11  C   UNL     1      -5.361   3.952 -12.695  0.00  0.00    -0.028 A 
ATOM     12  C   UNL     1      -6.732   4.027 -12.982  0.00  0.00    +0.005 A 
ATOM     13  C   UNL     1      -4.810   2.704 -12.366  0.00  0.00    +0.005 A 
ATOM     14  C   UNL     1      -7.525   2.878 -12.964  0.00  0.00    +0.000 A 
ATOM     15  C   UNL     1      -5.605   1.558 -12.348  0.00  0.00    +0.000 A 
ATOM     16  C   UNL     1      -6.962   1.645 -12.650  0.00  0.00    +0.000 A 
ENDBRANCH  10  11
ENDBRANCH   1  10
TORSDOF 2
ENDMDL
MODEL 4
REMARK VINA RESULT:    -4.525     22.451     23.902
REMARK INTER + INTRA:          -5.158
REMARK INTER:                  -4.993
REMARK INTRA:                  -0.165
REMARK UNBOUND:                -0.104
REMARK  Name = 1550473
REMARK  2 active torsions:
REMARK  status: ('A' for Active; 'I' for Inactive)
REMARK    1  A    between atoms: N_1  and  C_4
REMARK    2  A    between atoms: C_4  and  C_5
REMARK                            x       y       z     vdW  Elec       q    Type
REMARK                         _______ _______ _______ _____ _____    ______ ____
ROOT
ATOM      1  N   UNL     1       4.625  20.830  12.684  0.00  0.00    -0.354 N 
ATOM      2  N   UNL     1       2.799  20.091  11.465  0.00  0.00    -0.372 N 
ATOM      3  N   UNL     1       3.561  18.808  13.208  0.00  0.00    -0.372 N 
ATOM      4  C   UNL     1       3.674  19.912  12.462  0.00  0.00    +0.166 C 
ATOM      5  H   UNL     1       4.676  21.630  12.065  0.00  0.00    +0.163 HD
ATOM      6  H   UNL     1       2.069  19.418  11.276  0.00  0.00    +0.159 HD
ATOM      7  H   UNL     1       2.824  20.915  10.876  0.00  0.00    +0.159 HD
ATOM      8  H   UNL     1       4.194  18.611  13.972  0.00  0.00    +0.159 HD
ATOM      9  H   UNL     1       2.844  18.117  13.027  0.00  0.00    +0.159 HD
ENDROOT
BRANCH   1  10
ATOM     10  C   UNL     1       5.592  20.756  13.778  0.00  0.00    +0.151 C 
BRANCH  10  11
ATOM     11  C   UNL     1       6.968  20.562  13.204  0.00  0.00    -0.028 A 
ATOM     12  C   UNL     1       7.894  21.615  13.200  0.00  0.00    +0.005 A 
ATOM     13  C   UNL     1       7.355  19.324  12.667  0.00  0.00    +0.005 A 
ATOM     14  C   UNL     1       9.182  21.426  12.694  0.00  0.00    +0.000 A 
ATOM     15  C   UNL     1       8.642  19.139  12.162  0.00  0.00    +0.000 A 
ATOM     16  C   UNL     1       9.556  20.190  12.178  0.00  0.00    +0.000 A 
ENDBRANCH  10  11
ENDBRANCH   1  10
TORSDOF 2
ENDMDL
MODEL 5
REMARK VINA RESULT:    -4.501     23.115     24.762
REMARK INTER + INTRA:          -5.131
REMARK INTER:                  -4.986
REMARK INTRA:                  -0.145
REMARK UNBOUND:                -0.104
REMARK  Name = 1550473
REMARK  2 active torsions:
REMARK  status: ('A' for Active; 'I' for Inactive)
REMARK    1  A    between atoms: N_1  and  C_4
REMARK    2  A    between atoms: C_4  and  C_5
REMARK                            x       y       z     vdW  Elec       q    Type
REMARK                         _______ _______ _______ _____ _____    ______ ____
ROOT
ATOM      1  N   UNL     1       5.309  21.245  14.737  0.00  0.00    -0.354 N 
ATOM      2  N   UNL     1       4.157  20.505  16.605  0.00  0.00    -0.372 N 
ATOM      3  N   UNL     1       5.649  22.233  16.834  0.00  0.00    -0.372 N 
ATOM      4  C   UNL     1       5.047  21.334  16.047  0.00  0.00    +0.166 C 
ATOM      5  H   UNL     1       4.842  20.522  14.201  0.00  0.00    +0.163 HD
ATOM      6  H   UNL     1       3.936  20.552  17.590  0.00  0.00    +0.159 HD
ATOM      7  H   UNL     1       3.657  19.814  16.058  0.00  0.00    +0.159 HD
ATOM      8  H   UNL     1       6.335  22.884  16.476  0.00  0.00    +0.159 HD
ATOM      9  H   UNL     1       5.450  22.288  17.825  0.00  0.00    +0.159 HD
ENDROOT
BRANCH   1  10
ATOM     10  C   UNL     1       6.222  22.135  14.022  0.00  0.00    +0.151 C 
BRANCH  10  11
ATOM     11  C   UNL     1       7.293  21.313  13.361  0.00  0.00    -0.028 A 
ATOM     12  C   UNL     1       7.051  19.976  13.011  0.00  0.00    +0.005 A 
ATOM     13  C   UNL     1       8.552  21.865  13.077  0.00  0.00    +0.005 A 
ATOM     14  C   UNL     1       8.036  19.221  12.370  0.00  0.00    +0.000 A 
ATOM     15  C   UNL     1       9.533  21.108  12.438  0.00  0.00    +0.000 A 
ATOM     16  C   UNL     1       9.273  19.786  12.082  0.00  0.00    +0.000 A 
ENDBRANCH  10  11
ENDBRANCH   1  10
TORSDOF 2
ENDMDL
MODEL 6
REMARK VINA RESULT:    -4.477     31.128     32.641
REMARK INTER + INTRA:          -5.104
REMARK INTER:                  -4.989
REMARK INTRA:                  -0.115
REMARK UNBOUND:                -0.104
REMARK  Name = 1550473
REMARK  2 active torsions:
REMARK  status: ('A' for Active; 'I' for Inactive)
REMARK    1  A    between atoms: N_1  and  C_4
REMARK    2  A    between atoms: C_4  and  C_5
REMARK                            x       y       z     vdW  Elec       q    Type
REMARK                         _______ _______ _______ _____ _____    ______ ____
ROOT
ATOM      1  N   UNL     1      -3.215   0.482 -15.237  0.00  0.00    -0.354 N 
ATOM      2  N   UNL     1      -2.795  -0.563 -13.213  0.00  0.00    -0.372 N 
ATOM      3  N   UNL     1      -3.634   1.573 -13.205  0.00  0.00    -0.372 N 
ATOM      4  C   UNL     1      -3.218   0.507 -13.897  0.00  0.00    +0.166 C 
ATOM      5  H   UNL     1      -2.859  -0.345 -15.702  0.00  0.00    +0.163 HD
ATOM      6  H   UNL     1      -2.789  -0.575 -12.202  0.00  0.00    +0.159 HD
ATOM      7  H   UNL     1      -2.483  -1.406 -13.680  0.00  0.00    +0.159 HD
ATOM      8  H   UNL     1      -3.959   2.414 -13.662  0.00  0.00    +0.159 HD
ATOM      9  H   UNL     1      -3.624   1.584 -12.193  0.00  0.00    +0.159 HD
ENDROOT
BRANCH   1  10
ATOM     10  C   UNL     1      -3.705   1.574 -16.076  0.00  0.00    +0.151 C 
BRANCH  10  11
ATOM     11  C   UNL     1      -3.353   1.288 -17.510  0.00  0.00    -0.028 A 
ATOM     12  C   UNL     1      -3.283  -0.033 -17.976  0.00  0.00    +0.005 A 
ATOM     13  C   UNL     1      -3.094   2.334 -18.408  0.00  0.00    +0.005 A 
ATOM     14  C   UNL     1      -2.985  -0.298 -19.315  0.00  0.00    +0.000 A 
ATOM     15  C   UNL     1      -2.796   2.065 -19.744  0.00  0.00    +0.000 A 
ATOM     16  C   UNL     1      -2.744   0.749 -20.197  0.00  0.00    +0.000 A 
ENDBRANCH  10  11
ENDBRANCH   1  10
TORSDOF 2
ENDMDL
MODEL 7
REMARK VINA RESULT:    -4.474     22.830     24.116
REMARK INTER + INTRA:          -5.101
REMARK INTER:                  -4.935
REMARK INTRA:                  -0.166
REMARK UNBOUND:                -0.104
REMARK  Name = 1550473
REMARK  2 active torsions:
REMARK  status: ('A' for Active; 'I' for Inactive)
REMARK    1  A    between atoms: N_1  and  C_4
REMARK    2  A    between atoms: C_4  and  C_5
REMARK                            x       y       z     vdW  Elec       q    Type
REMARK                         _______ _______ _______ _____ _____    ______ ____
ROOT
ATOM      1  N   UNL     1       3.313  19.295  13.011  0.00  0.00    -0.354 N 
ATOM      2  N   UNL     1       1.957  18.308  11.414  0.00  0.00    -0.372 N 
ATOM      3  N   UNL     1       3.190  16.964  12.806  0.00  0.00    -0.372 N 
ATOM      4  C   UNL     1       2.830  18.193  12.422  0.00  0.00    +0.166 C 
ATOM      5  H   UNL     1       3.023  20.198  12.654  0.00  0.00    +0.163 HD
ATOM      6  H   UNL     1       1.573  17.494  10.952  0.00  0.00    +0.159 HD
ATOM      7  H   UNL     1       1.634  19.211  11.089  0.00  0.00    +0.159 HD
ATOM      8  H   UNL     1       3.851  16.809  13.556  0.00  0.00    +0.159 HD
ATOM      9  H   UNL     1       2.826  16.138  12.348  0.00  0.00    +0.159 HD
ENDROOT
BRANCH   1  10
ATOM     10  C   UNL     1       4.227  19.279  14.152  0.00  0.00    +0.151 C 
BRANCH  10  11
ATOM     11  C   UNL     1       5.538  19.888  13.738  0.00  0.00    -0.028 A 
ATOM     12  C   UNL     1       6.456  19.152  12.974  0.00  0.00    +0.005 A 
ATOM     13  C   UNL     1       5.867  21.203  14.103  0.00  0.00    +0.005 A 
ATOM     14  C   UNL     1       7.661  19.728  12.565  0.00  0.00    +0.000 A 
ATOM     15  C   UNL     1       7.072  21.774  13.693  0.00  0.00    +0.000 A 
ATOM     16  C   UNL     1       7.967  21.037  12.922  0.00  0.00    +0.000 A 
ENDBRANCH  10  11
ENDBRANCH   1  10
TORSDOF 2
ENDMDL
MODEL 8
REMARK VINA RESULT:    -4.452     48.082     49.121
REMARK INTER + INTRA:          -5.077
REMARK INTER:                  -4.979
REMARK INTRA:                  -0.098
REMARK UNBOUND:                -0.104
REMARK  Name = 1550473
REMARK  2 active torsions:
REMARK  status: ('A' for Active; 'I' for Inactive)
REMARK    1  A    between atoms: N_1  and  C_4
REMARK    2  A    between atoms: C_4  and  C_5
REMARK                            x       y       z     vdW  Elec       q    Type
REMARK                         _______ _______ _______ _____ _____    ______ ____
ROOT
ATOM      1  N   UNL     1     -19.346 -14.016 -19.835  0.00  0.00    -0.354 N 
ATOM      2  N   UNL     1     -18.491 -16.163 -19.682  0.00  0.00    -0.372 N 
ATOM      3  N   UNL     1     -20.767 -15.873 -19.677  0.00  0.00    -0.372 N 
ATOM      4  C   UNL     1     -19.543 -15.337 -19.732  0.00  0.00    +0.166 C 
ATOM      5  H   UNL     1     -18.394 -13.670 -19.842  0.00  0.00    +0.163 HD
ATOM      6  H   UNL     1     -18.609 -17.164 -19.608  0.00  0.00    +0.159 HD
ATOM      7  H   UNL     1     -17.540 -15.818 -19.735  0.00  0.00    +0.159 HD
ATOM      8  H   UNL     1     -21.603 -15.304 -19.705  0.00  0.00    +0.159 HD
ATOM      9  H   UNL     1     -20.905 -16.872 -19.591  0.00  0.00    +0.159 HD
ENDROOT
BRANCH   1  10
ATOM     10  C   UNL     1     -20.424 -13.035 -19.951  0.00  0.00    +0.151 C 
BRANCH  10  11
ATOM     11  C   UNL     1     -19.835 -11.652 -19.916  0.00  0.00    -0.028 A 
ATOM     12  C   UNL     1     -20.169 -10.763 -18.883  0.00  0.00    +0.005 A 
ATOM     13  C   UNL     1     -18.939 -11.226 -20.908  0.00  0.00    +0.005 A 
ATOM     14  C   UNL     1     -19.599  -9.488 -18.833  0.00  0.00    +0.000 A 
ATOM     15  C   UNL     1     -18.373  -9.952 -20.855  0.00  0.00    +0.000 A 
ATOM     16  C   UNL     1     -18.701  -9.085 -19.816  0.00  0.00    +0.000 A 
ENDBRANCH  10  11
ENDBRANCH   1  10
TORSDOF 2
ENDMDL
MODEL 9
REMARK VINA RESULT:    -4.169     47.683     48.902
REMARK INTER + INTRA:          -4.761
REMARK INTER:                  -4.627
REMARK INTRA:                  -0.134
REMARK UNBOUND:                -0.104
REMARK  Name = 1550473
REMARK  2 active torsions:
REMARK  status: ('A' for Active; 'I' for Inactive)
REMARK    1  A    between atoms: N_1  and  C_4
REMARK    2  A    between atoms: C_4  and  C_5
REMARK                            x       y       z     vdW  Elec       q    Type
REMARK                         _______ _______ _______ _____ _____    ______ ____
ROOT
ATOM      1  N   UNL     1     -21.324  -7.978 -17.419  0.00  0.00    -0.354 N 
ATOM      2  N   UNL     1     -21.222  -6.140 -16.014  0.00  0.00    -0.372 N 
ATOM      3  N   UNL     1     -22.969  -6.311 -17.491  0.00  0.00    -0.372 N 
ATOM      4  C   UNL     1     -21.841  -6.821 -16.985  0.00  0.00    +0.166 C 
ATOM      5  H   UNL     1     -20.450  -8.296 -17.016  0.00  0.00    +0.163 HD
ATOM      6  H   UNL     1     -21.590  -5.265 -15.664  0.00  0.00    +0.159 HD
ATOM      7  H   UNL     1     -20.373  -6.483 -15.581  0.00  0.00    +0.159 HD
ATOM      8  H   UNL     1     -23.482  -6.773 -18.230  0.00  0.00    +0.159 HD
ATOM      9  H   UNL     1     -23.347  -5.431 -17.162  0.00  0.00    +0.159 HD
ENDROOT
BRANCH   1  10
ATOM     10  C   UNL     1     -21.950  -8.824 -18.434  0.00  0.00    +0.151 C 
BRANCH  10  11
ATOM     11  C   UNL     1     -20.875  -9.504 -19.236  0.00  0.00    -0.028 A 
ATOM     12  C   UNL     1     -19.552  -9.041 -19.192  0.00  0.00    +0.005 A 
ATOM     13  C   UNL     1     -21.172 -10.617 -20.038  0.00  0.00    +0.005 A 
ATOM     14  C   UNL     1     -18.548  -9.691 -19.914  0.00  0.00    +0.000 A 
ATOM     15  C   UNL     1     -20.167 -11.263 -20.758  0.00  0.00    +0.000 A 
ATOM     16  C   UNL     1     -18.855 -10.801 -20.693  0.00  0.00    +0.000 A 
ENDBRANCH  10  11
ENDBRANCH   1  10
TORSDOF 2
ENDMDL
