MODEL 1
REMARK VINA RESULT:    -5.484      0.000      0.000
REMARK INTER + INTRA:          -6.262
REMARK INTER:                  -6.126
REMARK INTRA:                  -0.137
REMARK UNBOUND:                -0.137
REMARK  Name = 1550473
REMARK  2 active torsions:
REMARK  status: ('A' for Active; 'I' for Inactive)
REMARK    1  A    between atoms: N_1  and  C_4
REMARK    2  A    between atoms: C_4  and  C_5
REMARK                            x       y       z     vdW  Elec       q    Type
REMARK                         _______ _______ _______ _____ _____    ______ ____
ROOT
ATOM      1  N   UNL     1       2.107  -3.463  -0.640  0.00  0.00    -0.354 N 
ATOM      2  N   UNL     1       2.178  -2.609   1.512  0.00  0.00    -0.372 N 
ATOM      3  N   UNL     1       0.299  -2.261   0.242  0.00  0.00    -0.372 N 
ATOM      4  C   UNL     1       1.525  -2.782   0.357  0.00  0.00    +0.166 C 
ATOM      5  H   UNL     1       3.051  -3.807  -0.500  0.00  0.00    +0.163 HD
ATOM      6  H   UNL     1       1.763  -2.103   2.283  0.00  0.00    +0.159 HD
ATOM      7  H   UNL     1       3.102  -2.994   1.665  0.00  0.00    +0.159 HD
ATOM      8  H   UNL     1      -0.244  -2.352  -0.607  0.00  0.00    +0.159 HD
ATOM      9  H   UNL     1      -0.129  -1.741   0.998  0.00  0.00    +0.159 HD
ENDROOT
BRANCH   1  10
ATOM     10  C   UNL     1       1.461  -3.754  -1.918  0.00  0.00    +0.151 C 
BRANCH  10  11
ATOM     11  C   UNL     1       1.545  -5.231  -2.186  0.00  0.00    -0.028 A 
ATOM     12  C   UNL     1       2.505  -5.741  -3.072  0.00  0.00    +0.005 A 
ATOM     13  C   UNL     1       0.670  -6.127  -1.552  0.00  0.00    +0.005 A 
ATOM     14  C   UNL     1       2.602  -7.117  -3.298  0.00  0.00    +0.000 A 
ATOM     15  C   UNL     1       0.770  -7.499  -1.781  0.00  0.00    +0.000 A 
ATOM     16  C   UNL     1       1.737  -7.994  -2.652  0.00  0.00    +0.000 A 
ENDBRANCH  10  11
ENDBRANCH   1  10
TORSDOF 2
ENDMDL
MODEL 2
REMARK VINA RESULT:    -5.283      1.405      2.098
REMARK INTER + INTRA:          -6.038
REMARK INTER:                  -5.901
REMARK INTRA:                  -0.137
REMARK UNBOUND:                -0.137
REMARK  Name = 1550473
REMARK  2 active torsions:
REMARK  status: ('A' for Active; 'I' for Inactive)
REMARK    1  A    between atoms: N_1  and  C_4
REMARK    2  A    between atoms: C_4  and  C_5
REMARK                            x       y       z     vdW  Elec       q    Type
REMARK                         _______ _______ _______ _____ _____    ______ ____
ROOT
ATOM      1  N   UNL     1       1.670  -4.449  -0.368  0.00  0.00    -0.354 N 
ATOM      2  N   UNL     1       1.571  -3.257   1.616  0.00  0.00    -0.372 N 
ATOM      3  N   UNL     1       0.987  -2.207  -0.339  0.00  0.00    -0.372 N 
ATOM      4  C   UNL     1       1.410  -3.310   0.288  0.00  0.00    +0.166 C 
ATOM      5  H   UNL     1       2.017  -5.240   0.162  0.00  0.00    +0.163 HD
ATOM      6  H   UNL     1       1.379  -2.412   2.138  0.00  0.00    +0.159 HD
ATOM      7  H   UNL     1       1.874  -4.063   2.148  0.00  0.00    +0.159 HD
ATOM      8  H   UNL     1       0.850  -2.180  -1.341  0.00  0.00    +0.159 HD
ATOM      9  H   UNL     1       0.800  -1.349   0.165  0.00  0.00    +0.159 HD
ENDROOT
BRANCH   1  10
ATOM     10  C   UNL     1       1.475  -4.627  -1.805  0.00  0.00    +0.151 C 
BRANCH  10  11
ATOM     11  C   UNL     1       2.626  -5.420  -2.362  0.00  0.00    -0.028 A 
ATOM     12  C   UNL     1       2.479  -6.146  -3.553  0.00  0.00    +0.005 A 
ATOM     13  C   UNL     1       3.866  -5.443  -1.707  0.00  0.00    +0.005 A 
ATOM     14  C   UNL     1       3.557  -6.857  -4.087  0.00  0.00    +0.000 A 
ATOM     15  C   UNL     1       4.939  -6.156  -2.243  0.00  0.00    +0.000 A 
ATOM     16  C   UNL     1       4.784  -6.861  -3.434  0.00  0.00    +0.000 A 
ENDBRANCH  10  11
ENDBRANCH   1  10
TORSDOF 2
ENDMDL
MODEL 3
REMARK VINA RESULT:    -5.283     25.180     26.101
REMARK INTER + INTRA:          -6.038
REMARK INTER:                  -5.900
REMARK INTRA:                  -0.138
REMARK UNBOUND:                -0.137
REMARK  Name = 1550473
REMARK  2 active torsions:
REMARK  status: ('A' for Active; 'I' for Inactive)
REMARK    1  A    between atoms: N_1  and  C_4
REMARK    2  A    between atoms: C_4  and  C_5
REMARK                            x       y       z     vdW  Elec       q    Type
REMARK                         _______ _______ _______ _____ _____    ______ ____
ROOT
ATOM      1  N   UNL     1     -16.921 -15.170 -17.673  0.00  0.00    -0.354 N 
ATOM      2  N   UNL     1     -16.730 -17.462 -17.398  0.00  0.00    -0.372 N 
ATOM      3  N   UNL     1     -17.214 -16.632 -19.481  0.00  0.00    -0.372 N 
ATOM      4  C   UNL     1     -16.957 -16.406 -18.189  0.00  0.00    +0.166 C 
ATOM      5  H   UNL     1     -16.750 -15.068 -16.680  0.00  0.00    +0.163 HD
ATOM      6  H   UNL     1     -16.748 -18.406 -17.759  0.00  0.00    +0.159 HD
ATOM      7  H   UNL     1     -16.515 -17.354 -16.414  0.00  0.00    +0.159 HD
ATOM      8  H   UNL     1     -17.400 -15.879 -20.130  0.00  0.00    +0.159 HD
ATOM      9  H   UNL     1     -17.248 -17.571 -19.859  0.00  0.00    +0.159 HD
ENDROOT
BRANCH   1  10
ATOM     10  C   UNL     1     -17.101 -13.951 -18.460  0.00  0.00    +0.151 C 
BRANCH  10  11
ATOM     11  C   UNL     1     -16.062 -12.944 -18.050  0.00  0.00    -0.028 A 
ATOM     12  C   UNL     1     -15.887 -11.762 -18.784  0.00  0.00    +0.005 A 
ATOM     13  C   UNL     1     -15.252 -13.164 -16.925  0.00  0.00    +0.005 A 
ATOM     14  C   UNL     1     -14.943 -10.813 -18.386  0.00  0.00    +0.000 A 
ATOM     15  C   UNL     1     -14.309 -12.214 -16.531  0.00  0.00    +0.000 A 
ATOM     16  C   UNL     1     -14.157 -11.038 -17.261  0.00  0.00    +0.000 A 
ENDBRANCH  10  11
ENDBRANCH   1  10
TORSDOF 2
ENDMDL
MODEL 4
REMARK VINA RESULT:    -5.223      9.701     11.303
REMARK INTER + INTRA:          -5.970
REMARK INTER:                  -5.843
REMARK INTRA:                  -0.128
REMARK UNBOUND:                -0.137
REMARK  Name = 1550473
REMARK  2 active torsions:
REMARK  status: ('A' for Active; 'I' for Inactive)
REMARK    1  A    between atoms: N_1  and  C_4
REMARK    2  A    between atoms: C_4  and  C_5
REMARK                            x       y       z     vdW  Elec       q    Type
REMARK                         _______ _______ _______ _____ _____    ______ ____
ROOT
ATOM      1  N   UNL     1       0.499   5.953   2.822  0.00  0.00    -0.354 N 
ATOM      2  N   UNL     1      -0.961   7.308   4.004  0.00  0.00    -0.372 N 
ATOM      3  N   UNL     1       1.252   7.901   3.884  0.00  0.00    -0.372 N 
ATOM      4  C   UNL     1       0.275   7.046   3.563  0.00  0.00    +0.166 C 
ATOM      5  H   UNL     1      -0.278   5.329   2.638  0.00  0.00    +0.163 HD
ATOM      6  H   UNL     1      -1.161   8.127   4.562  0.00  0.00    +0.159 HD
ATOM      7  H   UNL     1      -1.745   6.706   3.780  0.00  0.00    +0.159 HD
ATOM      8  H   UNL     1       2.208   7.758   3.588  0.00  0.00    +0.159 HD
ATOM      9  H   UNL     1       1.074   8.721   4.452  0.00  0.00    +0.159 HD
ENDROOT
BRANCH   1  10
ATOM     10  C   UNL     1       1.798   5.606   2.248  0.00  0.00    +0.151 C 
BRANCH  10  11
ATOM     11  C   UNL     1       1.630   5.339   0.777  0.00  0.00    -0.028 A 
ATOM     12  C   UNL     1       1.802   6.371  -0.157  0.00  0.00    +0.005 A 
ATOM     13  C   UNL     1       1.304   4.056   0.312  0.00  0.00    +0.005 A 
ATOM     14  C   UNL     1       1.675   6.117  -1.525  0.00  0.00    +0.000 A 
ATOM     15  C   UNL     1       1.177   3.807  -1.054  0.00  0.00    +0.000 A 
ATOM     16  C   UNL     1       1.366   4.837  -1.973  0.00  0.00    +0.000 A 
ENDBRANCH  10  11
ENDBRANCH   1  10
TORSDOF 2
ENDMDL
MODEL 5
REMARK VINA RESULT:    -5.103      3.153      4.763
REMARK INTER + INTRA:          -5.837
REMARK INTER:                  -5.671
REMARK INTRA:                  -0.166
REMARK UNBOUND:                -0.137
REMARK  Name = 1550473
REMARK  2 active torsions:
REMARK  status: ('A' for Active; 'I' for Inactive)
REMARK    1  A    between atoms: N_1  and  C_4
REMARK    2  A    between atoms: C_4  and  C_5
REMARK                            x       y       z     vdW  Elec       q    Type
REMARK                         _______ _______ _______ _____ _____    ______ ____
ROOT
ATOM      1  N   UNL     1       2.823  -7.481  -2.084  0.00  0.00    -0.354 N 
ATOM      2  N   UNL     1       1.598  -8.904  -3.440  0.00  0.00    -0.372 N 
ATOM      3  N   UNL     1       0.891  -8.541  -1.287  0.00  0.00    -0.372 N 
ATOM      4  C   UNL     1       1.777  -8.300  -2.259  0.00  0.00    +0.166 C 
ATOM      5  H   UNL     1       3.476  -7.363  -2.851  0.00  0.00    +0.163 HD
ATOM      6  H   UNL     1       0.817  -9.525  -3.603  0.00  0.00    +0.159 HD
ATOM      7  H   UNL     1       2.226  -8.749  -4.219  0.00  0.00    +0.159 HD
ATOM      8  H   UNL     1       0.973  -8.121  -0.371  0.00  0.00    +0.159 HD
ATOM      9  H   UNL     1       0.109  -9.169  -1.427  0.00  0.00    +0.159 HD
ENDROOT
BRANCH   1  10
ATOM     10  C   UNL     1       3.079  -6.732  -0.855  0.00  0.00    +0.151 C 
BRANCH  10  11
ATOM     11  C   UNL     1       2.513  -5.346  -0.998  0.00  0.00    -0.028 A 
ATOM     12  C   UNL     1       2.641  -4.646  -2.206  0.00  0.00    +0.005 A 
ATOM     13  C   UNL     1       1.844  -4.729   0.071  0.00  0.00    +0.005 A 
ATOM     14  C   UNL     1       2.089  -3.370  -2.349  0.00  0.00    +0.000 A 
ATOM     15  C   UNL     1       1.295  -3.455  -0.075  0.00  0.00    +0.000 A 
ATOM     16  C   UNL     1       1.416  -2.777  -1.286  0.00  0.00    +0.000 A 
ENDBRANCH  10  11
ENDBRANCH   1  10
TORSDOF 2
ENDMDL
MODEL 6
REMARK VINA RESULT:    -5.100     25.787     26.637
REMARK INTER + INTRA:          -5.834
REMARK INTER:                  -5.723
REMARK INTRA:                  -0.110
REMARK UNBOUND:                -0.137
REMARK  Name = 1550473
REMARK  2 active torsions:
REMARK  status: ('A' for Active; 'I' for Inactive)
REMARK    1  A    between atoms: N_1  and  C_4
REMARK    2  A    between atoms: C_4  and  C_5
REMARK                            x       y       z     vdW  Elec       q    Type
REMARK                         _______ _______ _______ _____ _____    ______ ____
ROOT
ATOM      1  N   UNL     1     -17.444 -12.672 -20.476  0.00  0.00    -0.354 N 
ATOM      2  N   UNL     1     -19.161 -14.137 -20.996  0.00  0.00    -0.372 N 
ATOM      3  N   UNL     1     -19.660 -12.194 -19.883  0.00  0.00    -0.372 N 
ATOM      4  C   UNL     1     -18.745 -12.989 -20.447  0.00  0.00    +0.166 C 
ATOM      5  H   UNL     1     -16.797 -13.332 -20.891  0.00  0.00    +0.163 HD
ATOM      6  H   UNL     1     -20.137 -14.402 -20.992  0.00  0.00    +0.159 HD
ATOM      7  H   UNL     1     -18.518 -14.773 -21.451  0.00  0.00    +0.159 HD
ATOM      8  H   UNL     1     -19.411 -11.317 -19.446  0.00  0.00    +0.159 HD
ATOM      9  H   UNL     1     -20.640 -12.447 -19.859  0.00  0.00    +0.159 HD
ENDROOT
BRANCH   1  10
ATOM     10  C   UNL     1     -16.896 -11.421 -19.954  0.00  0.00    +0.151 C 
BRANCH  10  11
ATOM     11  C   UNL     1     -15.969 -11.731 -18.811  0.00  0.00    -0.028 A 
ATOM     12  C   UNL     1     -14.990 -10.806 -18.418  0.00  0.00    +0.005 A 
ATOM     13  C   UNL     1     -16.068 -12.944 -18.113  0.00  0.00    +0.005 A 
ATOM     14  C   UNL     1     -14.148 -11.081 -17.337  0.00  0.00    +0.000 A 
ATOM     15  C   UNL     1     -15.225 -13.215 -17.035  0.00  0.00    +0.000 A 
ATOM     16  C   UNL     1     -14.267 -12.282 -16.646  0.00  0.00    +0.000 A 
ENDBRANCH  10  11
ENDBRANCH   1  10
TORSDOF 2
ENDMDL
MODEL 7
REMARK VINA RESULT:    -5.061     15.110     16.341
REMARK INTER + INTRA:          -5.789
REMARK INTER:                  -5.642
REMARK INTRA:                  -0.147
REMARK UNBOUND:                -0.137
REMARK  Name = 1550473
REMARK  2 active torsions:
REMARK  status: ('A' for Active; 'I' for Inactive)
REMARK    1  A    between atoms: N_1  and  C_4
REMARK    2  A    between atoms: C_4  and  C_5
REMARK                            x       y       z     vdW  Elec       q    Type
REMARK                         _______ _______ _______ _____ _____    ______ ____
ROOT
ATOM      1  N   UNL     1      -1.541   9.559   4.274  0.00  0.00    -0.354 N 
ATOM      2  N   UNL     1      -0.036  10.942   3.185  0.00  0.00    -0.372 N 
ATOM      3  N   UNL     1       0.394   8.690   3.277  0.00  0.00    -0.372 N 
ATOM      4  C   UNL     1      -0.403   9.719   3.586  0.00  0.00    +0.166 C 
ATOM      5  H   UNL     1      -2.085  10.383   4.503  0.00  0.00    +0.163 HD
ATOM      6  H   UNL     1       0.816  11.093   2.661  0.00  0.00    +0.159 HD
ATOM      7  H   UNL     1      -0.605  11.758   3.375  0.00  0.00    +0.159 HD
ATOM      8  H   UNL     1       0.176   7.742   3.555  0.00  0.00    +0.159 HD
ATOM      9  H   UNL     1       1.256   8.822   2.763  0.00  0.00    +0.159 HD
ENDROOT
BRANCH   1  10
ATOM     10  C   UNL     1      -2.057   8.263   4.711  0.00  0.00    +0.151 C 
BRANCH  10  11
ATOM     11  C   UNL     1      -2.105   8.233   6.213  0.00  0.00    -0.028 A 
ATOM     12  C   UNL     1      -3.046   9.004   6.911  0.00  0.00    +0.005 A 
ATOM     13  C   UNL     1      -1.214   7.433   6.945  0.00  0.00    +0.005 A 
ATOM     14  C   UNL     1      -3.111   8.954   8.306  0.00  0.00    +0.000 A 
ATOM     15  C   UNL     1      -1.281   7.386   8.338  0.00  0.00    +0.000 A 
ATOM     16  C   UNL     1      -2.231   8.145   9.017  0.00  0.00    +0.000 A 
ENDBRANCH  10  11
ENDBRANCH   1  10
TORSDOF 2
ENDMDL
MODEL 8
REMARK VINA RESULT:    -5.045     14.724     16.174
REMARK INTER + INTRA:          -5.771
REMARK INTER:                  -5.593
REMARK INTRA:                  -0.179
REMARK UNBOUND:                -0.137
REMARK  Name = 1550473
REMARK  2 active torsions:
REMARK  status: ('A' for Active; 'I' for Inactive)
REMARK    1  A    between atoms: N_1  and  C_4
REMARK    2  A    between atoms: C_4  and  C_5
REMARK                            x       y       z     vdW  Elec       q    Type
REMARK                         _______ _______ _______ _____ _____    ______ ____
ROOT
ATOM      1  N   UNL     1      -1.549   8.920   4.155  0.00  0.00    -0.354 N 
ATOM      2  N   UNL     1      -0.125  10.492   3.224  0.00  0.00    -0.372 N 
ATOM      3  N   UNL     1       0.774   8.614   4.189  0.00  0.00    -0.372 N 
ATOM      4  C   UNL     1      -0.308   9.330   3.863  0.00  0.00    +0.166 C 
ATOM      5  H   UNL     1      -2.326   9.522   3.908  0.00  0.00    +0.163 HD
ATOM      6  H   UNL     1       0.799  10.825   2.988  0.00  0.00    +0.159 HD
ATOM      7  H   UNL     1      -0.906  11.070   2.938  0.00  0.00    +0.159 HD
ATOM      8  H   UNL     1       0.705   7.731   4.677  0.00  0.00    +0.159 HD
ATOM      9  H   UNL     1       1.709   8.937   3.971  0.00  0.00    +0.159 HD
ENDROOT
BRANCH   1  10
ATOM     10  C   UNL     1      -1.859   7.645   4.800  0.00  0.00    +0.151 C 
BRANCH  10  11
ATOM     11  C   UNL     1      -2.080   7.879   6.269  0.00  0.00    -0.028 A 
ATOM     12  C   UNL     1      -1.279   7.232   7.221  0.00  0.00    +0.005 A 
ATOM     13  C   UNL     1      -3.085   8.751   6.715  0.00  0.00    +0.005 A 
ATOM     14  C   UNL     1      -1.464   7.472   8.585  0.00  0.00    +0.000 A 
ATOM     15  C   UNL     1      -3.267   8.987   8.077  0.00  0.00    +0.000 A 
ATOM     16  C   UNL     1      -2.455   8.350   9.012  0.00  0.00    +0.000 A 
ENDBRANCH  10  11
ENDBRANCH   1  10
TORSDOF 2
ENDMDL
MODEL 9
REMARK VINA RESULT:    -4.869     11.197     12.721
REMARK INTER + INTRA:          -5.575
REMARK INTER:                  -5.430
REMARK INTRA:                  -0.144
REMARK UNBOUND:                -0.137
REMARK  Name = 1550473
REMARK  2 active torsions:
REMARK  status: ('A' for Active; 'I' for Inactive)
REMARK    1  A    between atoms: N_1  and  C_4
REMARK    2  A    between atoms: C_4  and  C_5
REMARK                            x       y       z     vdW  Elec       q    Type
REMARK                         _______ _______ _______ _____ _____    ______ ____
ROOT
ATOM      1  N   UNL     1       0.739   8.409   3.500  0.00  0.00    -0.354 N 
ATOM      2  N   UNL     1       0.005  10.591   3.759  0.00  0.00    -0.372 N 
ATOM      3  N   UNL     1      -1.112   8.908   4.848  0.00  0.00    -0.372 N 
ATOM      4  C   UNL     1      -0.120   9.287   4.035  0.00  0.00    +0.166 C 
ATOM      5  H   UNL     1       1.451   8.757   2.868  0.00  0.00    +0.163 HD
ATOM      6  H   UNL     1      -0.626  11.277   4.151  0.00  0.00    +0.159 HD
ATOM      7  H   UNL     1       0.746  10.940   3.163  0.00  0.00    +0.159 HD
ATOM      8  H   UNL     1      -1.265   7.938   5.091  0.00  0.00    +0.159 HD
ATOM      9  H   UNL     1      -1.761   9.579   5.241  0.00  0.00    +0.159 HD
ENDROOT
BRANCH   1  10
ATOM     10  C   UNL     1       0.722   6.974   3.780  0.00  0.00    +0.151 C 
BRANCH  10  11
ATOM     11  C   UNL     1       0.692   6.221   2.479  0.00  0.00    -0.028 A 
ATOM     12  C   UNL     1       1.767   5.401   2.106  0.00  0.00    +0.005 A 
ATOM     13  C   UNL     1      -0.412   6.317   1.618  0.00  0.00    +0.005 A 
ATOM     14  C   UNL     1       1.726   4.677   0.911  0.00  0.00    +0.000 A 
ATOM     15  C   UNL     1      -0.449   5.593   0.426  0.00  0.00    +0.000 A 
ATOM     16  C   UNL     1       0.619   4.772   0.074  0.00  0.00    +0.000 A 
ENDBRANCH  10  11
ENDBRANCH   1  10
TORSDOF 2
ENDMDL
