MODEL 1
REMARK VINA RESULT:    -4.968      0.000      0.000
REMARK INTER + INTRA:          -5.710
REMARK INTER:                  -5.549
REMARK INTRA:                  -0.161
REMARK UNBOUND:                -0.161
REMARK  Name = 1550473
REMARK  2 active torsions:
REMARK  status: ('A' for Active; 'I' for Inactive)
REMARK    1  A    between atoms: N_1  and  C_4
REMARK    2  A    between atoms: C_4  and  C_5
REMARK                            x       y       z     vdW  Elec       q    Type
REMARK                         _______ _______ _______ _____ _____    ______ ____
ROOT
ATOM      1  N   UNL     1      -0.529   2.846  -7.323  0.00  0.00    -0.354 N 
ATOM      2  N   UNL     1      -0.101   4.849  -6.242  0.00  0.00    -0.372 N 
ATOM      3  N   UNL     1      -2.268   4.318  -6.775  0.00  0.00    -0.372 N 
ATOM      4  C   UNL     1      -0.971   3.991  -6.787  0.00  0.00    +0.166 C 
ATOM      5  H   UNL     1       0.470   2.671  -7.328  0.00  0.00    +0.163 HD
ATOM      6  H   UNL     1      -0.405   5.719  -5.827  0.00  0.00    +0.159 HD
ATOM      7  H   UNL     1       0.892   4.651  -6.207  0.00  0.00    +0.159 HD
ATOM      8  H   UNL     1      -2.976   3.716  -7.175  0.00  0.00    +0.159 HD
ATOM      9  H   UNL     1      -2.592   5.190  -6.375  0.00  0.00    +0.159 HD
ENDROOT
BRANCH   1  10
ATOM     10  C   UNL     1      -1.400   1.820  -7.894  0.00  0.00    +0.151 C 
BRANCH  10  11
ATOM     11  C   UNL     1      -1.373   0.605  -7.008  0.00  0.00    -0.028 A 
ATOM     12  C   UNL     1      -2.484   0.273  -6.220  0.00  0.00    +0.005 A 
ATOM     13  C   UNL     1      -0.240  -0.223  -6.958  0.00  0.00    +0.005 A 
ATOM     14  C   UNL     1      -2.471  -0.872  -5.420  0.00  0.00    +0.000 A 
ATOM     15  C   UNL     1      -0.231  -1.365  -6.157  0.00  0.00    +0.000 A 
ATOM     16  C   UNL     1      -1.347  -1.691  -5.391  0.00  0.00    +0.000 A 
ENDBRANCH  10  11
ENDBRANCH   1  10
TORSDOF 2
ENDMDL
MODEL 2
REMARK VINA RESULT:    -4.935      1.628      2.681
REMARK INTER + INTRA:          -5.673
REMARK INTER:                  -5.587
REMARK INTRA:                  -0.086
REMARK UNBOUND:                -0.161
REMARK  Name = 1550473
REMARK  2 active torsions:
REMARK  status: ('A' for Active; 'I' for Inactive)
REMARK    1  A    between atoms: N_1  and  C_4
REMARK    2  A    between atoms: C_4  and  C_5
REMARK                            x       y       z     vdW  Elec       q    Type
REMARK                         _______ _______ _______ _____ _____    ______ ____
ROOT
ATOM      1  N   UNL     1      -0.031   2.235  -8.053  0.00  0.00    -0.354 N 
ATOM      2  N   UNL     1       1.902   2.788  -9.202  0.00  0.00    -0.372 N 
ATOM      3  N   UNL     1       0.245   1.645 -10.304  0.00  0.00    -0.372 N 
ATOM      4  C   UNL     1       0.691   2.218  -9.180  0.00  0.00    +0.166 C 
ATOM      5  H   UNL     1       0.376   2.659  -7.227  0.00  0.00    +0.163 HD
ATOM      6  H   UNL     1       2.469   2.793 -10.039  0.00  0.00    +0.159 HD
ATOM      7  H   UNL     1       2.288   3.251  -8.388  0.00  0.00    +0.159 HD
ATOM      8  H   UNL     1      -0.658   1.192 -10.352  0.00  0.00    +0.159 HD
ATOM      9  H   UNL     1       0.803   1.630 -11.149  0.00  0.00    +0.159 HD
ENDROOT
BRANCH   1  10
ATOM     10  C   UNL     1      -1.383   1.690  -7.939  0.00  0.00    +0.151 C 
BRANCH  10  11
ATOM     11  C   UNL     1      -1.353   0.487  -7.037  0.00  0.00    -0.028 A 
ATOM     12  C   UNL     1      -0.195  -0.299  -6.937  0.00  0.00    +0.005 A 
ATOM     13  C   UNL     1      -2.477   0.130  -6.277  0.00  0.00    +0.005 A 
ATOM     14  C   UNL     1      -0.156  -1.399  -6.077  0.00  0.00    +0.000 A 
ATOM     15  C   UNL     1      -2.434  -0.970  -5.420  0.00  0.00    +0.000 A 
ATOM     16  C   UNL     1      -1.273  -1.733  -5.318  0.00  0.00    +0.000 A 
ENDBRANCH  10  11
ENDBRANCH   1  10
TORSDOF 2
ENDMDL
MODEL 3
REMARK VINA RESULT:    -4.859     13.342     13.808
REMARK INTER + INTRA:          -5.589
REMARK INTER:                  -5.451
REMARK INTRA:                  -0.137
REMARK UNBOUND:                -0.161
REMARK  Name = 1550473
REMARK  2 active torsions:
REMARK  status: ('A' for Active; 'I' for Inactive)
REMARK    1  A    between atoms: N_1  and  C_4
REMARK    2  A    between atoms: C_4  and  C_5
REMARK                            x       y       z     vdW  Elec       q    Type
REMARK                         _______ _______ _______ _____ _____    ______ ____
ROOT
ATOM      1  N   UNL     1       1.220 -10.079 -14.688  0.00  0.00    -0.354 N 
ATOM      2  N   UNL     1       1.339  -8.615 -16.480  0.00  0.00    -0.372 N 
ATOM      3  N   UNL     1       2.769  -8.320 -14.710  0.00  0.00    -0.372 N 
ATOM      4  C   UNL     1       1.777  -9.013 -15.279  0.00  0.00    +0.166 C 
ATOM      5  H   UNL     1       0.452 -10.543 -15.159  0.00  0.00    +0.163 HD
ATOM      6  H   UNL     1       1.742  -7.817 -16.951  0.00  0.00    +0.159 HD
ATOM      7  H   UNL     1       0.602  -9.109 -16.968  0.00  0.00    +0.159 HD
ATOM      8  H   UNL     1       3.141  -8.565 -13.802  0.00  0.00    +0.159 HD
ATOM      9  H   UNL     1       3.178  -7.511 -15.161  0.00  0.00    +0.159 HD
ENDROOT
BRANCH   1  10
ATOM     10  C   UNL     1       1.660 -10.626 -13.406  0.00  0.00    +0.151 C 
BRANCH  10  11
ATOM     11  C   UNL     1       0.453 -10.937 -12.565  0.00  0.00    -0.028 A 
ATOM     12  C   UNL     1       0.588 -11.192 -11.192  0.00  0.00    +0.005 A 
ATOM     13  C   UNL     1      -0.829 -10.973 -13.134  0.00  0.00    +0.005 A 
ATOM     14  C   UNL     1      -0.536 -11.452 -10.405  0.00  0.00    +0.000 A 
ATOM     15  C   UNL     1      -1.949 -11.234 -12.344  0.00  0.00    +0.000 A 
ATOM     16  C   UNL     1      -1.802 -11.471 -10.979  0.00  0.00    +0.000 A 
ENDBRANCH  10  11
ENDBRANCH   1  10
TORSDOF 2
ENDMDL
MODEL 4
REMARK VINA RESULT:    -4.699      1.770      2.115
REMARK INTER + INTRA:          -5.410
REMARK INTER:                  -5.268
REMARK INTRA:                  -0.142
REMARK UNBOUND:                -0.161
REMARK  Name = 1550473
REMARK  2 active torsions:
REMARK  status: ('A' for Active; 'I' for Inactive)
REMARK    1  A    between atoms: N_1  and  C_4
REMARK    2  A    between atoms: C_4  and  C_5
REMARK                            x       y       z     vdW  Elec       q    Type
REMARK                         _______ _______ _______ _____ _____    ______ ____
ROOT
ATOM      1  N   UNL     1      -0.583   1.754  -8.898  0.00  0.00    -0.354 N 
ATOM      2  N   UNL     1      -0.946   3.868  -9.770  0.00  0.00    -0.372 N 
ATOM      3  N   UNL     1       0.997   3.462  -8.619  0.00  0.00    -0.372 N 
ATOM      4  C   UNL     1      -0.173   3.015  -9.088  0.00  0.00    +0.166 C 
ATOM      5  H   UNL     1      -1.494   1.485  -9.252  0.00  0.00    +0.163 HD
ATOM      6  H   UNL     1      -0.662   4.825  -9.933  0.00  0.00    +0.159 HD
ATOM      7  H   UNL     1      -1.835   3.584 -10.163  0.00  0.00    +0.159 HD
ATOM      8  H   UNL     1       1.624   2.869  -8.092  0.00  0.00    +0.159 HD
ATOM      9  H   UNL     1       1.294   4.419  -8.762  0.00  0.00    +0.159 HD
ENDROOT
BRANCH   1  10
ATOM     10  C   UNL     1       0.208   0.731  -8.216  0.00  0.00    +0.151 C 
BRANCH  10  11
ATOM     11  C   UNL     1      -0.631   0.097  -7.140  0.00  0.00    -0.028 A 
ATOM     12  C   UNL     1      -1.888   0.626  -6.814  0.00  0.00    +0.005 A 
ATOM     13  C   UNL     1      -0.175  -1.035  -6.447  0.00  0.00    +0.005 A 
ATOM     14  C   UNL     1      -2.680   0.020  -5.835  0.00  0.00    +0.000 A 
ATOM     15  C   UNL     1      -0.969  -1.636  -5.470  0.00  0.00    +0.000 A 
ATOM     16  C   UNL     1      -2.222  -1.110  -5.166  0.00  0.00    +0.000 A 
ENDBRANCH  10  11
ENDBRANCH   1  10
TORSDOF 2
ENDMDL
MODEL 5
REMARK VINA RESULT:    -4.675      6.001      7.341
REMARK INTER + INTRA:          -5.383
REMARK INTER:                  -5.207
REMARK INTRA:                  -0.176
REMARK UNBOUND:                -0.161
REMARK  Name = 1550473
REMARK  2 active torsions:
REMARK  status: ('A' for Active; 'I' for Inactive)
REMARK    1  A    between atoms: N_1  and  C_4
REMARK    2  A    between atoms: C_4  and  C_5
REMARK                            x       y       z     vdW  Elec       q    Type
REMARK                         _______ _______ _______ _____ _____    ______ ____
ROOT
ATOM      1  N   UNL     1      -5.344   5.494  -1.239  0.00  0.00    -0.354 N 
ATOM      2  N   UNL     1      -6.086   7.489  -0.326  0.00  0.00    -0.372 N 
ATOM      3  N   UNL     1      -4.695   6.152   0.915  0.00  0.00    -0.372 N 
ATOM      4  C   UNL     1      -5.369   6.364  -0.221  0.00  0.00    +0.166 C 
ATOM      5  H   UNL     1      -5.901   5.699  -2.061  0.00  0.00    +0.163 HD
ATOM      6  H   UNL     1      -6.121   8.166   0.425  0.00  0.00    +0.159 HD
ATOM      7  H   UNL     1      -6.605   7.714  -1.166  0.00  0.00    +0.159 HD
ATOM      8  H   UNL     1      -4.139   5.319   1.059  0.00  0.00    +0.159 HD
ATOM      9  H   UNL     1      -4.727   6.811   1.682  0.00  0.00    +0.159 HD
ENDROOT
BRANCH   1  10
ATOM     10  C   UNL     1      -4.551   4.266  -1.246  0.00  0.00    +0.151 C 
BRANCH  10  11
ATOM     11  C   UNL     1      -3.381   4.443  -2.173  0.00  0.00    -0.028 A 
ATOM     12  C   UNL     1      -3.498   4.131  -3.536  0.00  0.00    +0.005 A 
ATOM     13  C   UNL     1      -2.153   4.927  -1.697  0.00  0.00    +0.005 A 
ATOM     14  C   UNL     1      -2.420   4.323  -4.403  0.00  0.00    +0.000 A 
ATOM     15  C   UNL     1      -1.078   5.117  -2.566  0.00  0.00    +0.000 A 
ATOM     16  C   UNL     1      -1.213   4.817  -3.919  0.00  0.00    +0.000 A 
ENDBRANCH  10  11
ENDBRANCH   1  10
TORSDOF 2
ENDMDL
MODEL 6
REMARK VINA RESULT:    -4.650      2.227      2.904
REMARK INTER + INTRA:          -5.354
REMARK INTER:                  -5.222
REMARK INTRA:                  -0.133
REMARK UNBOUND:                -0.161
REMARK  Name = 1550473
REMARK  2 active torsions:
REMARK  status: ('A' for Active; 'I' for Inactive)
REMARK    1  A    between atoms: N_1  and  C_4
REMARK    2  A    between atoms: C_4  and  C_5
REMARK                            x       y       z     vdW  Elec       q    Type
REMARK                         _______ _______ _______ _____ _____    ______ ____
ROOT
ATOM      1  N   UNL     1      -0.116   1.393  -9.265  0.00  0.00    -0.354 N 
ATOM      2  N   UNL     1       0.736   1.280 -11.416  0.00  0.00    -0.372 N 
ATOM      3  N   UNL     1      -1.432   1.971 -11.116  0.00  0.00    -0.372 N 
ATOM      4  C   UNL     1      -0.279   1.549 -10.586  0.00  0.00    +0.166 C 
ATOM      5  H   UNL     1       0.773   1.041  -8.929  0.00  0.00    +0.163 HD
ATOM      6  H   UNL     1       0.643   1.392 -12.417  0.00  0.00    +0.159 HD
ATOM      7  H   UNL     1       1.638   0.973 -11.074  0.00  0.00    +0.159 HD
ATOM      8  H   UNL     1      -2.238   2.185 -10.544  0.00  0.00    +0.159 HD
ATOM      9  H   UNL     1      -1.547   2.078 -12.116  0.00  0.00    +0.159 HD
ENDROOT
BRANCH   1  10
ATOM     10  C   UNL     1      -1.140   1.709  -8.271  0.00  0.00    +0.151 C 
BRANCH  10  11
ATOM     11  C   UNL     1      -1.214   0.591  -7.269  0.00  0.00    -0.028 A 
ATOM     12  C   UNL     1      -2.403   0.340  -6.569  0.00  0.00    +0.005 A 
ATOM     13  C   UNL     1      -0.100  -0.225  -7.018  0.00  0.00    +0.005 A 
ATOM     14  C   UNL     1      -2.482  -0.718  -5.660  0.00  0.00    +0.000 A 
ATOM     15  C   UNL     1      -0.182  -1.279  -6.109  0.00  0.00    +0.000 A 
ATOM     16  C   UNL     1      -1.373  -1.527  -5.432  0.00  0.00    +0.000 A 
ENDBRANCH  10  11
ENDBRANCH   1  10
TORSDOF 2
ENDMDL
MODEL 7
REMARK VINA RESULT:    -4.531     13.858     14.513
REMARK INTER + INTRA:          -5.222
REMARK INTER:                  -5.084
REMARK INTRA:                  -0.138
REMARK UNBOUND:                -0.161
REMARK  Name = 1550473
REMARK  2 active torsions:
REMARK  status: ('A' for Active; 'I' for Inactive)
REMARK    1  A    between atoms: N_1  and  C_4
REMARK    2  A    between atoms: C_4  and  C_5
REMARK                            x       y       z     vdW  Elec       q    Type
REMARK                         _______ _______ _______ _____ _____    ______ ____
ROOT
ATOM      1  N   UNL     1       1.515 -13.299  -7.760  0.00  0.00    -0.354 N 
ATOM      2  N   UNL     1       1.881 -14.231  -5.672  0.00  0.00    -0.372 N 
ATOM      3  N   UNL     1       2.905 -12.246  -6.194  0.00  0.00    -0.372 N 
ATOM      4  C   UNL     1       2.100 -13.250  -6.555  0.00  0.00    +0.166 C 
ATOM      5  H   UNL     1       0.940 -14.102  -7.984  0.00  0.00    +0.163 HD
ATOM      6  H   UNL     1       2.305 -14.220  -4.754  0.00  0.00    +0.159 HD
ATOM      7  H   UNL     1       1.269 -15.010  -5.881  0.00  0.00    +0.159 HD
ATOM      8  H   UNL     1       3.116 -11.477  -6.817  0.00  0.00    +0.159 HD
ATOM      9  H   UNL     1       3.349 -12.223  -5.284  0.00  0.00    +0.159 HD
ENDROOT
BRANCH   1  10
ATOM     10  C   UNL     1       1.646 -12.254  -8.775  0.00  0.00    +0.151 C 
BRANCH  10  11
ATOM     11  C   UNL     1       0.290 -11.965  -9.358  0.00  0.00    -0.028 A 
ATOM     12  C   UNL     1       0.163 -11.548 -10.691  0.00  0.00    +0.005 A 
ATOM     13  C   UNL     1      -0.872 -12.111  -8.585  0.00  0.00    +0.005 A 
ATOM     14  C   UNL     1      -1.098 -11.308 -11.243  0.00  0.00    +0.000 A 
ATOM     15  C   UNL     1      -2.129 -11.870  -9.139  0.00  0.00    +0.000 A 
ATOM     16  C   UNL     1      -2.241 -11.470 -10.469  0.00  0.00    +0.000 A 
ENDBRANCH  10  11
ENDBRANCH   1  10
TORSDOF 2
ENDMDL
MODEL 8
REMARK VINA RESULT:    -4.513      5.409      6.918
REMARK INTER + INTRA:          -5.202
REMARK INTER:                  -5.070
REMARK INTRA:                  -0.131
REMARK UNBOUND:                -0.161
REMARK  Name = 1550473
REMARK  2 active torsions:
REMARK  status: ('A' for Active; 'I' for Inactive)
REMARK    1  A    between atoms: N_1  and  C_4
REMARK    2  A    between atoms: C_4  and  C_5
REMARK                            x       y       z     vdW  Elec       q    Type
REMARK                         _______ _______ _______ _____ _____    ______ ____
ROOT
ATOM      1  N   UNL     1      -0.533   5.800  -2.979  0.00  0.00    -0.354 N 
ATOM      2  N   UNL     1       0.895   7.223  -4.120  0.00  0.00    -0.372 N 
ATOM      3  N   UNL     1      -0.147   5.536  -5.276  0.00  0.00    -0.372 N 
ATOM      4  C   UNL     1       0.062   6.175  -4.120  0.00  0.00    +0.166 C 
ATOM      5  H   UNL     1      -0.310   6.307  -2.131  0.00  0.00    +0.163 HD
ATOM      6  H   UNL     1       1.356   7.531  -4.966  0.00  0.00    +0.159 HD
ATOM      7  H   UNL     1       1.081   7.756  -3.279  0.00  0.00    +0.159 HD
ATOM      8  H   UNL     1      -0.759   4.734  -5.341  0.00  0.00    +0.159 HD
ATOM      9  H   UNL     1       0.314   5.823  -6.130  0.00  0.00    +0.159 HD
ENDROOT
BRANCH   1  10
ATOM     10  C   UNL     1      -1.498   4.706  -2.882  0.00  0.00    +0.151 C 
BRANCH  10  11
ATOM     11  C   UNL     1      -2.558   5.074  -1.880  0.00  0.00    -0.028 A 
ATOM     12  C   UNL     1      -2.357   6.139  -0.990  0.00  0.00    +0.005 A 
ATOM     13  C   UNL     1      -3.767   4.365  -1.820  0.00  0.00    +0.005 A 
ATOM     14  C   UNL     1      -3.353   6.501  -0.080  0.00  0.00    +0.000 A 
ATOM     15  C   UNL     1      -4.759   4.728  -0.909  0.00  0.00    +0.000 A 
ATOM     16  C   UNL     1      -4.552   5.798  -0.041  0.00  0.00    +0.000 A 
ENDBRANCH  10  11
ENDBRANCH   1  10
TORSDOF 2
ENDMDL
MODEL 9
REMARK VINA RESULT:    -4.477      6.087      7.374
REMARK INTER + INTRA:          -5.161
REMARK INTER:                  -5.023
REMARK INTRA:                  -0.139
REMARK UNBOUND:                -0.161
REMARK  Name = 1550473
REMARK  2 active torsions:
REMARK  status: ('A' for Active; 'I' for Inactive)
REMARK    1  A    between atoms: N_1  and  C_4
REMARK    2  A    between atoms: C_4  and  C_5
REMARK                            x       y       z     vdW  Elec       q    Type
REMARK                         _______ _______ _______ _____ _____    ______ ____
ROOT
ATOM      1  N   UNL     1      -5.025   4.893  -0.845  0.00  0.00    -0.354 N 
ATOM      2  N   UNL     1      -6.155   6.094   0.781  0.00  0.00    -0.372 N 
ATOM      3  N   UNL     1      -3.903   6.441   0.510  0.00  0.00    -0.372 N 
ATOM      4  C   UNL     1      -5.018   5.802   0.139  0.00  0.00    +0.166 C 
ATOM      5  H   UNL     1      -5.896   4.421  -1.059  0.00  0.00    +0.163 HD
ATOM      6  H   UNL     1      -6.182   6.779   1.524  0.00  0.00    +0.159 HD
ATOM      7  H   UNL     1      -7.034   5.655   0.534  0.00  0.00    +0.159 HD
ATOM      8  H   UNL     1      -3.011   6.262   0.069  0.00  0.00    +0.159 HD
ATOM      9  H   UNL     1      -3.907   7.121   1.260  0.00  0.00    +0.159 HD
ENDROOT
BRANCH   1  10
ATOM     10  C   UNL     1      -3.851   4.542  -1.643  0.00  0.00    +0.151 C 
BRANCH  10  11
ATOM     11  C   UNL     1      -4.255   4.426  -3.086  0.00  0.00    -0.028 A 
ATOM     12  C   UNL     1      -3.425   3.770  -4.008  0.00  0.00    +0.005 A 
ATOM     13  C   UNL     1      -5.469   4.965  -3.539  0.00  0.00    +0.005 A 
ATOM     14  C   UNL     1      -3.814   3.636  -5.343  0.00  0.00    +0.000 A 
ATOM     15  C   UNL     1      -5.854   4.829  -4.872  0.00  0.00    +0.000 A 
ATOM     16  C   UNL     1      -5.027   4.163  -5.774  0.00  0.00    +0.000 A 
ENDBRANCH  10  11
ENDBRANCH   1  10
TORSDOF 2
ENDMDL
