MODEL 1
REMARK VINA RESULT:    -5.492      0.000      0.000
REMARK INTER + INTRA:          -6.259
REMARK INTER:                  -6.134
REMARK INTRA:                  -0.126
REMARK UNBOUND:                -0.126
REMARK  Name = 1550473
REMARK  2 active torsions:
REMARK  status: ('A' for Active; 'I' for Inactive)
REMARK    1  A    between atoms: N_1  and  C_4
REMARK    2  A    between atoms: C_4  and  C_5
REMARK                            x       y       z     vdW  Elec       q    Type
REMARK                         _______ _______ _______ _____ _____    ______ ____
ROOT
ATOM      1  N   UNL     1     -14.541  -8.957  -4.771  0.00  0.00    -0.354 N 
ATOM      2  N   UNL     1     -12.642 -10.238  -5.115  0.00  0.00    -0.372 N 
ATOM      3  N   UNL     1     -14.360 -11.112  -3.869  0.00  0.00    -0.372 N 
ATOM      4  C   UNL     1     -13.861 -10.096  -4.581  0.00  0.00    +0.166 C 
ATOM      5  H   UNL     1     -14.095  -8.212  -5.295  0.00  0.00    +0.163 HD
ATOM      6  H   UNL     1     -12.108 -11.088  -4.991  0.00  0.00    +0.159 HD
ATOM      7  H   UNL     1     -12.218  -9.511  -5.677  0.00  0.00    +0.159 HD
ATOM      8  H   UNL     1     -15.272 -11.065  -3.435  0.00  0.00    +0.159 HD
ATOM      9  H   UNL     1     -13.835 -11.965  -3.724  0.00  0.00    +0.159 HD
ENDROOT
BRANCH   1  10
ATOM     10  C   UNL     1     -15.896  -8.721  -4.278  0.00  0.00    +0.151 C 
BRANCH  10  11
ATOM     11  C   UNL     1     -16.525  -7.614  -5.079  0.00  0.00    -0.028 A 
ATOM     12  C   UNL     1     -15.757  -6.864  -5.982  0.00  0.00    +0.005 A 
ATOM     13  C   UNL     1     -17.890  -7.316  -4.945  0.00  0.00    +0.005 A 
ATOM     14  C   UNL     1     -16.347  -5.856  -6.748  0.00  0.00    +0.000 A 
ATOM     15  C   UNL     1     -18.475  -6.308  -5.712  0.00  0.00    +0.000 A 
ATOM     16  C   UNL     1     -17.704  -5.580  -6.615  0.00  0.00    +0.000 A 
ENDBRANCH  10  11
ENDBRANCH   1  10
TORSDOF 2
ENDMDL
MODEL 2
REMARK VINA RESULT:    -5.375     10.304     11.428
REMARK INTER + INTRA:          -6.130
REMARK INTER:                  -5.983
REMARK INTRA:                  -0.147
REMARK UNBOUND:                -0.126
REMARK  Name = 1550473
REMARK  2 active torsions:
REMARK  status: ('A' for Active; 'I' for Inactive)
REMARK    1  A    between atoms: N_1  and  C_4
REMARK    2  A    between atoms: C_4  and  C_5
REMARK                            x       y       z     vdW  Elec       q    Type
REMARK                         _______ _______ _______ _____ _____    ______ ____
ROOT
ATOM      1  N   UNL     1      -7.469   1.066  -5.860  0.00  0.00    -0.354 N 
ATOM      2  N   UNL     1      -5.377   1.735  -6.596  0.00  0.00    -0.372 N 
ATOM      3  N   UNL     1      -7.097   1.606  -8.110  0.00  0.00    -0.372 N 
ATOM      4  C   UNL     1      -6.663   1.465  -6.853  0.00  0.00    +0.166 C 
ATOM      5  H   UNL     1      -7.072   0.949  -4.935  0.00  0.00    +0.163 HD
ATOM      6  H   UNL     1      -4.746   2.041  -7.325  0.00  0.00    +0.159 HD
ATOM      7  H   UNL     1      -4.994   1.661  -5.662  0.00  0.00    +0.159 HD
ATOM      8  H   UNL     1      -8.055   1.413  -8.371  0.00  0.00    +0.159 HD
ATOM      9  H   UNL     1      -6.478   1.900  -8.855  0.00  0.00    +0.159 HD
ENDROOT
BRANCH   1  10
ATOM     10  C   UNL     1      -8.897   0.799  -6.023  0.00  0.00    +0.151 C 
BRANCH  10  11
ATOM     11  C   UNL     1      -9.172  -0.636  -5.667  0.00  0.00    -0.028 A 
ATOM     12  C   UNL     1     -10.227  -1.331  -6.275  0.00  0.00    +0.005 A 
ATOM     13  C   UNL     1      -8.377  -1.308  -4.726  0.00  0.00    +0.005 A 
ATOM     14  C   UNL     1     -10.464  -2.673  -5.967  0.00  0.00    +0.000 A 
ATOM     15  C   UNL     1      -8.617  -2.647  -4.420  0.00  0.00    +0.000 A 
ATOM     16  C   UNL     1      -9.659  -3.330  -5.042  0.00  0.00    +0.000 A 
ENDBRANCH  10  11
ENDBRANCH   1  10
TORSDOF 2
ENDMDL
MODEL 3
REMARK VINA RESULT:    -5.117      8.319      9.319
REMARK INTER + INTRA:          -5.841
REMARK INTER:                  -5.723
REMARK INTRA:                  -0.118
REMARK UNBOUND:                -0.126
REMARK  Name = 1550473
REMARK  2 active torsions:
REMARK  status: ('A' for Active; 'I' for Inactive)
REMARK    1  A    between atoms: N_1  and  C_4
REMARK    2  A    between atoms: C_4  and  C_5
REMARK                            x       y       z     vdW  Elec       q    Type
REMARK                         _______ _______ _______ _____ _____    ______ ____
ROOT
ATOM      1  N   UNL     1     -10.097  -3.409  -4.839  0.00  0.00    -0.354 N 
ATOM      2  N   UNL     1     -10.226  -4.662  -2.896  0.00  0.00    -0.372 N 
ATOM      3  N   UNL     1     -11.972  -3.275  -3.440  0.00  0.00    -0.372 N 
ATOM      4  C   UNL     1     -10.766  -3.772  -3.737  0.00  0.00    +0.166 C 
ATOM      5  H   UNL     1      -9.174  -3.799  -4.992  0.00  0.00    +0.163 HD
ATOM      6  H   UNL     1     -10.710  -4.958  -2.058  0.00  0.00    +0.159 HD
ATOM      7  H   UNL     1      -9.324  -5.085  -3.075  0.00  0.00    +0.159 HD
ATOM      8  H   UNL     1     -12.432  -2.596  -4.031  0.00  0.00    +0.159 HD
ATOM      9  H   UNL     1     -12.466  -3.550  -2.600  0.00  0.00    +0.159 HD
ENDROOT
BRANCH   1  10
ATOM     10  C   UNL     1     -10.619  -2.488  -5.847  0.00  0.00    +0.151 C 
BRANCH  10  11
ATOM     11  C   UNL     1      -9.726  -1.281  -5.920  0.00  0.00    -0.028 A 
ATOM     12  C   UNL     1      -8.821  -1.001  -4.885  0.00  0.00    +0.005 A 
ATOM     13  C   UNL     1      -9.775  -0.416  -7.024  0.00  0.00    +0.005 A 
ATOM     14  C   UNL     1      -7.970   0.104  -4.967  0.00  0.00    +0.000 A 
ATOM     15  C   UNL     1      -8.924   0.687  -7.101  0.00  0.00    +0.000 A 
ATOM     16  C   UNL     1      -8.020   0.945  -6.073  0.00  0.00    +0.000 A 
ENDBRANCH  10  11
ENDBRANCH   1  10
TORSDOF 2
ENDMDL
MODEL 4
REMARK VINA RESULT:    -5.035     19.962     20.245
REMARK INTER + INTRA:          -5.750
REMARK INTER:                  -5.584
REMARK INTRA:                  -0.166
REMARK UNBOUND:                -0.126
REMARK  Name = 1550473
REMARK  2 active torsions:
REMARK  status: ('A' for Active; 'I' for Inactive)
REMARK    1  A    between atoms: N_1  and  C_4
REMARK    2  A    between atoms: C_4  and  C_5
REMARK                            x       y       z     vdW  Elec       q    Type
REMARK                         _______ _______ _______ _____ _____    ______ ____
ROOT
ATOM      1  N   UNL     1     -13.031   3.387  11.812  0.00  0.00    -0.354 N 
ATOM      2  N   UNL     1     -13.562   4.342  13.855  0.00  0.00    -0.372 N 
ATOM      3  N   UNL     1     -11.379   4.378  13.147  0.00  0.00    -0.372 N 
ATOM      4  C   UNL     1     -12.651   4.030  12.925  0.00  0.00    +0.166 C 
ATOM      5  H   UNL     1     -14.005   3.124  11.718  0.00  0.00    +0.163 HD
ATOM      6  H   UNL     1     -13.305   4.830  14.702  0.00  0.00    +0.159 HD
ATOM      7  H   UNL     1     -14.542   4.118  13.736  0.00  0.00    +0.159 HD
ATOM      8  H   UNL     1     -10.643   4.166  12.487  0.00  0.00    +0.159 HD
ATOM      9  H   UNL     1     -11.101   4.857  13.994  0.00  0.00    +0.159 HD
ENDROOT
BRANCH   1  10
ATOM     10  C   UNL     1     -12.128   3.048  10.714  0.00  0.00    +0.151 C 
BRANCH  10  11
ATOM     11  C   UNL     1     -12.495   3.865   9.506  0.00  0.00    -0.028 A 
ATOM     12  C   UNL     1     -11.879   5.103   9.270  0.00  0.00    +0.005 A 
ATOM     13  C   UNL     1     -13.454   3.404   8.591  0.00  0.00    +0.005 A 
ATOM     14  C   UNL     1     -12.199   5.848   8.132  0.00  0.00    +0.000 A 
ATOM     15  C   UNL     1     -13.771   4.151   7.457  0.00  0.00    +0.000 A 
ATOM     16  C   UNL     1     -13.141   5.372   7.226  0.00  0.00    +0.000 A 
ENDBRANCH  10  11
ENDBRANCH   1  10
TORSDOF 2
ENDMDL
MODEL 5
REMARK VINA RESULT:    -5.018      8.540      9.797
REMARK INTER + INTRA:          -5.730
REMARK INTER:                  -5.573
REMARK INTRA:                  -0.158
REMARK UNBOUND:                -0.126
REMARK  Name = 1550473
REMARK  2 active torsions:
REMARK  status: ('A' for Active; 'I' for Inactive)
REMARK    1  A    between atoms: N_1  and  C_4
REMARK    2  A    between atoms: C_4  and  C_5
REMARK                            x       y       z     vdW  Elec       q    Type
REMARK                         _______ _______ _______ _____ _____    ______ ____
ROOT
ATOM      1  N   UNL     1     -24.570 -11.145   0.452  0.00  0.00    -0.354 N 
ATOM      2  N   UNL     1     -24.896 -12.480   2.317  0.00  0.00    -0.372 N 
ATOM      3  N   UNL     1     -23.647 -10.567   2.527  0.00  0.00    -0.372 N 
ATOM      4  C   UNL     1     -24.367 -11.387   1.754  0.00  0.00    +0.166 C 
ATOM      5  H   UNL     1     -25.100 -11.821  -0.086  0.00  0.00    +0.163 HD
ATOM      6  H   UNL     1     -24.763 -12.686   3.298  0.00  0.00    +0.159 HD
ATOM      7  H   UNL     1     -25.464 -13.130   1.787  0.00  0.00    +0.159 HD
ATOM      8  H   UNL     1     -23.215  -9.728   2.162  0.00  0.00    +0.159 HD
ATOM      9  H   UNL     1     -23.492 -10.763   3.508  0.00  0.00    +0.159 HD
ENDROOT
BRANCH   1  10
ATOM     10  C   UNL     1     -24.083  -9.956  -0.245  0.00  0.00    +0.151 C 
BRANCH  10  11
ATOM     11  C   UNL     1     -22.972 -10.354  -1.177  0.00  0.00    -0.028 A 
ATOM     12  C   UNL     1     -21.934  -9.458  -1.471  0.00  0.00    +0.005 A 
ATOM     13  C   UNL     1     -22.949 -11.628  -1.766  0.00  0.00    +0.005 A 
ATOM     14  C   UNL     1     -20.886  -9.837  -2.313  0.00  0.00    +0.000 A 
ATOM     15  C   UNL     1     -21.902 -12.003  -2.607  0.00  0.00    +0.000 A 
ATOM     16  C   UNL     1     -20.869 -11.108  -2.879  0.00  0.00    +0.000 A 
ENDBRANCH  10  11
ENDBRANCH   1  10
TORSDOF 2
ENDMDL
MODEL 6
REMARK VINA RESULT:    -4.999      9.409     10.401
REMARK INTER + INTRA:          -5.709
REMARK INTER:                  -5.542
REMARK INTRA:                  -0.167
REMARK UNBOUND:                -0.126
REMARK  Name = 1550473
REMARK  2 active torsions:
REMARK  status: ('A' for Active; 'I' for Inactive)
REMARK    1  A    between atoms: N_1  and  C_4
REMARK    2  A    between atoms: C_4  and  C_5
REMARK                            x       y       z     vdW  Elec       q    Type
REMARK                         _______ _______ _______ _____ _____    ______ ____
ROOT
ATOM      1  N   UNL     1      -8.429  -1.971  -4.187  0.00  0.00    -0.354 N 
ATOM      2  N   UNL     1      -8.051  -4.248  -4.367  0.00  0.00    -0.372 N 
ATOM      3  N   UNL     1     -10.070  -3.402  -5.055  0.00  0.00    -0.372 N 
ATOM      4  C   UNL     1      -8.855  -3.192  -4.536  0.00  0.00    +0.166 C 
ATOM      5  H   UNL     1      -7.509  -1.882  -3.772  0.00  0.00    +0.163 HD
ATOM      6  H   UNL     1      -8.343  -5.182  -4.624  0.00  0.00    +0.159 HD
ATOM      7  H   UNL     1      -7.114  -4.151  -3.994  0.00  0.00    +0.159 HD
ATOM      8  H   UNL     1     -10.727  -2.647  -5.202  0.00  0.00    +0.159 HD
ATOM      9  H   UNL     1     -10.385  -4.330  -5.307  0.00  0.00    +0.159 HD
ENDROOT
BRANCH   1  10
ATOM     10  C   UNL     1      -9.206  -0.748  -4.380  0.00  0.00    +0.151 C 
BRANCH  10  11
ATOM     11  C   UNL     1      -8.793  -0.101  -5.674  0.00  0.00    -0.028 A 
ATOM     12  C   UNL     1      -9.555  -0.285  -6.837  0.00  0.00    +0.005 A 
ATOM     13  C   UNL     1      -7.643   0.700  -5.741  0.00  0.00    +0.005 A 
ATOM     14  C   UNL     1      -9.188   0.340  -8.031  0.00  0.00    +0.000 A 
ATOM     15  C   UNL     1      -7.279   1.321  -6.936  0.00  0.00    +0.000 A 
ATOM     16  C   UNL     1      -8.053   1.143  -8.080  0.00  0.00    +0.000 A 
ENDBRANCH  10  11
ENDBRANCH   1  10
TORSDOF 2
ENDMDL
MODEL 7
REMARK VINA RESULT:    -4.894     18.397     18.653
REMARK INTER + INTRA:          -5.592
REMARK INTER:                  -5.455
REMARK INTRA:                  -0.137
REMARK UNBOUND:                -0.126
REMARK  Name = 1550473
REMARK  2 active torsions:
REMARK  status: ('A' for Active; 'I' for Inactive)
REMARK    1  A    between atoms: N_1  and  C_4
REMARK    2  A    between atoms: C_4  and  C_5
REMARK                            x       y       z     vdW  Elec       q    Type
REMARK                         _______ _______ _______ _____ _____    ______ ____
ROOT
ATOM      1  N   UNL     1     -13.309   3.690   9.299  0.00  0.00    -0.354 N 
ATOM      2  N   UNL     1     -13.511   1.547  10.155  0.00  0.00    -0.372 N 
ATOM      3  N   UNL     1     -11.551   2.692  10.485  0.00  0.00    -0.372 N 
ATOM      4  C   UNL     1     -12.786   2.658   9.974  0.00  0.00    +0.166 C 
ATOM      5  H   UNL     1     -14.240   3.589   8.911  0.00  0.00    +0.163 HD
ATOM      6  H   UNL     1     -13.145   0.753  10.663  0.00  0.00    +0.159 HD
ATOM      7  H   UNL     1     -14.459   1.467   9.806  0.00  0.00    +0.159 HD
ATOM      8  H   UNL     1     -10.950   3.499  10.378  0.00  0.00    +0.159 HD
ATOM      9  H   UNL     1     -11.162   1.904  10.986  0.00  0.00    +0.159 HD
ENDROOT
BRANCH   1  10
ATOM     10  C   UNL     1     -12.623   4.964   9.094  0.00  0.00    +0.151 C 
BRANCH  10  11
ATOM     11  C   UNL     1     -12.906   5.456   7.701  0.00  0.00    -0.028 A 
ATOM     12  C   UNL     1     -12.460   6.719   7.287  0.00  0.00    +0.005 A 
ATOM     13  C   UNL     1     -13.616   4.660   6.788  0.00  0.00    +0.005 A 
ATOM     14  C   UNL     1     -12.697   7.164   5.985  0.00  0.00    +0.000 A 
ATOM     15  C   UNL     1     -13.851   5.108   5.489  0.00  0.00    +0.000 A 
ATOM     16  C   UNL     1     -13.390   6.359   5.086  0.00  0.00    +0.000 A 
ENDBRANCH  10  11
ENDBRANCH   1  10
TORSDOF 2
ENDMDL
MODEL 8
REMARK VINA RESULT:    -4.820      9.676     10.777
REMARK INTER + INTRA:          -5.509
REMARK INTER:                  -5.372
REMARK INTRA:                  -0.137
REMARK UNBOUND:                -0.126
REMARK  Name = 1550473
REMARK  2 active torsions:
REMARK  status: ('A' for Active; 'I' for Inactive)
REMARK    1  A    between atoms: N_1  and  C_4
REMARK    2  A    between atoms: C_4  and  C_5
REMARK                            x       y       z     vdW  Elec       q    Type
REMARK                         _______ _______ _______ _____ _____    ______ ____
ROOT
ATOM      1  N   UNL     1      -8.369   0.462  -3.939  0.00  0.00    -0.354 N 
ATOM      2  N   UNL     1      -8.916   2.620  -3.300  0.00  0.00    -0.372 N 
ATOM      3  N   UNL     1      -8.860   2.106  -5.535  0.00  0.00    -0.372 N 
ATOM      4  C   UNL     1      -8.712   1.716  -4.265  0.00  0.00    +0.166 C 
ATOM      5  H   UNL     1      -8.243   0.237  -2.959  0.00  0.00    +0.163 HD
ATOM      6  H   UNL     1      -9.179   3.572  -3.515  0.00  0.00    +0.159 HD
ATOM      7  H   UNL     1      -8.835   2.380  -2.319  0.00  0.00    +0.159 HD
ATOM      8  H   UNL     1      -8.714   1.474  -6.311  0.00  0.00    +0.159 HD
ATOM      9  H   UNL     1      -9.111   3.058  -5.771  0.00  0.00    +0.159 HD
ENDROOT
BRANCH   1  10
ATOM     10  C   UNL     1      -8.176  -0.612  -4.912  0.00  0.00    +0.151 C 
BRANCH  10  11
ATOM     11  C   UNL     1      -8.869  -1.852  -4.419  0.00  0.00    -0.028 A 
ATOM     12  C   UNL     1      -8.255  -3.107  -4.541  0.00  0.00    +0.005 A 
ATOM     13  C   UNL     1     -10.137  -1.778  -3.823  0.00  0.00    +0.005 A 
ATOM     14  C   UNL     1      -8.885  -4.256  -4.056  0.00  0.00    +0.000 A 
ATOM     15  C   UNL     1     -10.764  -2.927  -3.340  0.00  0.00    +0.000 A 
ATOM     16  C   UNL     1     -10.136  -4.165  -3.455  0.00  0.00    +0.000 A 
ENDBRANCH  10  11
ENDBRANCH   1  10
TORSDOF 2
ENDMDL
MODEL 9
REMARK VINA RESULT:    -4.696      9.995     11.291
REMARK INTER + INTRA:          -5.371
REMARK INTER:                  -5.191
REMARK INTRA:                  -0.180
REMARK UNBOUND:                -0.126
REMARK  Name = 1550473
REMARK  2 active torsions:
REMARK  status: ('A' for Active; 'I' for Inactive)
REMARK    1  A    between atoms: N_1  and  C_4
REMARK    2  A    between atoms: C_4  and  C_5
REMARK                            x       y       z     vdW  Elec       q    Type
REMARK                         _______ _______ _______ _____ _____    ______ ____
ROOT
ATOM      1  N   UNL     1      -9.854   1.877  -5.503  0.00  0.00    -0.354 N 
ATOM      2  N   UNL     1     -10.856   3.330  -4.004  0.00  0.00    -0.372 N 
ATOM      3  N   UNL     1      -8.812   2.430  -3.478  0.00  0.00    -0.372 N 
ATOM      4  C   UNL     1      -9.832   2.535  -4.336  0.00  0.00    +0.166 C 
ATOM      5  H   UNL     1     -10.670   1.976  -6.096  0.00  0.00    +0.163 HD
ATOM      6  H   UNL     1     -10.866   3.842  -3.132  0.00  0.00    +0.159 HD
ATOM      7  H   UNL     1     -11.649   3.463  -4.619  0.00  0.00    +0.159 HD
ATOM      8  H   UNL     1      -8.012   1.841  -3.667  0.00  0.00    +0.159 HD
ATOM      9  H   UNL     1      -8.809   2.925  -2.595  0.00  0.00    +0.159 HD
ENDROOT
BRANCH   1  10
ATOM     10  C   UNL     1      -8.765   1.028  -5.983  0.00  0.00    +0.151 C 
BRANCH  10  11
ATOM     11  C   UNL     1      -9.093  -0.409  -5.684  0.00  0.00    -0.028 A 
ATOM     12  C   UNL     1     -10.139  -1.055  -6.359  0.00  0.00    +0.005 A 
ATOM     13  C   UNL     1      -8.358  -1.131  -4.731  0.00  0.00    +0.005 A 
ATOM     14  C   UNL     1     -10.424  -2.399  -6.104  0.00  0.00    +0.000 A 
ATOM     15  C   UNL     1      -8.647  -2.471  -4.478  0.00  0.00    +0.000 A 
ATOM     16  C   UNL     1      -9.679  -3.106  -5.166  0.00  0.00    +0.000 A 
ENDBRANCH  10  11
ENDBRANCH   1  10
TORSDOF 2
ENDMDL
