MODEL 1
REMARK VINA RESULT:    -5.858      0.000      0.000
REMARK INTER + INTRA:          -6.723
REMARK INTER:                  -6.543
REMARK INTRA:                  -0.180
REMARK UNBOUND:                -0.180
REMARK  Name = 1550473
REMARK  2 active torsions:
REMARK  status: ('A' for Active; 'I' for Inactive)
REMARK    1  A    between atoms: N_1  and  C_4
REMARK    2  A    between atoms: C_4  and  C_5
REMARK                            x       y       z     vdW  Elec       q    Type
REMARK                         _______ _______ _______ _____ _____    ______ ____
ROOT
ATOM      1  N   UNL     1      -1.789   5.948 -10.354  0.00  0.00    -0.354 N 
ATOM      2  N   UNL     1      -3.233   5.060  -8.775  0.00  0.00    -0.372 N 
ATOM      3  N   UNL     1      -2.776   7.308  -8.720  0.00  0.00    -0.372 N 
ATOM      4  C   UNL     1      -2.590   6.114  -9.293  0.00  0.00    +0.166 C 
ATOM      5  H   UNL     1      -1.666   5.012 -10.723  0.00  0.00    +0.163 HD
ATOM      6  H   UNL     1      -3.846   5.155  -7.977  0.00  0.00    +0.159 HD
ATOM      7  H   UNL     1      -3.144   4.133  -9.174  0.00  0.00    +0.159 HD
ATOM      8  H   UNL     1      -2.316   8.142  -9.059  0.00  0.00    +0.159 HD
ATOM      9  H   UNL     1      -3.377   7.421  -7.913  0.00  0.00    +0.159 HD
ENDROOT
BRANCH   1  10
ATOM     10  C   UNL     1      -1.086   7.040 -11.026  0.00  0.00    +0.151 C 
BRANCH  10  11
ATOM     11  C   UNL     1      -1.871   7.457 -12.239  0.00  0.00    -0.028 A 
ATOM     12  C   UNL     1      -2.300   8.784 -12.388  0.00  0.00    +0.005 A 
ATOM     13  C   UNL     1      -2.185   6.531 -13.246  0.00  0.00    +0.005 A 
ATOM     14  C   UNL     1      -3.004   9.178 -13.528  0.00  0.00    +0.000 A 
ATOM     15  C   UNL     1      -2.888   6.928 -14.382  0.00  0.00    +0.000 A 
ATOM     16  C   UNL     1      -3.295   8.253 -14.525  0.00  0.00    +0.000 A 
ENDBRANCH  10  11
ENDBRANCH   1  10
TORSDOF 2
ENDMDL
MODEL 2
REMARK VINA RESULT:    -5.441     12.681     14.389
REMARK INTER + INTRA:          -6.257
REMARK INTER:                  -6.114
REMARK INTRA:                  -0.143
REMARK UNBOUND:                -0.180
REMARK  Name = 1550473
REMARK  2 active torsions:
REMARK  status: ('A' for Active; 'I' for Inactive)
REMARK    1  A    between atoms: N_1  and  C_4
REMARK    2  A    between atoms: C_4  and  C_5
REMARK                            x       y       z     vdW  Elec       q    Type
REMARK                         _______ _______ _______ _____ _____    ______ ____
ROOT
ATOM      1  N   UNL     1      -1.663   0.979 -23.291  0.00  0.00    -0.354 N 
ATOM      2  N   UNL     1      -1.268   2.979 -22.193  0.00  0.00    -0.372 N 
ATOM      3  N   UNL     1       0.473   1.944 -23.271  0.00  0.00    -0.372 N 
ATOM      4  C   UNL     1      -0.819   1.953 -22.926  0.00  0.00    +0.166 C 
ATOM      5  H   UNL     1      -2.623   1.029 -22.973  0.00  0.00    +0.163 HD
ATOM      6  H   UNL     1      -0.656   3.731 -21.905  0.00  0.00    +0.159 HD
ATOM      7  H   UNL     1      -2.239   3.051 -21.914  0.00  0.00    +0.159 HD
ATOM      8  H   UNL     1       0.875   1.195 -23.818  0.00  0.00    +0.159 HD
ATOM      9  H   UNL     1       1.104   2.681 -22.983  0.00  0.00    +0.159 HD
ENDROOT
BRANCH   1  10
ATOM     10  C   UNL     1      -1.287  -0.154 -24.135  0.00  0.00    +0.151 C 
BRANCH  10  11
ATOM     11  C   UNL     1      -1.716  -1.430 -23.464  0.00  0.00    -0.028 A 
ATOM     12  C   UNL     1      -1.460  -1.639 -22.101  0.00  0.00    +0.005 A 
ATOM     13  C   UNL     1      -2.386  -2.431 -24.185  0.00  0.00    +0.005 A 
ATOM     14  C   UNL     1      -1.885  -2.811 -21.470  0.00  0.00    +0.000 A 
ATOM     15  C   UNL     1      -2.808  -3.600 -23.552  0.00  0.00    +0.000 A 
ATOM     16  C   UNL     1      -2.560  -3.788 -22.194  0.00  0.00    +0.000 A 
ENDBRANCH  10  11
ENDBRANCH   1  10
TORSDOF 2
ENDMDL
MODEL 3
REMARK VINA RESULT:    -5.397      2.501      3.504
REMARK INTER + INTRA:          -6.208
REMARK INTER:                  -6.068
REMARK INTRA:                  -0.140
REMARK UNBOUND:                -0.180
REMARK  Name = 1550473
REMARK  2 active torsions:
REMARK  status: ('A' for Active; 'I' for Inactive)
REMARK    1  A    between atoms: N_1  and  C_4
REMARK    2  A    between atoms: C_4  and  C_5
REMARK                            x       y       z     vdW  Elec       q    Type
REMARK                         _______ _______ _______ _____ _____    ______ ____
ROOT
ATOM      1  N   UNL     1      -1.890   6.297 -10.968  0.00  0.00    -0.354 N 
ATOM      2  N   UNL     1      -2.983   5.491  -9.091  0.00  0.00    -0.372 N 
ATOM      3  N   UNL     1      -2.057   7.590  -9.020  0.00  0.00    -0.372 N 
ATOM      4  C   UNL     1      -2.302   6.467  -9.704  0.00  0.00    +0.166 C 
ATOM      5  H   UNL     1      -2.081   5.411 -11.421  0.00  0.00    +0.163 HD
ATOM      6  H   UNL     1      -3.309   5.592  -8.140  0.00  0.00    +0.159 HD
ATOM      7  H   UNL     1      -3.212   4.625  -9.563  0.00  0.00    +0.159 HD
ATOM      8  H   UNL     1      -1.543   8.362  -9.424  0.00  0.00    +0.159 HD
ATOM      9  H   UNL     1      -2.366   7.705  -8.063  0.00  0.00    +0.159 HD
ENDROOT
BRANCH   1  10
ATOM     10  C   UNL     1      -1.188   7.319 -11.744  0.00  0.00    +0.151 C 
BRANCH  10  11
ATOM     11  C   UNL     1       0.025   6.702 -12.384  0.00  0.00    -0.028 A 
ATOM     12  C   UNL     1       0.682   5.625 -11.773  0.00  0.00    +0.005 A 
ATOM     13  C   UNL     1       0.518   7.188 -13.605  0.00  0.00    +0.005 A 
ATOM     14  C   UNL     1       1.791   5.033 -12.382  0.00  0.00    +0.000 A 
ATOM     15  C   UNL     1       1.626   6.594 -14.209  0.00  0.00    +0.000 A 
ATOM     16  C   UNL     1       2.261   5.515 -13.599  0.00  0.00    +0.000 A 
ENDBRANCH  10  11
ENDBRANCH   1  10
TORSDOF 2
ENDMDL
MODEL 4
REMARK VINA RESULT:    -5.185      2.239      3.039
REMARK INTER + INTRA:          -5.972
REMARK INTER:                  -5.848
REMARK INTRA:                  -0.124
REMARK UNBOUND:                -0.180
REMARK  Name = 1550473
REMARK  2 active torsions:
REMARK  status: ('A' for Active; 'I' for Inactive)
REMARK    1  A    between atoms: N_1  and  C_4
REMARK    2  A    between atoms: C_4  and  C_5
REMARK                            x       y       z     vdW  Elec       q    Type
REMARK                         _______ _______ _______ _____ _____    ______ ____
ROOT
ATOM      1  N   UNL     1      -1.666   9.501  -9.780  0.00  0.00    -0.354 N 
ATOM      2  N   UNL     1      -1.141   9.622  -7.527  0.00  0.00    -0.372 N 
ATOM      3  N   UNL     1      -2.111  11.439  -8.540  0.00  0.00    -0.372 N 
ATOM      4  C   UNL     1      -1.644  10.189  -8.631  0.00  0.00    +0.166 C 
ATOM      5  H   UNL     1      -1.269   8.568  -9.790  0.00  0.00    +0.163 HD
ATOM      6  H   UNL     1      -1.114  10.116  -6.645  0.00  0.00    +0.159 HD
ATOM      7  H   UNL     1      -0.787   8.673  -7.530  0.00  0.00    +0.159 HD
ATOM      8  H   UNL     1      -2.497  11.926  -9.338  0.00  0.00    +0.159 HD
ATOM      9  H   UNL     1      -2.081  11.954  -7.669  0.00  0.00    +0.159 HD
ENDROOT
BRANCH   1  10
ATOM     10  C   UNL     1      -2.241  10.007 -11.025  0.00  0.00    +0.151 C 
BRANCH  10  11
ATOM     11  C   UNL     1      -2.341   8.878 -12.014  0.00  0.00    -0.028 A 
ATOM     12  C   UNL     1      -2.896   9.092 -13.285  0.00  0.00    +0.005 A 
ATOM     13  C   UNL     1      -1.879   7.594 -11.689  0.00  0.00    +0.005 A 
ATOM     14  C   UNL     1      -2.962   8.052 -14.214  0.00  0.00    +0.000 A 
ATOM     15  C   UNL     1      -1.947   6.557 -12.620  0.00  0.00    +0.000 A 
ATOM     16  C   UNL     1      -2.487   6.787 -13.883  0.00  0.00    +0.000 A 
ENDBRANCH  10  11
ENDBRANCH   1  10
TORSDOF 2
ENDMDL
MODEL 5
REMARK VINA RESULT:    -5.150     13.408     14.694
REMARK INTER + INTRA:          -5.932
REMARK INTER:                  -5.799
REMARK INTRA:                  -0.134
REMARK UNBOUND:                -0.180
REMARK  Name = 1550473
REMARK  2 active torsions:
REMARK  status: ('A' for Active; 'I' for Inactive)
REMARK    1  A    between atoms: N_1  and  C_4
REMARK    2  A    between atoms: C_4  and  C_5
REMARK                            x       y       z     vdW  Elec       q    Type
REMARK                         _______ _______ _______ _____ _____    ______ ____
ROOT
ATOM      1  N   UNL     1      -1.923  -2.984 -23.365  0.00  0.00    -0.354 N 
ATOM      2  N   UNL     1      -3.187  -4.722 -22.502  0.00  0.00    -0.372 N 
ATOM      3  N   UNL     1      -0.972  -5.090 -22.975  0.00  0.00    -0.372 N 
ATOM      4  C   UNL     1      -2.016  -4.255 -22.954  0.00  0.00    +0.166 C 
ATOM      5  H   UNL     1      -2.759  -2.411 -23.352  0.00  0.00    +0.163 HD
ATOM      6  H   UNL     1      -3.287  -5.676 -22.182  0.00  0.00    +0.159 HD
ATOM      7  H   UNL     1      -4.010  -4.134 -22.447  0.00  0.00    +0.159 HD
ATOM      8  H   UNL     1      -0.062  -4.801 -23.309  0.00  0.00    +0.159 HD
ATOM      9  H   UNL     1      -1.055  -6.051 -22.669  0.00  0.00    +0.159 HD
ENDROOT
BRANCH   1  10
ATOM     10  C   UNL     1      -0.682  -2.362 -23.824  0.00  0.00    +0.151 C 
BRANCH  10  11
ATOM     11  C   UNL     1      -0.675  -0.916 -23.411  0.00  0.00    -0.028 A 
ATOM     12  C   UNL     1       0.347  -0.057 -23.842  0.00  0.00    +0.005 A 
ATOM     13  C   UNL     1      -1.691  -0.396 -22.595  0.00  0.00    +0.005 A 
ATOM     14  C   UNL     1       0.337   1.293 -23.484  0.00  0.00    +0.000 A 
ATOM     15  C   UNL     1      -1.697   0.952 -22.239  0.00  0.00    +0.000 A 
ATOM     16  C   UNL     1      -0.684   1.797 -22.686  0.00  0.00    +0.000 A 
ENDBRANCH  10  11
ENDBRANCH   1  10
TORSDOF 2
ENDMDL
MODEL 6
REMARK VINA RESULT:    -5.128     14.239     15.564
REMARK INTER + INTRA:          -5.908
REMARK INTER:                  -5.734
REMARK INTRA:                  -0.174
REMARK UNBOUND:                -0.180
REMARK  Name = 1550473
REMARK  2 active torsions:
REMARK  status: ('A' for Active; 'I' for Inactive)
REMARK    1  A    between atoms: N_1  and  C_4
REMARK    2  A    between atoms: C_4  and  C_5
REMARK                            x       y       z     vdW  Elec       q    Type
REMARK                         _______ _______ _______ _____ _____    ______ ____
ROOT
ATOM      1  N   UNL     1      -1.509  -4.399 -23.558  0.00  0.00    -0.354 N 
ATOM      2  N   UNL     1      -2.606  -6.001 -22.296  0.00  0.00    -0.372 N 
ATOM      3  N   UNL     1      -3.789  -4.836 -23.879  0.00  0.00    -0.372 N 
ATOM      4  C   UNL     1      -2.630  -5.067 -23.254  0.00  0.00    +0.166 C 
ATOM      5  H   UNL     1      -0.670  -4.599 -23.027  0.00  0.00    +0.163 HD
ATOM      6  H   UNL     1      -3.435  -6.524 -22.047  0.00  0.00    +0.159 HD
ATOM      7  H   UNL     1      -1.755  -6.232 -21.798  0.00  0.00    +0.159 HD
ATOM      8  H   UNL     1      -3.875  -4.140 -24.608  0.00  0.00    +0.159 HD
ATOM      9  H   UNL     1      -4.632  -5.340 -23.636  0.00  0.00    +0.159 HD
ENDROOT
BRANCH   1  10
ATOM     10  C   UNL     1      -1.416  -3.400 -24.622  0.00  0.00    +0.151 C 
BRANCH  10  11
ATOM     11  C   UNL     1      -1.261  -2.038 -24.005  0.00  0.00    -0.028 A 
ATOM     12  C   UNL     1      -2.388  -1.303 -23.609  0.00  0.00    +0.005 A 
ATOM     13  C   UNL     1       0.011  -1.478 -23.808  0.00  0.00    +0.005 A 
ATOM     14  C   UNL     1      -2.243  -0.050 -23.008  0.00  0.00    +0.000 A 
ATOM     15  C   UNL     1       0.151  -0.227 -23.208  0.00  0.00    +0.000 A 
ATOM     16  C   UNL     1      -0.976   0.486 -22.806  0.00  0.00    +0.000 A 
ENDBRANCH  10  11
ENDBRANCH   1  10
TORSDOF 2
ENDMDL
MODEL 7
REMARK VINA RESULT:    -5.126     13.473     14.607
REMARK INTER + INTRA:          -5.905
REMARK INTER:                  -5.737
REMARK INTRA:                  -0.169
REMARK UNBOUND:                -0.180
REMARK  Name = 1550473
REMARK  2 active torsions:
REMARK  status: ('A' for Active; 'I' for Inactive)
REMARK    1  A    between atoms: N_1  and  C_4
REMARK    2  A    between atoms: C_4  and  C_5
REMARK                            x       y       z     vdW  Elec       q    Type
REMARK                         _______ _______ _______ _____ _____    ______ ____
ROOT
ATOM      1  N   UNL     1      -2.216  -2.574 -23.513  0.00  0.00    -0.354 N 
ATOM      2  N   UNL     1      -1.403  -4.655 -22.903  0.00  0.00    -0.372 N 
ATOM      3  N   UNL     1      -1.813  -3.101 -21.266  0.00  0.00    -0.372 N 
ATOM      4  C   UNL     1      -1.816  -3.428 -22.562  0.00  0.00    +0.166 C 
ATOM      5  H   UNL     1      -2.166  -2.872 -24.481  0.00  0.00    +0.163 HD
ATOM      6  H   UNL     1      -1.099  -5.322 -22.208  0.00  0.00    +0.159 HD
ATOM      7  H   UNL     1      -1.398  -4.966 -23.867  0.00  0.00    +0.159 HD
ATOM      8  H   UNL     1      -2.107  -2.188 -20.943  0.00  0.00    +0.159 HD
ATOM      9  H   UNL     1      -1.501  -3.751 -20.556  0.00  0.00    +0.159 HD
ENDROOT
BRANCH   1  10
ATOM     10  C   UNL     1      -2.735  -1.234 -23.243  0.00  0.00    +0.151 C 
BRANCH  10  11
ATOM     11  C   UNL     1      -1.744  -0.215 -23.736  0.00  0.00    -0.028 A 
ATOM     12  C   UNL     1      -1.736   0.178 -25.082  0.00  0.00    +0.005 A 
ATOM     13  C   UNL     1      -0.814   0.365 -22.860  0.00  0.00    +0.005 A 
ATOM     14  C   UNL     1      -0.836   1.146 -25.534  0.00  0.00    +0.000 A 
ATOM     15  C   UNL     1       0.084   1.331 -23.315  0.00  0.00    +0.000 A 
ATOM     16  C   UNL     1       0.071   1.722 -24.651  0.00  0.00    +0.000 A 
ENDBRANCH  10  11
ENDBRANCH   1  10
TORSDOF 2
ENDMDL
MODEL 8
REMARK VINA RESULT:    -5.096      1.940      3.039
REMARK INTER + INTRA:          -5.872
REMARK INTER:                  -5.780
REMARK INTRA:                  -0.093
REMARK UNBOUND:                -0.180
REMARK  Name = 1550473
REMARK  2 active torsions:
REMARK  status: ('A' for Active; 'I' for Inactive)
REMARK    1  A    between atoms: N_1  and  C_4
REMARK    2  A    between atoms: C_4  and  C_5
REMARK                            x       y       z     vdW  Elec       q    Type
REMARK                         _______ _______ _______ _____ _____    ______ ____
ROOT
ATOM      1  N   UNL     1      -2.903   8.444  -8.658  0.00  0.00    -0.354 N 
ATOM      2  N   UNL     1      -2.992  10.461  -7.524  0.00  0.00    -0.372 N 
ATOM      3  N   UNL     1      -0.971   9.394  -7.732  0.00  0.00    -0.372 N 
ATOM      4  C   UNL     1      -2.285   9.419  -7.978  0.00  0.00    +0.166 C 
ATOM      5  H   UNL     1      -3.906   8.507  -8.786  0.00  0.00    +0.163 HD
ATOM      6  H   UNL     1      -2.553  11.214  -7.011  0.00  0.00    +0.159 HD
ATOM      7  H   UNL     1      -3.987  10.545  -7.692  0.00  0.00    +0.159 HD
ATOM      8  H   UNL     1      -0.383   8.633  -8.043  0.00  0.00    +0.159 HD
ATOM      9  H   UNL     1      -0.516  10.132  -7.210  0.00  0.00    +0.159 HD
ENDROOT
BRANCH   1  10
ATOM     10  C   UNL     1      -2.216   7.293  -9.242  0.00  0.00    +0.151 C 
BRANCH  10  11
ATOM     11  C   UNL     1      -2.199   7.439 -10.739  0.00  0.00    -0.028 A 
ATOM     12  C   UNL     1      -1.682   6.417 -11.548  0.00  0.00    +0.005 A 
ATOM     13  C   UNL     1      -2.702   8.596 -11.355  0.00  0.00    +0.005 A 
ATOM     14  C   UNL     1      -1.693   6.539 -12.940  0.00  0.00    +0.000 A 
ATOM     15  C   UNL     1      -2.710   8.714 -12.744  0.00  0.00    +0.000 A 
ATOM     16  C   UNL     1      -2.208   7.685 -13.536  0.00  0.00    +0.000 A 
ENDBRANCH  10  11
ENDBRANCH   1  10
TORSDOF 2
ENDMDL
MODEL 9
REMARK VINA RESULT:    -4.822      3.613      4.577
REMARK INTER + INTRA:          -5.567
REMARK INTER:                  -5.431
REMARK INTRA:                  -0.135
REMARK UNBOUND:                -0.180
REMARK  Name = 1550473
REMARK  2 active torsions:
REMARK  status: ('A' for Active; 'I' for Inactive)
REMARK    1  A    between atoms: N_1  and  C_4
REMARK    2  A    between atoms: C_4  and  C_5
REMARK                            x       y       z     vdW  Elec       q    Type
REMARK                         _______ _______ _______ _____ _____    ______ ____
ROOT
ATOM      1  N   UNL     1      -0.012   7.461 -11.409  0.00  0.00    -0.354 N 
ATOM      2  N   UNL     1      -0.579   7.389  -9.165  0.00  0.00    -0.372 N 
ATOM      3  N   UNL     1      -1.844   6.202 -10.667  0.00  0.00    -0.372 N 
ATOM      4  C   UNL     1      -0.810   7.017 -10.430  0.00  0.00    +0.166 C 
ATOM      5  H   UNL     1       0.737   8.101 -11.167  0.00  0.00    +0.163 HD
ATOM      6  H   UNL     1      -1.163   7.067  -8.404  0.00  0.00    +0.159 HD
ATOM      7  H   UNL     1       0.197   7.992  -8.920  0.00  0.00    +0.159 HD
ATOM      8  H   UNL     1      -2.075   5.889 -11.601  0.00  0.00    +0.159 HD
ATOM      9  H   UNL     1      -2.446   5.878  -9.921  0.00  0.00    +0.159 HD
ENDROOT
BRANCH   1  10
ATOM     10  C   UNL     1      -0.144   7.072 -12.812  0.00  0.00    +0.151 C 
BRANCH  10  11
ATOM     11  C   UNL     1       1.152   6.471 -13.280  0.00  0.00    -0.028 A 
ATOM     12  C   UNL     1       1.681   6.806 -14.535  0.00  0.00    +0.005 A 
ATOM     13  C   UNL     1       1.860   5.569 -12.469  0.00  0.00    +0.005 A 
ATOM     14  C   UNL     1       2.900   6.270 -14.957  0.00  0.00    +0.000 A 
ATOM     15  C   UNL     1       3.076   5.036 -12.895  0.00  0.00    +0.000 A 
ATOM     16  C   UNL     1       3.597   5.388 -14.137  0.00  0.00    +0.000 A 
ENDBRANCH  10  11
ENDBRANCH   1  10
TORSDOF 2
ENDMDL
