MODEL 1
REMARK VINA RESULT:    -4.957      0.000      0.000
REMARK INTER + INTRA:          -5.558
REMARK INTER:                  -5.536
REMARK INTRA:                  -0.022
REMARK UNBOUND:                -0.022
REMARK  Name = 1550473
REMARK  2 active torsions:
REMARK  status: ('A' for Active; 'I' for Inactive)
REMARK    1  A    between atoms: N_1  and  C_4
REMARK    2  A    between atoms: C_4  and  C_5
REMARK                            x       y       z     vdW  Elec       q    Type
REMARK                         _______ _______ _______ _____ _____    ______ ____
ROOT
ATOM      1  N   UNL     1       2.240   4.070  16.829  0.00  0.00    -0.354 N 
ATOM      2  N   UNL     1       3.776   2.696  15.773  0.00  0.00    -0.372 N 
ATOM      3  N   UNL     1       2.150   3.715  14.515  0.00  0.00    -0.372 N 
ATOM      4  C   UNL     1       2.710   3.503  15.710  0.00  0.00    +0.166 C 
ATOM      5  H   UNL     1       2.691   3.845  17.709  0.00  0.00    +0.163 HD
ATOM      6  H   UNL     1       4.156   2.257  14.945  0.00  0.00    +0.159 HD
ATOM      7  H   UNL     1       4.253   2.509  16.647  0.00  0.00    +0.159 HD
ATOM      8  H   UNL     1       1.340   4.310  14.401  0.00  0.00    +0.159 HD
ATOM      9  H   UNL     1       2.509   3.276  13.676  0.00  0.00    +0.159 HD
ENDROOT
BRANCH   1  10
ATOM     10  C   UNL     1       1.119   5.007  16.862  0.00  0.00    +0.151 C 
BRANCH  10  11
ATOM     11  C   UNL     1       1.651   6.405  17.014  0.00  0.00    -0.028 A 
ATOM     12  C   UNL     1       0.807   7.448  17.423  0.00  0.00    +0.005 A 
ATOM     13  C   UNL     1       3.000   6.693  16.756  0.00  0.00    +0.005 A 
ATOM     14  C   UNL     1       1.308   8.741  17.593  0.00  0.00    +0.000 A 
ATOM     15  C   UNL     1       3.496   7.985  16.926  0.00  0.00    +0.000 A 
ATOM     16  C   UNL     1       2.650   9.008  17.347  0.00  0.00    +0.000 A 
ENDBRANCH  10  11
ENDBRANCH   1  10
TORSDOF 2
ENDMDL
MODEL 2
REMARK VINA RESULT:    -4.511     21.496     23.008
REMARK INTER + INTRA:          -5.060
REMARK INTER:                  -4.895
REMARK INTRA:                  -0.165
REMARK UNBOUND:                -0.022
REMARK  Name = 1550473
REMARK  2 active torsions:
REMARK  status: ('A' for Active; 'I' for Inactive)
REMARK    1  A    between atoms: N_1  and  C_4
REMARK    2  A    between atoms: C_4  and  C_5
REMARK                            x       y       z     vdW  Elec       q    Type
REMARK                         _______ _______ _______ _____ _____    ______ ____
ROOT
ATOM      1  N   UNL     1      -1.122 -11.996  -0.191  0.00  0.00    -0.354 N 
ATOM      2  N   UNL     1      -0.249 -12.047  -2.336  0.00  0.00    -0.372 N 
ATOM      3  N   UNL     1       1.122 -11.450  -0.595  0.00  0.00    -0.372 N 
ATOM      4  C   UNL     1      -0.086 -11.830  -1.025  0.00  0.00    +0.166 C 
ATOM      5  H   UNL     1      -2.019 -12.255  -0.584  0.00  0.00    +0.163 HD
ATOM      6  H   UNL     1       0.515 -11.933  -2.989  0.00  0.00    +0.159 HD
ATOM      7  H   UNL     1      -1.135 -12.351  -2.720  0.00  0.00    +0.159 HD
ATOM      8  H   UNL     1       1.308 -11.265   0.382  0.00  0.00    +0.159 HD
ATOM      9  H   UNL     1       1.895 -11.320  -1.234  0.00  0.00    +0.159 HD
ENDROOT
BRANCH   1  10
ATOM     10  C   UNL     1      -1.037 -11.837   1.260  0.00  0.00    +0.151 C 
BRANCH  10  11
ATOM     11  C   UNL     1      -1.449 -10.438   1.625  0.00  0.00    -0.028 A 
ATOM     12  C   UNL     1      -2.795 -10.050   1.551  0.00  0.00    +0.005 A 
ATOM     13  C   UNL     1      -0.499  -9.497   2.053  0.00  0.00    +0.005 A 
ATOM     14  C   UNL     1      -3.182  -8.759   1.920  0.00  0.00    +0.000 A 
ATOM     15  C   UNL     1      -0.890  -8.209   2.419  0.00  0.00    +0.000 A 
ATOM     16  C   UNL     1      -2.232  -7.841   2.355  0.00  0.00    +0.000 A 
ENDBRANCH  10  11
ENDBRANCH   1  10
TORSDOF 2
ENDMDL
MODEL 3
REMARK VINA RESULT:    -4.328     31.775     33.491
REMARK INTER + INTRA:          -4.856
REMARK INTER:                  -4.742
REMARK INTRA:                  -0.114
REMARK UNBOUND:                -0.022
REMARK  Name = 1550473
REMARK  2 active torsions:
REMARK  status: ('A' for Active; 'I' for Inactive)
REMARK    1  A    between atoms: N_1  and  C_4
REMARK    2  A    between atoms: C_4  and  C_5
REMARK                            x       y       z     vdW  Elec       q    Type
REMARK                         _______ _______ _______ _____ _____    ______ ____
ROOT
ATOM      1  N   UNL     1      -4.366 -24.263  32.867  0.00  0.00    -0.354 N 
ATOM      2  N   UNL     1      -3.980 -25.982  34.370  0.00  0.00    -0.372 N 
ATOM      3  N   UNL     1      -5.272 -24.203  35.027  0.00  0.00    -0.372 N 
ATOM      4  C   UNL     1      -4.543 -24.803  34.080  0.00  0.00    +0.166 C 
ATOM      5  H   UNL     1      -3.777 -24.753  32.203  0.00  0.00    +0.163 HD
ATOM      6  H   UNL     1      -4.099 -26.416  35.276  0.00  0.00    +0.159 HD
ATOM      7  H   UNL     1      -3.430 -26.492  33.690  0.00  0.00    +0.159 HD
ATOM      8  H   UNL     1      -5.719 -23.309  34.873  0.00  0.00    +0.159 HD
ATOM      9  H   UNL     1      -5.393 -24.616  35.943  0.00  0.00    +0.159 HD
ENDROOT
BRANCH   1  10
ATOM     10  C   UNL     1      -4.980 -23.010  32.431  0.00  0.00    +0.151 C 
BRANCH  10  11
ATOM     11  C   UNL     1      -4.207 -22.463  31.264  0.00  0.00    -0.028 A 
ATOM     12  C   UNL     1      -4.046 -21.079  31.101  0.00  0.00    +0.005 A 
ATOM     13  C   UNL     1      -3.627 -23.324  30.319  0.00  0.00    +0.005 A 
ATOM     14  C   UNL     1      -3.302 -20.572  30.033  0.00  0.00    +0.000 A 
ATOM     15  C   UNL     1      -2.886 -22.814  29.253  0.00  0.00    +0.000 A 
ATOM     16  C   UNL     1      -2.722 -21.438  29.112  0.00  0.00    +0.000 A 
ENDBRANCH  10  11
ENDBRANCH   1  10
TORSDOF 2
ENDMDL
MODEL 4
REMARK VINA RESULT:    -4.326     36.494     37.158
REMARK INTER + INTRA:          -4.854
REMARK INTER:                  -4.737
REMARK INTRA:                  -0.117
REMARK UNBOUND:                -0.022
REMARK  Name = 1550473
REMARK  2 active torsions:
REMARK  status: ('A' for Active; 'I' for Inactive)
REMARK    1  A    between atoms: N_1  and  C_4
REMARK    2  A    between atoms: C_4  and  C_5
REMARK                            x       y       z     vdW  Elec       q    Type
REMARK                         _______ _______ _______ _____ _____    ______ ____
ROOT
ATOM      1  N   UNL     1       4.686 -31.571  16.544  0.00  0.00    -0.354 N 
ATOM      2  N   UNL     1       4.599 -32.614  14.478  0.00  0.00    -0.372 N 
ATOM      3  N   UNL     1       6.648 -32.163  15.407  0.00  0.00    -0.372 N 
ATOM      4  C   UNL     1       5.315 -32.109  15.490  0.00  0.00    +0.166 C 
ATOM      5  H   UNL     1       3.673 -31.533  16.533  0.00  0.00    +0.163 HD
ATOM      6  H   UNL     1       5.045 -33.030  13.671  0.00  0.00    +0.159 HD
ATOM      7  H   UNL     1       3.587 -32.617  14.491  0.00  0.00    +0.159 HD
ATOM      8  H   UNL     1       7.245 -31.794  16.135  0.00  0.00    +0.159 HD
ATOM      9  H   UNL     1       7.113 -32.564  14.603  0.00  0.00    +0.159 HD
ENDROOT
BRANCH   1  10
ATOM     10  C   UNL     1       5.371 -31.042  17.722  0.00  0.00    +0.151 C 
BRANCH  10  11
ATOM     11  C   UNL     1       4.349 -30.685  18.766  0.00  0.00    -0.028 A 
ATOM     12  C   UNL     1       4.696 -30.666  20.125  0.00  0.00    +0.005 A 
ATOM     13  C   UNL     1       3.034 -30.358  18.401  0.00  0.00    +0.005 A 
ATOM     14  C   UNL     1       3.755 -30.304  21.092  0.00  0.00    +0.000 A 
ATOM     15  C   UNL     1       2.097 -29.999  19.370  0.00  0.00    +0.000 A 
ATOM     16  C   UNL     1       2.458 -29.970  20.715  0.00  0.00    +0.000 A 
ENDBRANCH  10  11
ENDBRANCH   1  10
TORSDOF 2
ENDMDL
MODEL 5
REMARK VINA RESULT:    -4.288     17.496     19.172
REMARK INTER + INTRA:          -4.812
REMARK INTER:                  -4.665
REMARK INTRA:                  -0.147
REMARK UNBOUND:                -0.022
REMARK  Name = 1550473
REMARK  2 active torsions:
REMARK  status: ('A' for Active; 'I' for Inactive)
REMARK    1  A    between atoms: N_1  and  C_4
REMARK    2  A    between atoms: C_4  and  C_5
REMARK                            x       y       z     vdW  Elec       q    Type
REMARK                         _______ _______ _______ _____ _____    ______ ____
ROOT
ATOM      1  N   UNL     1      -6.530  -9.738  16.152  0.00  0.00    -0.354 N 
ATOM      2  N   UNL     1      -4.579  -8.875  15.250  0.00  0.00    -0.372 N 
ATOM      3  N   UNL     1      -4.851 -11.152  15.332  0.00  0.00    -0.372 N 
ATOM      4  C   UNL     1      -5.332  -9.930  15.584  0.00  0.00    +0.166 C 
ATOM      5  H   UNL     1      -6.824  -8.787  16.344  0.00  0.00    +0.163 HD
ATOM      6  H   UNL     1      -3.672  -8.989  14.817  0.00  0.00    +0.159 HD
ATOM      7  H   UNL     1      -4.896  -7.925  15.401  0.00  0.00    +0.159 HD
ATOM      8  H   UNL     1      -5.367 -11.990  15.566  0.00  0.00    +0.159 HD
ATOM      9  H   UNL     1      -3.940 -11.287  14.910  0.00  0.00    +0.159 HD
ENDROOT
BRANCH   1  10
ATOM     10  C   UNL     1      -7.450 -10.818  16.505  0.00  0.00    +0.151 C 
BRANCH  10  11
ATOM     11  C   UNL     1      -7.529 -10.926  18.003  0.00  0.00    -0.028 A 
ATOM     12  C   UNL     1      -7.100  -9.868  18.817  0.00  0.00    +0.005 A 
ATOM     13  C   UNL     1      -8.037 -12.083  18.614  0.00  0.00    +0.005 A 
ATOM     14  C   UNL     1      -7.201  -9.956  20.207  0.00  0.00    +0.000 A 
ATOM     15  C   UNL     1      -8.136 -12.168  20.002  0.00  0.00    +0.000 A 
ATOM     16  C   UNL     1      -7.720 -11.103  20.799  0.00  0.00    +0.000 A 
ENDBRANCH  10  11
ENDBRANCH   1  10
TORSDOF 2
ENDMDL
MODEL 6
REMARK VINA RESULT:    -4.276     31.346     32.561
REMARK INTER + INTRA:          -4.799
REMARK INTER:                  -4.628
REMARK INTRA:                  -0.171
REMARK UNBOUND:                -0.022
REMARK  Name = 1550473
REMARK  2 active torsions:
REMARK  status: ('A' for Active; 'I' for Inactive)
REMARK    1  A    between atoms: N_1  and  C_4
REMARK    2  A    between atoms: C_4  and  C_5
REMARK                            x       y       z     vdW  Elec       q    Type
REMARK                         _______ _______ _______ _____ _____    ______ ____
ROOT
ATOM      1  N   UNL     1      -5.239   3.125 -15.942  0.00  0.00    -0.354 N 
ATOM      2  N   UNL     1      -3.058   2.404 -15.647  0.00  0.00    -0.372 N 
ATOM      3  N   UNL     1      -3.810   4.193 -14.423  0.00  0.00    -0.372 N 
ATOM      4  C   UNL     1      -4.050   3.247 -15.338  0.00  0.00    +0.166 C 
ATOM      5  H   UNL     1      -5.348   2.406 -16.649  0.00  0.00    +0.163 HD
ATOM      6  H   UNL     1      -2.151   2.470 -15.205  0.00  0.00    +0.159 HD
ATOM      7  H   UNL     1      -3.184   1.658 -16.321  0.00  0.00    +0.159 HD
ATOM      8  H   UNL     1      -4.515   4.864 -14.149  0.00  0.00    +0.159 HD
ATOM      9  H   UNL     1      -2.905   4.282 -13.978  0.00  0.00    +0.159 HD
ENDROOT
BRANCH   1  10
ATOM     10  C   UNL     1      -6.401   3.958 -15.638  0.00  0.00    +0.151 C 
BRANCH  10  11
ATOM     11  C   UNL     1      -7.242   3.268 -14.599  0.00  0.00    -0.028 A 
ATOM     12  C   UNL     1      -7.605   1.922 -14.756  0.00  0.00    +0.005 A 
ATOM     13  C   UNL     1      -7.674   3.953 -13.453  0.00  0.00    +0.005 A 
ATOM     14  C   UNL     1      -8.360   1.272 -13.777  0.00  0.00    +0.000 A 
ATOM     15  C   UNL     1      -8.429   3.300 -12.478  0.00  0.00    +0.000 A 
ATOM     16  C   UNL     1      -8.770   1.960 -12.639  0.00  0.00    +0.000 A 
ENDBRANCH  10  11
ENDBRANCH   1  10
TORSDOF 2
ENDMDL
MODEL 7
REMARK VINA RESULT:    -4.269      4.432      5.918
REMARK INTER + INTRA:          -4.791
REMARK INTER:                  -4.667
REMARK INTRA:                  -0.124
REMARK UNBOUND:                -0.022
REMARK  Name = 1550473
REMARK  2 active torsions:
REMARK  status: ('A' for Active; 'I' for Inactive)
REMARK    1  A    between atoms: N_1  and  C_4
REMARK    2  A    between atoms: C_4  and  C_5
REMARK                            x       y       z     vdW  Elec       q    Type
REMARK                         _______ _______ _______ _____ _____    ______ ____
ROOT
ATOM      1  N   UNL     1       1.389  10.932  16.833  0.00  0.00    -0.354 N 
ATOM      2  N   UNL     1      -0.066  12.591  16.131  0.00  0.00    -0.372 N 
ATOM      3  N   UNL     1       0.380  12.383  18.372  0.00  0.00    -0.372 N 
ATOM      4  C   UNL     1       0.577  11.958  17.120  0.00  0.00    +0.166 C 
ATOM      5  H   UNL     1       1.472  10.639  15.866  0.00  0.00    +0.163 HD
ATOM      6  H   UNL     1      -0.682  13.371  16.316  0.00  0.00    +0.159 HD
ATOM      7  H   UNL     1       0.055  12.326  15.161  0.00  0.00    +0.159 HD
ATOM      8  H   UNL     1       0.831  11.943  19.164  0.00  0.00    +0.159 HD
ATOM      9  H   UNL     1      -0.242  13.154  18.579  0.00  0.00    +0.159 HD
ENDROOT
BRANCH   1  10
ATOM     10  C   UNL     1       2.177  10.209  17.831  0.00  0.00    +0.151 C 
BRANCH  10  11
ATOM     11  C   UNL     1       2.142   8.739  17.514  0.00  0.00    -0.028 A 
ATOM     12  C   UNL     1       0.956   8.006  17.669  0.00  0.00    +0.005 A 
ATOM     13  C   UNL     1       3.289   8.076  17.053  0.00  0.00    +0.005 A 
ATOM     14  C   UNL     1       0.915   6.647  17.346  0.00  0.00    +0.000 A 
ATOM     15  C   UNL     1       3.244   6.719  16.732  0.00  0.00    +0.000 A 
ATOM     16  C   UNL     1       2.057   6.006  16.877  0.00  0.00    +0.000 A 
ENDBRANCH  10  11
ENDBRANCH   1  10
TORSDOF 2
ENDMDL
MODEL 8
REMARK VINA RESULT:    -4.250     31.283     32.644
REMARK INTER + INTRA:          -4.769
REMARK INTER:                  -4.666
REMARK INTRA:                  -0.102
REMARK UNBOUND:                -0.022
REMARK  Name = 1550473
REMARK  2 active torsions:
REMARK  status: ('A' for Active; 'I' for Inactive)
REMARK    1  A    between atoms: N_1  and  C_4
REMARK    2  A    between atoms: C_4  and  C_5
REMARK                            x       y       z     vdW  Elec       q    Type
REMARK                         _______ _______ _______ _____ _____    ______ ____
ROOT
ATOM      1  N   UNL     1      -3.648   2.531 -14.720  0.00  0.00    -0.354 N 
ATOM      2  N   UNL     1      -1.625   1.440 -14.432  0.00  0.00    -0.372 N 
ATOM      3  N   UNL     1      -2.377   2.837 -12.775  0.00  0.00    -0.372 N 
ATOM      4  C   UNL     1      -2.563   2.278 -13.975  0.00  0.00    +0.166 C 
ATOM      5  H   UNL     1      -3.715   2.099 -15.634  0.00  0.00    +0.163 HD
ATOM      6  H   UNL     1      -0.798   1.228 -13.891  0.00  0.00    +0.159 HD
ATOM      7  H   UNL     1      -1.717   0.974 -15.326  0.00  0.00    +0.159 HD
ATOM      8  H   UNL     1      -3.045   3.483 -12.376  0.00  0.00    +0.159 HD
ATOM      9  H   UNL     1      -1.550   2.646 -12.223  0.00  0.00    +0.159 HD
ENDROOT
BRANCH   1  10
ATOM     10  C   UNL     1      -4.753   3.386 -14.291  0.00  0.00    +0.151 C 
BRANCH  10  11
ATOM     11  C   UNL     1      -6.044   2.818 -14.813  0.00  0.00    -0.028 A 
ATOM     12  C   UNL     1      -6.895   2.090 -13.969  0.00  0.00    +0.005 A 
ATOM     13  C   UNL     1      -6.426   3.011 -16.150  0.00  0.00    +0.005 A 
ATOM     14  C   UNL     1      -8.108   1.588 -14.446  0.00  0.00    +0.000 A 
ATOM     15  C   UNL     1      -7.638   2.507 -16.623  0.00  0.00    +0.000 A 
ATOM     16  C   UNL     1      -8.480   1.799 -15.769  0.00  0.00    +0.000 A 
ENDBRANCH  10  11
ENDBRANCH   1  10
TORSDOF 2
ENDMDL
MODEL 9
REMARK VINA RESULT:    -4.132     45.718     47.053
REMARK INTER + INTRA:          -4.637
REMARK INTER:                  -4.513
REMARK INTRA:                  -0.125
REMARK UNBOUND:                -0.022
REMARK  Name = 1550473
REMARK  2 active torsions:
REMARK  status: ('A' for Active; 'I' for Inactive)
REMARK    1  A    between atoms: N_1  and  C_4
REMARK    2  A    between atoms: C_4  and  C_5
REMARK                            x       y       z     vdW  Elec       q    Type
REMARK                         _______ _______ _______ _____ _____    ______ ____
ROOT
ATOM      1  N   UNL     1     -10.978   0.435 -27.922  0.00  0.00    -0.354 N 
ATOM      2  N   UNL     1     -12.762   0.349 -26.447  0.00  0.00    -0.372 N 
ATOM      3  N   UNL     1     -13.084   1.266 -28.526  0.00  0.00    -0.372 N 
ATOM      4  C   UNL     1     -12.264   0.685 -27.643  0.00  0.00    +0.166 C 
ATOM      5  H   UNL     1     -10.401   0.020 -27.199  0.00  0.00    +0.163 HD
ATOM      6  H   UNL     1     -13.729   0.522 -26.210  0.00  0.00    +0.159 HD
ATOM      7  H   UNL     1     -12.194  -0.108 -25.743  0.00  0.00    +0.159 HD
ATOM      8  H   UNL     1     -12.769   1.549 -29.444  0.00  0.00    +0.159 HD
ATOM      9  H   UNL     1     -14.053   1.458 -28.302  0.00  0.00    +0.159 HD
ENDROOT
BRANCH   1  10
ATOM     10  C   UNL     1     -10.352   0.713 -29.213  0.00  0.00    +0.151 C 
BRANCH  10  11
ATOM     11  C   UNL     1      -8.857   0.652 -29.058  0.00  0.00    -0.028 A 
ATOM     12  C   UNL     1      -8.023   0.659 -30.185  0.00  0.00    +0.005 A 
ATOM     13  C   UNL     1      -8.269   0.594 -27.785  0.00  0.00    +0.005 A 
ATOM     14  C   UNL     1      -6.634   0.633 -30.041  0.00  0.00    +0.000 A 
ATOM     15  C   UNL     1      -6.881   0.568 -27.645  0.00  0.00    +0.000 A 
ATOM     16  C   UNL     1      -6.064   0.590 -28.773  0.00  0.00    +0.000 A 
ENDBRANCH  10  11
ENDBRANCH   1  10
TORSDOF 2
ENDMDL
