MODEL 1
REMARK VINA RESULT:    -4.695      0.000      0.000
REMARK INTER + INTRA:          -5.366
REMARK INTER:                  -5.244
REMARK INTRA:                  -0.123
REMARK UNBOUND:                -0.123
REMARK  Name = 1550473
REMARK  2 active torsions:
REMARK  status: ('A' for Active; 'I' for Inactive)
REMARK    1  A    between atoms: N_1  and  C_4
REMARK    2  A    between atoms: C_4  and  C_5
REMARK                            x       y       z     vdW  Elec       q    Type
REMARK                         _______ _______ _______ _____ _____    ______ ____
ROOT
ATOM      1  N   UNL     1       9.080   5.706   6.625  0.00  0.00    -0.354 N 
ATOM      2  N   UNL     1       7.958   7.486   5.657  0.00  0.00    -0.372 N 
ATOM      3  N   UNL     1      10.007   7.859   6.618  0.00  0.00    -0.372 N 
ATOM      4  C   UNL     1       9.025   7.007   6.307  0.00  0.00    +0.166 C 
ATOM      5  H   UNL     1       8.289   5.119   6.388  0.00  0.00    +0.163 HD
ATOM      6  H   UNL     1       7.889   8.461   5.401  0.00  0.00    +0.159 HD
ATOM      7  H   UNL     1       7.189   6.887   5.380  0.00  0.00    +0.159 HD
ATOM      8  H   UNL     1      10.837   7.561   7.114  0.00  0.00    +0.159 HD
ATOM      9  H   UNL     1       9.952   8.841   6.381  0.00  0.00    +0.159 HD
ENDROOT
BRANCH   1  10
ATOM     10  C   UNL     1      10.221   5.074   7.285  0.00  0.00    +0.151 C 
BRANCH  10  11
ATOM     11  C   UNL     1       9.916   3.618   7.506  0.00  0.00    -0.028 A 
ATOM     12  C   UNL     1      10.898   2.753   8.011  0.00  0.00    +0.005 A 
ATOM     13  C   UNL     1       8.645   3.098   7.217  0.00  0.00    +0.005 A 
ATOM     14  C   UNL     1      10.606   1.407   8.244  0.00  0.00    +0.000 A 
ATOM     15  C   UNL     1       8.358   1.753   7.450  0.00  0.00    +0.000 A 
ATOM     16  C   UNL     1       9.338   0.909   7.966  0.00  0.00    +0.000 A 
ENDBRANCH  10  11
ENDBRANCH   1  10
TORSDOF 2
ENDMDL
MODEL 2
REMARK VINA RESULT:    -4.576     13.488     14.216
REMARK INTER + INTRA:          -5.234
REMARK INTER:                  -5.098
REMARK INTRA:                  -0.136
REMARK UNBOUND:                -0.123
REMARK  Name = 1550473
REMARK  2 active torsions:
REMARK  status: ('A' for Active; 'I' for Inactive)
REMARK    1  A    between atoms: N_1  and  C_4
REMARK    2  A    between atoms: C_4  and  C_5
REMARK                            x       y       z     vdW  Elec       q    Type
REMARK                         _______ _______ _______ _____ _____    ______ ____
ROOT
ATOM      1  N   UNL     1      -0.657   3.228  17.528  0.00  0.00    -0.354 N 
ATOM      2  N   UNL     1      -2.388   1.813  16.923  0.00  0.00    -0.372 N 
ATOM      3  N   UNL     1      -2.871   3.700  18.136  0.00  0.00    -0.372 N 
ATOM      4  C   UNL     1      -1.962   2.925  17.535  0.00  0.00    +0.166 C 
ATOM      5  H   UNL     1      -0.015   2.584  17.080  0.00  0.00    +0.163 HD
ATOM      6  H   UNL     1      -3.366   1.560  16.908  0.00  0.00    +0.159 HD
ATOM      7  H   UNL     1      -1.750   1.195  16.437  0.00  0.00    +0.159 HD
ATOM      8  H   UNL     1      -2.613   4.549  18.620  0.00  0.00    +0.159 HD
ATOM      9  H   UNL     1      -3.853   3.457  18.142  0.00  0.00    +0.159 HD
ENDROOT
BRANCH   1  10
ATOM     10  C   UNL     1      -0.097   4.443  18.118  0.00  0.00    +0.151 C 
BRANCH  10  11
ATOM     11  C   UNL     1       0.627   5.218  17.053  0.00  0.00    -0.028 A 
ATOM     12  C   UNL     1       1.856   4.763  16.552  0.00  0.00    +0.005 A 
ATOM     13  C   UNL     1       0.087   6.406  16.535  0.00  0.00    +0.005 A 
ATOM     14  C   UNL     1       2.514   5.467  15.541  0.00  0.00    +0.000 A 
ATOM     15  C   UNL     1       0.748   7.106  15.527  0.00  0.00    +0.000 A 
ATOM     16  C   UNL     1       1.961   6.635  15.028  0.00  0.00    +0.000 A 
ENDBRANCH  10  11
ENDBRANCH   1  10
TORSDOF 2
ENDMDL
MODEL 3
REMARK VINA RESULT:    -4.562     13.503     14.225
REMARK INTER + INTRA:          -5.218
REMARK INTER:                  -5.078
REMARK INTRA:                  -0.140
REMARK UNBOUND:                -0.123
REMARK  Name = 1550473
REMARK  2 active torsions:
REMARK  status: ('A' for Active; 'I' for Inactive)
REMARK    1  A    between atoms: N_1  and  C_4
REMARK    2  A    between atoms: C_4  and  C_5
REMARK                            x       y       z     vdW  Elec       q    Type
REMARK                         _______ _______ _______ _____ _____    ______ ____
ROOT
ATOM      1  N   UNL     1      -0.901   5.166  17.356  0.00  0.00    -0.354 N 
ATOM      2  N   UNL     1      -2.185   3.246  17.186  0.00  0.00    -0.372 N 
ATOM      3  N   UNL     1      -3.235   5.255  17.544  0.00  0.00    -0.372 N 
ATOM      4  C   UNL     1      -2.101   4.570  17.364  0.00  0.00    +0.166 C 
ATOM      5  H   UNL     1      -0.076   4.587  17.245  0.00  0.00    +0.163 HD
ATOM      6  H   UNL     1      -3.076   2.769  17.183  0.00  0.00    +0.159 HD
ATOM      7  H   UNL     1      -1.362   2.676  17.029  0.00  0.00    +0.159 HD
ATOM      8  H   UNL     1      -3.240   6.255  17.690  0.00  0.00    +0.159 HD
ATOM      9  H   UNL     1      -4.136   4.793  17.556  0.00  0.00    +0.159 HD
ENDROOT
BRANCH   1  10
ATOM     10  C   UNL     1      -0.704   6.609  17.488  0.00  0.00    +0.151 C 
BRANCH  10  11
ATOM     11  C   UNL     1       0.281   7.067  16.447  0.00  0.00    -0.028 A 
ATOM     12  C   UNL     1       0.914   6.138  15.609  0.00  0.00    +0.005 A 
ATOM     13  C   UNL     1       0.580   8.429  16.291  0.00  0.00    +0.005 A 
ATOM     14  C   UNL     1       1.807   6.566  14.623  0.00  0.00    +0.000 A 
ATOM     15  C   UNL     1       1.472   8.852  15.306  0.00  0.00    +0.000 A 
ATOM     16  C   UNL     1       2.083   7.920  14.470  0.00  0.00    +0.000 A 
ENDBRANCH  10  11
ENDBRANCH   1  10
TORSDOF 2
ENDMDL
MODEL 4
REMARK VINA RESULT:    -4.527     13.672     14.464
REMARK INTER + INTRA:          -5.179
REMARK INTER:                  -5.034
REMARK INTRA:                  -0.145
REMARK UNBOUND:                -0.123
REMARK  Name = 1550473
REMARK  2 active torsions:
REMARK  status: ('A' for Active; 'I' for Inactive)
REMARK    1  A    between atoms: N_1  and  C_4
REMARK    2  A    between atoms: C_4  and  C_5
REMARK                            x       y       z     vdW  Elec       q    Type
REMARK                         _______ _______ _______ _____ _____    ______ ____
ROOT
ATOM      1  N   UNL     1      -1.557   4.564  17.291  0.00  0.00    -0.354 N 
ATOM      2  N   UNL     1      -2.207   2.360  17.001  0.00  0.00    -0.372 N 
ATOM      3  N   UNL     1      -0.510   2.832  18.473  0.00  0.00    -0.372 N 
ATOM      4  C   UNL     1      -1.418   3.266  17.592  0.00  0.00    +0.166 C 
ATOM      5  H   UNL     1      -2.243   4.826  16.592  0.00  0.00    +0.163 HD
ATOM      6  H   UNL     1      -2.128   1.374  17.211  0.00  0.00    +0.159 HD
ATOM      7  H   UNL     1      -2.923   2.629  16.338  0.00  0.00    +0.159 HD
ATOM      8  H   UNL     1       0.119   3.465  18.948  0.00  0.00    +0.159 HD
ATOM      9  H   UNL     1      -0.408   1.848  18.687  0.00  0.00    +0.159 HD
ENDROOT
BRANCH   1  10
ATOM     10  C   UNL     1      -0.785   5.636  17.917  0.00  0.00    +0.151 C 
BRANCH  10  11
ATOM     11  C   UNL     1      -0.036   6.389  16.852  0.00  0.00    -0.028 A 
ATOM     12  C   UNL     1      -0.114   7.788  16.781  0.00  0.00    +0.005 A 
ATOM     13  C   UNL     1       0.757   5.710  15.914  0.00  0.00    +0.005 A 
ATOM     14  C   UNL     1       0.605   8.490  15.810  0.00  0.00    +0.000 A 
ATOM     15  C   UNL     1       1.473   6.415  14.947  0.00  0.00    +0.000 A 
ATOM     16  C   UNL     1       1.398   7.805  14.896  0.00  0.00    +0.000 A 
ENDBRANCH  10  11
ENDBRANCH   1  10
TORSDOF 2
ENDMDL
MODEL 5
REMARK VINA RESULT:    -4.487     17.167     18.747
REMARK INTER + INTRA:          -5.134
REMARK INTER:                  -5.022
REMARK INTRA:                  -0.112
REMARK UNBOUND:                -0.123
REMARK  Name = 1550473
REMARK  2 active torsions:
REMARK  status: ('A' for Active; 'I' for Inactive)
REMARK    1  A    between atoms: N_1  and  C_4
REMARK    2  A    between atoms: C_4  and  C_5
REMARK                            x       y       z     vdW  Elec       q    Type
REMARK                         _______ _______ _______ _____ _____    ______ ____
ROOT
ATOM      1  N   UNL     1      -5.507  -3.461  11.724  0.00  0.00    -0.354 N 
ATOM      2  N   UNL     1      -3.375  -4.366  11.731  0.00  0.00    -0.372 N 
ATOM      3  N   UNL     1      -5.169  -5.756  11.393  0.00  0.00    -0.372 N 
ATOM      4  C   UNL     1      -4.699  -4.524  11.616  0.00  0.00    +0.166 C 
ATOM      5  H   UNL     1      -5.090  -2.558  11.923  0.00  0.00    +0.163 HD
ATOM      6  H   UNL     1      -2.740  -5.149  11.651  0.00  0.00    +0.159 HD
ATOM      7  H   UNL     1      -2.958  -3.456  11.885  0.00  0.00    +0.159 HD
ATOM      8  H   UNL     1      -6.159  -5.943  11.302  0.00  0.00    +0.159 HD
ATOM      9  H   UNL     1      -4.551  -6.554  11.321  0.00  0.00    +0.159 HD
ENDROOT
BRANCH   1  10
ATOM     10  C   UNL     1      -6.958  -3.516  11.560  0.00  0.00    +0.151 C 
BRANCH  10  11
ATOM     11  C   UNL     1      -7.515  -2.122  11.641  0.00  0.00    -0.028 A 
ATOM     12  C   UNL     1      -8.719  -1.874  12.317  0.00  0.00    +0.005 A 
ATOM     13  C   UNL     1      -6.842  -1.043  11.048  0.00  0.00    +0.005 A 
ATOM     14  C   UNL     1      -9.222  -0.575  12.419  0.00  0.00    +0.000 A 
ATOM     15  C   UNL     1      -7.347   0.253  11.151  0.00  0.00    +0.000 A 
ATOM     16  C   UNL     1      -8.536   0.487  11.838  0.00  0.00    +0.000 A 
ENDBRANCH  10  11
ENDBRANCH   1  10
TORSDOF 2
ENDMDL
MODEL 6
REMARK VINA RESULT:    -4.301     15.565     16.525
REMARK INTER + INTRA:          -4.927
REMARK INTER:                  -4.786
REMARK INTRA:                  -0.140
REMARK UNBOUND:                -0.123
REMARK  Name = 1550473
REMARK  2 active torsions:
REMARK  status: ('A' for Active; 'I' for Inactive)
REMARK    1  A    between atoms: N_1  and  C_4
REMARK    2  A    between atoms: C_4  and  C_5
REMARK                            x       y       z     vdW  Elec       q    Type
REMARK                         _______ _______ _______ _____ _____    ______ ____
ROOT
ATOM      1  N   UNL     1       4.714 -10.868   4.563  0.00  0.00    -0.354 N 
ATOM      2  N   UNL     1       2.401 -10.896   4.466  0.00  0.00    -0.372 N 
ATOM      3  N   UNL     1       3.521 -12.870   4.804  0.00  0.00    -0.372 N 
ATOM      4  C   UNL     1       3.561 -11.548   4.612  0.00  0.00    +0.166 C 
ATOM      5  H   UNL     1       4.679  -9.871   4.384  0.00  0.00    +0.163 HD
ATOM      6  H   UNL     1       1.514 -11.382   4.501  0.00  0.00    +0.159 HD
ATOM      7  H   UNL     1       2.366  -9.893   4.333  0.00  0.00    +0.159 HD
ATOM      8  H   UNL     1       4.362 -13.421   4.915  0.00  0.00    +0.159 HD
ATOM      9  H   UNL     1       2.644 -13.376   4.831  0.00  0.00    +0.159 HD
ENDROOT
BRANCH   1  10
ATOM     10  C   UNL     1       6.029 -11.474   4.764  0.00  0.00    +0.151 C 
BRANCH  10  11
ATOM     11  C   UNL     1       6.956 -11.010   3.674  0.00  0.00    -0.028 A 
ATOM     12  C   UNL     1       8.197 -11.634   3.482  0.00  0.00    +0.005 A 
ATOM     13  C   UNL     1       6.595  -9.952   2.827  0.00  0.00    +0.005 A 
ATOM     14  C   UNL     1       9.045 -11.223   2.450  0.00  0.00    +0.000 A 
ATOM     15  C   UNL     1       7.445  -9.544   1.798  0.00  0.00    +0.000 A 
ATOM     16  C   UNL     1       8.669 -10.182   1.609  0.00  0.00    +0.000 A 
ENDBRANCH  10  11
ENDBRANCH   1  10
TORSDOF 2
ENDMDL
MODEL 7
REMARK VINA RESULT:    -4.117     13.157     14.032
REMARK INTER + INTRA:          -4.721
REMARK INTER:                  -4.585
REMARK INTRA:                  -0.136
REMARK UNBOUND:                -0.123
REMARK  Name = 1550473
REMARK  2 active torsions:
REMARK  status: ('A' for Active; 'I' for Inactive)
REMARK    1  A    between atoms: N_1  and  C_4
REMARK    2  A    between atoms: C_4  and  C_5
REMARK                            x       y       z     vdW  Elec       q    Type
REMARK                         _______ _______ _______ _____ _____    ______ ____
ROOT
ATOM      1  N   UNL     1       0.253   4.339  17.316  0.00  0.00    -0.354 N 
ATOM      2  N   UNL     1      -0.101   3.101  19.240  0.00  0.00    -0.372 N 
ATOM      3  N   UNL     1       1.852   2.802  18.073  0.00  0.00    -0.372 N 
ATOM      4  C   UNL     1       0.673   3.421  18.196  0.00  0.00    +0.166 C 
ATOM      5  H   UNL     1      -0.664   4.750  17.449  0.00  0.00    +0.163 HD
ATOM      6  H   UNL     1       0.190   2.414  19.923  0.00  0.00    +0.159 HD
ATOM      7  H   UNL     1      -0.997   3.546  19.396  0.00  0.00    +0.159 HD
ATOM      8  H   UNL     1       2.480   2.995  17.304  0.00  0.00    +0.159 HD
ATOM      9  H   UNL     1       2.156   2.104  18.740  0.00  0.00    +0.159 HD
ENDROOT
BRANCH   1  10
ATOM     10  C   UNL     1       1.043   4.799  16.175  0.00  0.00    +0.151 C 
BRANCH  10  11
ATOM     11  C   UNL     1       0.862   6.283  16.017  0.00  0.00    -0.028 A 
ATOM     12  C   UNL     1      -0.076   6.973  16.800  0.00  0.00    +0.005 A 
ATOM     13  C   UNL     1       1.628   7.007  15.091  0.00  0.00    +0.005 A 
ATOM     14  C   UNL     1      -0.224   8.356  16.675  0.00  0.00    +0.000 A 
ATOM     15  C   UNL     1       1.477   8.388  14.970  0.00  0.00    +0.000 A 
ATOM     16  C   UNL     1       0.553   9.063  15.763  0.00  0.00    +0.000 A 
ENDBRANCH  10  11
ENDBRANCH   1  10
TORSDOF 2
ENDMDL
MODEL 8
REMARK VINA RESULT:    -4.060     22.264     23.015
REMARK INTER + INTRA:          -4.658
REMARK INTER:                  -4.521
REMARK INTRA:                  -0.136
REMARK UNBOUND:                -0.123
REMARK  Name = 1550473
REMARK  2 active torsions:
REMARK  status: ('A' for Active; 'I' for Inactive)
REMARK    1  A    between atoms: N_1  and  C_4
REMARK    2  A    between atoms: C_4  and  C_5
REMARK                            x       y       z     vdW  Elec       q    Type
REMARK                         _______ _______ _______ _____ _____    ______ ____
ROOT
ATOM      1  N   UNL     1       5.963  -7.130 -13.730  0.00  0.00    -0.354 N 
ATOM      2  N   UNL     1       3.819  -8.000 -13.834  0.00  0.00    -0.372 N 
ATOM      3  N   UNL     1       5.233  -8.731 -12.182  0.00  0.00    -0.372 N 
ATOM      4  C   UNL     1       5.020  -7.950 -13.246  0.00  0.00    +0.166 C 
ATOM      5  H   UNL     1       5.749  -6.586 -14.558  0.00  0.00    +0.163 HD
ATOM      6  H   UNL     1       3.087  -8.606 -13.489  0.00  0.00    +0.159 HD
ATOM      7  H   UNL     1       3.593  -7.421 -14.634  0.00  0.00    +0.159 HD
ATOM      8  H   UNL     1       6.120  -8.744 -11.696  0.00  0.00    +0.159 HD
ATOM      9  H   UNL     1       4.517  -9.353 -11.829  0.00  0.00    +0.159 HD
ENDROOT
BRANCH   1  10
ATOM     10  C   UNL     1       7.286  -6.961 -13.130  0.00  0.00    +0.151 C 
BRANCH  10  11
ATOM     11  C   UNL     1       7.501  -5.506 -12.818  0.00  0.00    -0.028 A 
ATOM     12  C   UNL     1       8.161  -5.120 -11.642  0.00  0.00    +0.005 A 
ATOM     13  C   UNL     1       7.051  -4.508 -13.696  0.00  0.00    +0.005 A 
ATOM     14  C   UNL     1       8.388  -3.769 -11.366  0.00  0.00    +0.000 A 
ATOM     15  C   UNL     1       7.279  -3.160 -13.417  0.00  0.00    +0.000 A 
ATOM     16  C   UNL     1       7.949  -2.792 -12.253  0.00  0.00    +0.000 A 
ENDBRANCH  10  11
ENDBRANCH   1  10
TORSDOF 2
ENDMDL
MODEL 9
REMARK VINA RESULT:    -4.057     23.077     23.758
REMARK INTER + INTRA:          -4.654
REMARK INTER:                  -4.531
REMARK INTRA:                  -0.123
REMARK UNBOUND:                -0.123
REMARK  Name = 1550473
REMARK  2 active torsions:
REMARK  status: ('A' for Active; 'I' for Inactive)
REMARK    1  A    between atoms: N_1  and  C_4
REMARK    2  A    between atoms: C_4  and  C_5
REMARK                            x       y       z     vdW  Elec       q    Type
REMARK                         _______ _______ _______ _____ _____    ______ ____
ROOT
ATOM      1  N   UNL     1       4.987  -6.362 -14.758  0.00  0.00    -0.354 N 
ATOM      2  N   UNL     1       2.736  -6.843 -15.012  0.00  0.00    -0.372 N 
ATOM      3  N   UNL     1       3.749  -5.445 -16.524  0.00  0.00    -0.372 N 
ATOM      4  C   UNL     1       3.839  -6.212 -15.432  0.00  0.00    +0.166 C 
ATOM      5  H   UNL     1       4.982  -6.933 -13.920  0.00  0.00    +0.163 HD
ATOM      6  H   UNL     1       1.856  -6.751 -15.502  0.00  0.00    +0.159 HD
ATOM      7  H   UNL     1       2.745  -7.450 -14.201  0.00  0.00    +0.159 HD
ATOM      8  H   UNL     1       4.544  -4.938 -16.889  0.00  0.00    +0.159 HD
ATOM      9  H   UNL     1       2.875  -5.332 -17.021  0.00  0.00    +0.159 HD
ENDROOT
BRANCH   1  10
ATOM     10  C   UNL     1       6.257  -5.762 -15.162  0.00  0.00    +0.151 C 
BRANCH  10  11
ATOM     11  C   UNL     1       6.854  -5.038 -13.987  0.00  0.00    -0.028 A 
ATOM     12  C   UNL     1       7.469  -5.751 -12.948  0.00  0.00    +0.005 A 
ATOM     13  C   UNL     1       6.812  -3.637 -13.909  0.00  0.00    +0.005 A 
ATOM     14  C   UNL     1       8.050  -5.078 -11.871  0.00  0.00    +0.000 A 
ATOM     15  C   UNL     1       7.393  -2.968 -12.831  0.00  0.00    +0.000 A 
ATOM     16  C   UNL     1       8.014  -3.689 -11.814  0.00  0.00    +0.000 A 
ENDBRANCH  10  11
ENDBRANCH   1  10
TORSDOF 2
ENDMDL
