MODEL 1
REMARK VINA RESULT:    -4.887      0.000      0.000
REMARK INTER + INTRA:          -5.575
REMARK INTER:                  -5.459
REMARK INTRA:                  -0.116
REMARK UNBOUND:                -0.116
REMARK  Name = 1550473
REMARK  2 active torsions:
REMARK  status: ('A' for Active; 'I' for Inactive)
REMARK    1  A    between atoms: N_1  and  C_4
REMARK    2  A    between atoms: C_4  and  C_5
REMARK                            x       y       z     vdW  Elec       q    Type
REMARK                         _______ _______ _______ _____ _____    ______ ____
ROOT
ATOM      1  N   UNL     1       3.160   0.550 -15.624  0.00  0.00    -0.354 N 
ATOM      2  N   UNL     1       3.821  -0.983 -14.018  0.00  0.00    -0.372 N 
ATOM      3  N   UNL     1       1.581  -0.715 -14.440  0.00  0.00    -0.372 N 
ATOM      4  C   UNL     1       2.847  -0.373 -14.704  0.00  0.00    +0.166 C 
ATOM      5  H   UNL     1       4.137   0.787 -15.755  0.00  0.00    +0.163 HD
ATOM      6  H   UNL     1       3.616  -1.686 -13.321  0.00  0.00    +0.159 HD
ATOM      7  H   UNL     1       4.799  -0.778 -14.185  0.00  0.00    +0.159 HD
ATOM      8  H   UNL     1       0.800  -0.287 -14.919  0.00  0.00    +0.159 HD
ATOM      9  H   UNL     1       1.355  -1.407 -13.737  0.00  0.00    +0.159 HD
ENDROOT
BRANCH   1  10
ATOM     10  C   UNL     1       2.177   1.234 -16.463  0.00  0.00    +0.151 C 
BRANCH  10  11
ATOM     11  C   UNL     1       2.704   2.596 -16.825  0.00  0.00    -0.028 A 
ATOM     12  C   UNL     1       1.836   3.695 -16.911  0.00  0.00    +0.005 A 
ATOM     13  C   UNL     1       4.070   2.795 -17.077  0.00  0.00    +0.005 A 
ATOM     14  C   UNL     1       2.329   4.965 -17.218  0.00  0.00    +0.000 A 
ATOM     15  C   UNL     1       4.558   4.065 -17.383  0.00  0.00    +0.000 A 
ATOM     16  C   UNL     1       3.688   5.150 -17.451  0.00  0.00    +0.000 A 
ENDBRANCH  10  11
ENDBRANCH   1  10
TORSDOF 2
ENDMDL
MODEL 2
REMARK VINA RESULT:    -4.878     26.674     27.112
REMARK INTER + INTRA:          -5.564
REMARK INTER:                  -5.502
REMARK INTRA:                  -0.062
REMARK UNBOUND:                -0.116
REMARK  Name = 1550473
REMARK  2 active torsions:
REMARK  status: ('A' for Active; 'I' for Inactive)
REMARK    1  A    between atoms: N_1  and  C_4
REMARK    2  A    between atoms: C_4  and  C_5
REMARK                            x       y       z     vdW  Elec       q    Type
REMARK                         _______ _______ _______ _____ _____    ______ ____
ROOT
ATOM      1  N   UNL     1       7.051  15.711   8.279  0.00  0.00    -0.354 N 
ATOM      2  N   UNL     1       9.221  15.348   9.004  0.00  0.00    -0.372 N 
ATOM      3  N   UNL     1       8.806  15.442   6.749  0.00  0.00    -0.372 N 
ATOM      4  C   UNL     1       8.345  15.503   8.003  0.00  0.00    +0.166 C 
ATOM      5  H   UNL     1       6.761  15.716   9.250  0.00  0.00    +0.163 HD
ATOM      6  H   UNL     1      10.204  15.193   8.827  0.00  0.00    +0.159 HD
ATOM      7  H   UNL     1       8.935  15.399   9.974  0.00  0.00    +0.159 HD
ATOM      8  H   UNL     1       8.196  15.545   5.949  0.00  0.00    +0.159 HD
ATOM      9  H   UNL     1       9.785  15.276   6.551  0.00  0.00    +0.159 HD
ENDROOT
BRANCH   1  10
ATOM     10  C   UNL     1       6.026  15.946   7.264  0.00  0.00    +0.151 C 
BRANCH  10  11
ATOM     11  C   UNL     1       5.173  14.714   7.133  0.00  0.00    -0.028 A 
ATOM     12  C   UNL     1       3.775  14.816   7.106  0.00  0.00    +0.005 A 
ATOM     13  C   UNL     1       5.758  13.442   7.031  0.00  0.00    +0.005 A 
ATOM     14  C   UNL     1       2.983  13.675   6.954  0.00  0.00    +0.000 A 
ATOM     15  C   UNL     1       4.964  12.305   6.881  0.00  0.00    +0.000 A 
ATOM     16  C   UNL     1       3.577  12.422   6.840  0.00  0.00    +0.000 A 
ENDBRANCH  10  11
ENDBRANCH   1  10
TORSDOF 2
ENDMDL
MODEL 3
REMARK VINA RESULT:    -4.711      4.163      5.885
REMARK INTER + INTRA:          -5.378
REMARK INTER:                  -5.245
REMARK INTRA:                  -0.133
REMARK UNBOUND:                -0.116
REMARK  Name = 1550473
REMARK  2 active torsions:
REMARK  status: ('A' for Active; 'I' for Inactive)
REMARK    1  A    between atoms: N_1  and  C_4
REMARK    2  A    between atoms: C_4  and  C_5
REMARK                            x       y       z     vdW  Elec       q    Type
REMARK                         _______ _______ _______ _____ _____    ______ ____
ROOT
ATOM      1  N   UNL     1       3.317   6.544 -17.496  0.00  0.00    -0.354 N 
ATOM      2  N   UNL     1       3.137   8.615 -18.519  0.00  0.00    -0.372 N 
ATOM      3  N   UNL     1       4.935   7.281 -19.023  0.00  0.00    -0.372 N 
ATOM      4  C   UNL     1       3.800   7.466 -18.341  0.00  0.00    +0.166 C 
ATOM      5  H   UNL     1       2.468   6.758 -16.986  0.00  0.00    +0.163 HD
ATOM      6  H   UNL     1       3.476   9.327 -19.152  0.00  0.00    +0.159 HD
ATOM      7  H   UNL     1       2.265   8.806 -18.042  0.00  0.00    +0.159 HD
ATOM      8  H   UNL     1       5.485   6.438 -18.929  0.00  0.00    +0.159 HD
ATOM      9  H   UNL     1       5.296   7.987 -19.653  0.00  0.00    +0.159 HD
ENDROOT
BRANCH   1  10
ATOM     10  C   UNL     1       3.933   5.238 -17.272  0.00  0.00    +0.151 C 
BRANCH  10  11
ATOM     11  C   UNL     1       2.852   4.201 -17.137  0.00  0.00    -0.028 A 
ATOM     12  C   UNL     1       1.519   4.586 -16.936  0.00  0.00    +0.005 A 
ATOM     13  C   UNL     1       3.155   2.833 -17.215  0.00  0.00    +0.005 A 
ATOM     14  C   UNL     1       0.510   3.624 -16.840  0.00  0.00    +0.000 A 
ATOM     15  C   UNL     1       2.145   1.876 -17.118  0.00  0.00    +0.000 A 
ATOM     16  C   UNL     1       0.822   2.272 -16.933  0.00  0.00    +0.000 A 
ENDBRANCH  10  11
ENDBRANCH   1  10
TORSDOF 2
ENDMDL
MODEL 4
REMARK VINA RESULT:    -4.619      5.092      6.865
REMARK INTER + INTRA:          -5.276
REMARK INTER:                  -5.153
REMARK INTRA:                  -0.123
REMARK UNBOUND:                -0.116
REMARK  Name = 1550473
REMARK  2 active torsions:
REMARK  status: ('A' for Active; 'I' for Inactive)
REMARK    1  A    between atoms: N_1  and  C_4
REMARK    2  A    between atoms: C_4  and  C_5
REMARK                            x       y       z     vdW  Elec       q    Type
REMARK                         _______ _______ _______ _____ _____    ______ ____
ROOT
ATOM      1  N   UNL     1       4.223   8.056 -17.689  0.00  0.00    -0.354 N 
ATOM      2  N   UNL     1       3.625  10.261 -18.068  0.00  0.00    -0.372 N 
ATOM      3  N   UNL     1       5.789   9.785 -17.473  0.00  0.00    -0.372 N 
ATOM      4  C   UNL     1       4.552   9.353 -17.740  0.00  0.00    +0.166 C 
ATOM      5  H   UNL     1       3.260   7.796 -17.873  0.00  0.00    +0.163 HD
ATOM      6  H   UNL     1       3.845  11.247 -18.118  0.00  0.00    +0.159 HD
ATOM      7  H   UNL     1       2.675   9.994 -18.296  0.00  0.00    +0.159 HD
ATOM      8  H   UNL     1       6.533   9.151 -17.214  0.00  0.00    +0.159 HD
ATOM      9  H   UNL     1       6.026  10.769 -17.506  0.00  0.00    +0.159 HD
ENDROOT
BRANCH   1  10
ATOM     10  C   UNL     1       5.170   6.982 -17.396  0.00  0.00    +0.151 C 
BRANCH  10  11
ATOM     11  C   UNL     1       4.421   5.683 -17.281  0.00  0.00    -0.028 A 
ATOM     12  C   UNL     1       3.026   5.676 -17.141  0.00  0.00    +0.005 A 
ATOM     13  C   UNL     1       5.101   4.456 -17.316  0.00  0.00    +0.005 A 
ATOM     14  C   UNL     1       2.326   4.469 -17.064  0.00  0.00    +0.000 A 
ATOM     15  C   UNL     1       4.399   3.253 -17.239  0.00  0.00    +0.000 A 
ATOM     16  C   UNL     1       3.012   3.260 -17.115  0.00  0.00    +0.000 A 
ENDBRANCH  10  11
ENDBRANCH   1  10
TORSDOF 2
ENDMDL
MODEL 5
REMARK VINA RESULT:    -4.587     16.441     17.391
REMARK INTER + INTRA:          -5.240
REMARK INTER:                  -5.141
REMARK INTRA:                  -0.099
REMARK UNBOUND:                -0.116
REMARK  Name = 1550473
REMARK  2 active torsions:
REMARK  status: ('A' for Active; 'I' for Inactive)
REMARK    1  A    between atoms: N_1  and  C_4
REMARK    2  A    between atoms: C_4  and  C_5
REMARK                            x       y       z     vdW  Elec       q    Type
REMARK                         _______ _______ _______ _____ _____    ______ ____
ROOT
ATOM      1  N   UNL     1       4.441 -12.365  -7.199  0.00  0.00    -0.354 N 
ATOM      2  N   UNL     1       4.978 -12.733  -9.422  0.00  0.00    -0.372 N 
ATOM      3  N   UNL     1       3.545 -14.185  -8.372  0.00  0.00    -0.372 N 
ATOM      4  C   UNL     1       4.316 -13.094  -8.316  0.00  0.00    +0.166 C 
ATOM      5  H   UNL     1       5.065 -11.566  -7.213  0.00  0.00    +0.163 HD
ATOM      6  H   UNL     1       4.901 -13.261 -10.280  0.00  0.00    +0.159 HD
ATOM      7  H   UNL     1       5.564 -11.908  -9.446  0.00  0.00    +0.159 HD
ATOM      8  H   UNL     1       3.025 -14.515  -7.570  0.00  0.00    +0.159 HD
ATOM      9  H   UNL     1       3.464 -14.735  -9.219  0.00  0.00    +0.159 HD
ENDROOT
BRANCH   1  10
ATOM     10  C   UNL     1       3.722 -12.642  -5.957  0.00  0.00    +0.151 C 
BRANCH  10  11
ATOM     11  C   UNL     1       3.710 -11.401  -5.109  0.00  0.00    -0.028 A 
ATOM     12  C   UNL     1       2.837 -10.344  -5.405  0.00  0.00    +0.005 A 
ATOM     13  C   UNL     1       4.566 -11.277  -4.003  0.00  0.00    +0.005 A 
ATOM     14  C   UNL     1       2.804  -9.203  -4.600  0.00  0.00    +0.000 A 
ATOM     15  C   UNL     1       4.531 -10.136  -3.202  0.00  0.00    +0.000 A 
ATOM     16  C   UNL     1       3.648  -9.100  -3.499  0.00  0.00    +0.000 A 
ENDBRANCH  10  11
ENDBRANCH   1  10
TORSDOF 2
ENDMDL
MODEL 6
REMARK VINA RESULT:    -4.581     26.446     26.751
REMARK INTER + INTRA:          -5.233
REMARK INTER:                  -5.094
REMARK INTRA:                  -0.139
REMARK UNBOUND:                -0.116
REMARK  Name = 1550473
REMARK  2 active torsions:
REMARK  status: ('A' for Active; 'I' for Inactive)
REMARK    1  A    between atoms: N_1  and  C_4
REMARK    2  A    between atoms: C_4  and  C_5
REMARK                            x       y       z     vdW  Elec       q    Type
REMARK                         _______ _______ _______ _____ _____    ______ ____
ROOT
ATOM      1  N   UNL     1       3.582  13.149   8.562  0.00  0.00    -0.354 N 
ATOM      2  N   UNL     1       1.964  13.929  10.024  0.00  0.00    -0.372 N 
ATOM      3  N   UNL     1       1.521  13.937   7.772  0.00  0.00    -0.372 N 
ATOM      4  C   UNL     1       2.365  13.667   8.774  0.00  0.00    +0.166 C 
ATOM      5  H   UNL     1       4.186  12.996   9.362  0.00  0.00    +0.163 HD
ATOM      6  H   UNL     1       1.050  14.317  10.215  0.00  0.00    +0.159 HD
ATOM      7  H   UNL     1       2.551  13.732  10.824  0.00  0.00    +0.159 HD
ATOM      8  H   UNL     1       1.766  13.767   6.806  0.00  0.00    +0.159 HD
ATOM      9  H   UNL     1       0.607  14.336   7.942  0.00  0.00    +0.159 HD
ENDROOT
BRANCH   1  10
ATOM     10  C   UNL     1       4.095  12.777   7.245  0.00  0.00    +0.151 C 
BRANCH  10  11
ATOM     11  C   UNL     1       5.477  13.346   7.077  0.00  0.00    -0.028 A 
ATOM     12  C   UNL     1       6.557  12.510   6.760  0.00  0.00    +0.005 A 
ATOM     13  C   UNL     1       5.711  14.722   7.226  0.00  0.00    +0.005 A 
ATOM     14  C   UNL     1       7.836  13.042   6.575  0.00  0.00    +0.000 A 
ATOM     15  C   UNL     1       6.988  15.249   7.041  0.00  0.00    +0.000 A 
ATOM     16  C   UNL     1       8.050  14.409   6.713  0.00  0.00    +0.000 A 
ENDBRANCH  10  11
ENDBRANCH   1  10
TORSDOF 2
ENDMDL
MODEL 7
REMARK VINA RESULT:    -4.563     25.916     26.200
REMARK INTER + INTRA:          -5.213
REMARK INTER:                  -5.091
REMARK INTRA:                  -0.122
REMARK UNBOUND:                -0.116
REMARK  Name = 1550473
REMARK  2 active torsions:
REMARK  status: ('A' for Active; 'I' for Inactive)
REMARK    1  A    between atoms: N_1  and  C_4
REMARK    2  A    between atoms: C_4  and  C_5
REMARK                            x       y       z     vdW  Elec       q    Type
REMARK                         _______ _______ _______ _____ _____    ______ ____
ROOT
ATOM      1  N   UNL     1       3.573  13.622   6.843  0.00  0.00    -0.354 N 
ATOM      2  N   UNL     1       1.306  13.633   6.370  0.00  0.00    -0.372 N 
ATOM      3  N   UNL     1       2.425  11.629   6.395  0.00  0.00    -0.372 N 
ATOM      4  C   UNL     1       2.450  12.958   6.538  0.00  0.00    +0.166 C 
ATOM      5  H   UNL     1       3.533  14.633   6.908  0.00  0.00    +0.163 HD
ATOM      6  H   UNL     1       0.442  13.159   6.143  0.00  0.00    +0.159 HD
ATOM      7  H   UNL     1       1.259  14.638   6.480  0.00  0.00    +0.159 HD
ATOM      8  H   UNL     1       3.255  11.063   6.504  0.00  0.00    +0.159 HD
ATOM      9  H   UNL     1       1.572  11.138   6.157  0.00  0.00    +0.159 HD
ENDROOT
BRANCH   1  10
ATOM     10  C   UNL     1       4.860  12.977   7.100  0.00  0.00    +0.151 C 
BRANCH  10  11
ATOM     11  C   UNL     1       5.950  14.011   7.033  0.00  0.00    -0.028 A 
ATOM     12  C   UNL     1       5.642  15.377   7.118  0.00  0.00    +0.005 A 
ATOM     13  C   UNL     1       7.293  13.631   6.891  0.00  0.00    +0.005 A 
ATOM     14  C   UNL     1       6.656  16.336   7.086  0.00  0.00    +0.000 A 
ATOM     15  C   UNL     1       8.303  14.593   6.858  0.00  0.00    +0.000 A 
ATOM     16  C   UNL     1       7.985  15.945   6.958  0.00  0.00    +0.000 A 
ENDBRANCH  10  11
ENDBRANCH   1  10
TORSDOF 2
ENDMDL
MODEL 8
REMARK VINA RESULT:    -4.542     28.774     29.430
REMARK INTER + INTRA:          -5.189
REMARK INTER:                  -5.064
REMARK INTRA:                  -0.125
REMARK UNBOUND:                -0.116
REMARK  Name = 1550473
REMARK  2 active torsions:
REMARK  status: ('A' for Active; 'I' for Inactive)
REMARK    1  A    between atoms: N_1  and  C_4
REMARK    2  A    between atoms: C_4  and  C_5
REMARK                            x       y       z     vdW  Elec       q    Type
REMARK                         _______ _______ _______ _____ _____    ______ ____
ROOT
ATOM      1  N   UNL     1      16.619  13.657   4.954  0.00  0.00    -0.354 N 
ATOM      2  N   UNL     1      14.521  13.921   4.009  0.00  0.00    -0.372 N 
ATOM      3  N   UNL     1      14.896  12.132   5.396  0.00  0.00    -0.372 N 
ATOM      4  C   UNL     1      15.359  13.233   4.794  0.00  0.00    +0.166 C 
ATOM      5  H   UNL     1      16.918  14.482   4.446  0.00  0.00    +0.163 HD
ATOM      6  H   UNL     1      13.564  13.627   3.872  0.00  0.00    +0.159 HD
ATOM      7  H   UNL     1      14.809  14.771   3.539  0.00  0.00    +0.159 HD
ATOM      8  H   UNL     1      15.479  11.564   5.996  0.00  0.00    +0.159 HD
ATOM      9  H   UNL     1      13.944  11.815   5.262  0.00  0.00    +0.159 HD
ENDROOT
BRANCH   1  10
ATOM     10  C   UNL     1      17.596  13.010   5.828  0.00  0.00    +0.151 C 
BRANCH  10  11
ATOM     11  C   UNL     1      18.615  14.026   6.264  0.00  0.00    -0.028 A 
ATOM     12  C   UNL     1      18.253  15.370   6.433  0.00  0.00    +0.005 A 
ATOM     13  C   UNL     1      19.944  13.649   6.514  0.00  0.00    +0.005 A 
ATOM     14  C   UNL     1      19.193  16.309   6.866  0.00  0.00    +0.000 A 
ATOM     15  C   UNL     1      20.879  14.590   6.946  0.00  0.00    +0.000 A 
ATOM     16  C   UNL     1      20.502  15.919   7.124  0.00  0.00    +0.000 A 
ENDBRANCH  10  11
ENDBRANCH   1  10
TORSDOF 2
ENDMDL
MODEL 9
REMARK VINA RESULT:    -4.481     23.747     24.121
REMARK INTER + INTRA:          -5.121
REMARK INTER:                  -5.001
REMARK INTRA:                  -0.120
REMARK UNBOUND:                -0.116
REMARK  Name = 1550473
REMARK  2 active torsions:
REMARK  status: ('A' for Active; 'I' for Inactive)
REMARK    1  A    between atoms: N_1  and  C_4
REMARK    2  A    between atoms: C_4  and  C_5
REMARK                            x       y       z     vdW  Elec       q    Type
REMARK                         _______ _______ _______ _____ _____    ______ ____
ROOT
ATOM      1  N   UNL     1       2.545  10.872   4.594  0.00  0.00    -0.354 N 
ATOM      2  N   UNL     1       2.439   9.665   2.620  0.00  0.00    -0.372 N 
ATOM      3  N   UNL     1       2.258   8.547   4.616  0.00  0.00    -0.372 N 
ATOM      4  C   UNL     1       2.414   9.700   3.958  0.00  0.00    +0.166 C 
ATOM      5  H   UNL     1       2.691  11.708   4.038  0.00  0.00    +0.163 HD
ATOM      6  H   UNL     1       2.340   8.796   2.113  0.00  0.00    +0.159 HD
ATOM      7  H   UNL     1       2.539  10.507   2.066  0.00  0.00    +0.159 HD
ATOM      8  H   UNL     1       2.237   8.505   5.626  0.00  0.00    +0.159 HD
ATOM      9  H   UNL     1       2.168   7.665   4.126  0.00  0.00    +0.159 HD
ENDROOT
BRANCH   1  10
ATOM     10  C   UNL     1       2.478  11.027   6.046  0.00  0.00    +0.151 C 
BRANCH  10  11
ATOM     11  C   UNL     1       3.519  12.020   6.482  0.00  0.00    -0.028 A 
ATOM     12  C   UNL     1       4.875  11.664   6.512  0.00  0.00    +0.005 A 
ATOM     13  C   UNL     1       3.156  13.321   6.863  0.00  0.00    +0.005 A 
ATOM     14  C   UNL     1       5.846  12.596   6.889  0.00  0.00    +0.000 A 
ATOM     15  C   UNL     1       4.128  14.248   7.239  0.00  0.00    +0.000 A 
ATOM     16  C   UNL     1       5.473  13.886   7.250  0.00  0.00    +0.000 A 
ENDBRANCH  10  11
ENDBRANCH   1  10
TORSDOF 2
ENDMDL
