MODEL 1
REMARK VINA RESULT:    -4.732      0.000      0.000
REMARK INTER + INTRA:          -5.425
REMARK INTER:                  -5.285
REMARK INTRA:                  -0.140
REMARK UNBOUND:                -0.140
REMARK  Name = 1550473
REMARK  2 active torsions:
REMARK  status: ('A' for Active; 'I' for Inactive)
REMARK    1  A    between atoms: N_1  and  C_4
REMARK    2  A    between atoms: C_4  and  C_5
REMARK                            x       y       z     vdW  Elec       q    Type
REMARK                         _______ _______ _______ _____ _____    ______ ____
ROOT
ATOM      1  N   UNL     1       1.969   5.474  14.920  0.00  0.00    -0.354 N 
ATOM      2  N   UNL     1      -0.028   5.281  16.077  0.00  0.00    -0.372 N 
ATOM      3  N   UNL     1       0.400   7.215  14.920  0.00  0.00    -0.372 N 
ATOM      4  C   UNL     1       0.793   5.994  15.298  0.00  0.00    +0.166 C 
ATOM      5  H   UNL     1       2.222   4.555  15.265  0.00  0.00    +0.163 HD
ATOM      6  H   UNL     1      -0.923   5.645  16.375  0.00  0.00    +0.159 HD
ATOM      7  H   UNL     1       0.207   4.344  16.383  0.00  0.00    +0.159 HD
ATOM      8  H   UNL     1       0.977   7.807  14.337  0.00  0.00    +0.159 HD
ATOM      9  H   UNL     1      -0.487   7.602  15.218  0.00  0.00    +0.159 HD
ENDROOT
BRANCH   1  10
ATOM     10  C   UNL     1       2.912   6.147  14.029  0.00  0.00    +0.151 C 
BRANCH  10  11
ATOM     11  C   UNL     1       4.302   6.004  14.585  0.00  0.00    -0.028 A 
ATOM     12  C   UNL     1       5.420   6.121  13.746  0.00  0.00    +0.005 A 
ATOM     13  C   UNL     1       4.507   5.756  15.951  0.00  0.00    +0.005 A 
ATOM     14  C   UNL     1       6.712   6.018  14.268  0.00  0.00    +0.000 A 
ATOM     15  C   UNL     1       5.799   5.652  16.467  0.00  0.00    +0.000 A 
ATOM     16  C   UNL     1       6.901   5.786  15.626  0.00  0.00    +0.000 A 
ENDBRANCH  10  11
ENDBRANCH   1  10
TORSDOF 2
ENDMDL
MODEL 2
REMARK VINA RESULT:    -4.528     12.450     14.696
REMARK INTER + INTRA:          -5.197
REMARK INTER:                  -5.054
REMARK INTRA:                  -0.143
REMARK UNBOUND:                -0.140
REMARK  Name = 1550473
REMARK  2 active torsions:
REMARK  status: ('A' for Active; 'I' for Inactive)
REMARK    1  A    between atoms: N_1  and  C_4
REMARK    2  A    between atoms: C_4  and  C_5
REMARK                            x       y       z     vdW  Elec       q    Type
REMARK                         _______ _______ _______ _____ _____    ______ ____
ROOT
ATOM      1  N   UNL     1      -3.979  -4.618  16.167  0.00  0.00    -0.354 N 
ATOM      2  N   UNL     1      -1.849  -3.735  16.381  0.00  0.00    -0.372 N 
ATOM      3  N   UNL     1      -2.081  -5.940  15.791  0.00  0.00    -0.372 N 
ATOM      4  C   UNL     1      -2.650  -4.773  16.111  0.00  0.00    +0.166 C 
ATOM      5  H   UNL     1      -4.347  -3.715  16.445  0.00  0.00    +0.163 HD
ATOM      6  H   UNL     1      -0.842  -3.821  16.343  0.00  0.00    +0.159 HD
ATOM      7  H   UNL     1      -2.220  -2.822  16.614  0.00  0.00    +0.159 HD
ATOM      8  H   UNL     1      -2.630  -6.763  15.582  0.00  0.00    +0.159 HD
ATOM      9  H   UNL     1      -1.075  -6.049  15.759  0.00  0.00    +0.159 HD
ENDROOT
BRANCH   1  10
ATOM     10  C   UNL     1      -4.939  -5.670  15.839  0.00  0.00    +0.151 C 
BRANCH  10  11
ATOM     11  C   UNL     1      -5.903  -5.151  14.807  0.00  0.00    -0.028 A 
ATOM     12  C   UNL     1      -6.687  -6.038  14.055  0.00  0.00    +0.005 A 
ATOM     13  C   UNL     1      -6.042  -3.773  14.582  0.00  0.00    +0.005 A 
ATOM     14  C   UNL     1      -7.604  -5.556  13.118  0.00  0.00    +0.000 A 
ATOM     15  C   UNL     1      -6.959  -3.295  13.646  0.00  0.00    +0.000 A 
ATOM     16  C   UNL     1      -7.741  -4.187  12.915  0.00  0.00    +0.000 A 
ENDBRANCH  10  11
ENDBRANCH   1  10
TORSDOF 2
ENDMDL
MODEL 3
REMARK VINA RESULT:    -4.478     57.911     59.007
REMARK INTER + INTRA:          -5.141
REMARK INTER:                  -4.996
REMARK INTRA:                  -0.146
REMARK UNBOUND:                -0.140
REMARK  Name = 1550473
REMARK  2 active torsions:
REMARK  status: ('A' for Active; 'I' for Inactive)
REMARK    1  A    between atoms: N_1  and  C_4
REMARK    2  A    between atoms: C_4  and  C_5
REMARK                            x       y       z     vdW  Elec       q    Type
REMARK                         _______ _______ _______ _____ _____    ______ ____
ROOT
ATOM      1  N   UNL     1     -11.747  -3.435 -40.215  0.00  0.00    -0.354 N 
ATOM      2  N   UNL     1     -10.790  -5.424 -39.513  0.00  0.00    -0.372 N 
ATOM      3  N   UNL     1     -10.185  -3.473 -38.468  0.00  0.00    -0.372 N 
ATOM      4  C   UNL     1     -10.912  -4.096 -39.402  0.00  0.00    +0.166 C 
ATOM      5  H   UNL     1     -12.247  -3.962 -40.922  0.00  0.00    +0.163 HD
ATOM      6  H   UNL     1     -10.170  -5.950 -38.912  0.00  0.00    +0.159 HD
ATOM      7  H   UNL     1     -11.325  -5.954 -40.191  0.00  0.00    +0.159 HD
ATOM      8  H   UNL     1     -10.228  -2.472 -38.336  0.00  0.00    +0.159 HD
ATOM      9  H   UNL     1      -9.551  -3.981 -37.864  0.00  0.00    +0.159 HD
ENDROOT
BRANCH   1  10
ATOM     10  C   UNL     1     -11.993  -1.997 -40.140  0.00  0.00    +0.151 C 
BRANCH  10  11
ATOM     11  C   UNL     1     -11.751  -1.385 -41.492  0.00  0.00    -0.028 A 
ATOM     12  C   UNL     1     -11.847   0.002 -41.674  0.00  0.00    +0.005 A 
ATOM     13  C   UNL     1     -11.419  -2.187 -42.594  0.00  0.00    +0.005 A 
ATOM     14  C   UNL     1     -11.592   0.573 -42.923  0.00  0.00    +0.000 A 
ATOM     15  C   UNL     1     -11.166  -1.613 -43.840  0.00  0.00    +0.000 A 
ATOM     16  C   UNL     1     -11.251  -0.233 -44.003  0.00  0.00    +0.000 A 
ENDBRANCH  10  11
ENDBRANCH   1  10
TORSDOF 2
ENDMDL
MODEL 4
REMARK VINA RESULT:    -4.342      3.116      4.477
REMARK INTER + INTRA:          -4.989
REMARK INTER:                  -4.903
REMARK INTRA:                  -0.086
REMARK UNBOUND:                -0.140
REMARK  Name = 1550473
REMARK  2 active torsions:
REMARK  status: ('A' for Active; 'I' for Inactive)
REMARK    1  A    between atoms: N_1  and  C_4
REMARK    2  A    between atoms: C_4  and  C_5
REMARK                            x       y       z     vdW  Elec       q    Type
REMARK                         _______ _______ _______ _____ _____    ______ ____
ROOT
ATOM      1  N   UNL     1       6.332   5.960  15.356  0.00  0.00    -0.354 N 
ATOM      2  N   UNL     1       4.190   6.097  14.486  0.00  0.00    -0.372 N 
ATOM      3  N   UNL     1       4.453   5.677  16.727  0.00  0.00    -0.372 N 
ATOM      4  C   UNL     1       5.005   5.910  15.531  0.00  0.00    +0.166 C 
ATOM      5  H   UNL     1       6.689   6.111  14.419  0.00  0.00    +0.163 HD
ATOM      6  H   UNL     1       3.185   6.068  14.588  0.00  0.00    +0.159 HD
ATOM      7  H   UNL     1       4.549   6.293  13.559  0.00  0.00    +0.159 HD
ATOM      8  H   UNL     1       5.012   5.522  17.554  0.00  0.00    +0.159 HD
ATOM      9  H   UNL     1       3.448   5.633  16.847  0.00  0.00    +0.159 HD
ENDROOT
BRANCH   1  10
ATOM     10  C   UNL     1       7.306   5.823  16.438  0.00  0.00    +0.151 C 
BRANCH  10  11
ATOM     11  C   UNL     1       7.893   4.440  16.398  0.00  0.00    -0.028 A 
ATOM     12  C   UNL     1       7.569   3.558  15.356  0.00  0.00    +0.005 A 
ATOM     13  C   UNL     1       8.780   4.006  17.395  0.00  0.00    +0.005 A 
ATOM     14  C   UNL     1       8.138   2.284  15.302  0.00  0.00    +0.000 A 
ATOM     15  C   UNL     1       9.346   2.732  17.338  0.00  0.00    +0.000 A 
ATOM     16  C   UNL     1       9.026   1.872  16.290  0.00  0.00    +0.000 A 
ENDBRANCH  10  11
ENDBRANCH   1  10
TORSDOF 2
ENDMDL
MODEL 5
REMARK VINA RESULT:    -4.309      4.948      6.580
REMARK INTER + INTRA:          -4.953
REMARK INTER:                  -4.848
REMARK INTRA:                  -0.104
REMARK UNBOUND:                -0.140
REMARK  Name = 1550473
REMARK  2 active torsions:
REMARK  status: ('A' for Active; 'I' for Inactive)
REMARK    1  A    between atoms: N_1  and  C_4
REMARK    2  A    between atoms: C_4  and  C_5
REMARK                            x       y       z     vdW  Elec       q    Type
REMARK                         _______ _______ _______ _____ _____    ______ ____
ROOT
ATOM      1  N   UNL     1      -0.167   8.435  15.933  0.00  0.00    -0.354 N 
ATOM      2  N   UNL     1      -0.009  10.639  16.626  0.00  0.00    -0.372 N 
ATOM      3  N   UNL     1       0.274  10.153  14.401  0.00  0.00    -0.372 N 
ATOM      4  C   UNL     1       0.032   9.729  15.646  0.00  0.00    +0.166 C 
ATOM      5  H   UNL     1      -0.316   8.174  16.901  0.00  0.00    +0.163 HD
ATOM      6  H   UNL     1       0.134  11.623  16.439  0.00  0.00    +0.159 HD
ATOM      7  H   UNL     1      -0.203  10.381  17.586  0.00  0.00    +0.159 HD
ATOM      8  H   UNL     1       0.324   9.516  13.618  0.00  0.00    +0.159 HD
ATOM      9  H   UNL     1       0.432  11.132  14.197  0.00  0.00    +0.159 HD
ENDROOT
BRANCH   1  10
ATOM     10  C   UNL     1      -0.196   7.371  14.931  0.00  0.00    +0.151 C 
BRANCH  10  11
ATOM     11  C   UNL     1      -1.259   6.374  15.304  0.00  0.00    -0.028 A 
ATOM     12  C   UNL     1      -2.497   6.373  14.644  0.00  0.00    +0.005 A 
ATOM     13  C   UNL     1      -1.032   5.425  16.313  0.00  0.00    +0.005 A 
ATOM     14  C   UNL     1      -3.473   5.428  14.969  0.00  0.00    +0.000 A 
ATOM     15  C   UNL     1      -2.010   4.484  16.635  0.00  0.00    +0.000 A 
ATOM     16  C   UNL     1      -3.229   4.485  15.962  0.00  0.00    +0.000 A 
ENDBRANCH  10  11
ENDBRANCH   1  10
TORSDOF 2
ENDMDL
MODEL 6
REMARK VINA RESULT:    -4.262      1.829      2.982
REMARK INTER + INTRA:          -4.900
REMARK INTER:                  -4.773
REMARK INTRA:                  -0.127
REMARK UNBOUND:                -0.140
REMARK  Name = 1550473
REMARK  2 active torsions:
REMARK  status: ('A' for Active; 'I' for Inactive)
REMARK    1  A    between atoms: N_1  and  C_4
REMARK    2  A    between atoms: C_4  and  C_5
REMARK                            x       y       z     vdW  Elec       q    Type
REMARK                         _______ _______ _______ _____ _____    ______ ____
ROOT
ATOM      1  N   UNL     1       4.412   5.921  15.566  0.00  0.00    -0.354 N 
ATOM      2  N   UNL     1       2.212   5.233  15.341  0.00  0.00    -0.372 N 
ATOM      3  N   UNL     1       3.173   6.447  13.648  0.00  0.00    -0.372 N 
ATOM      4  C   UNL     1       3.280   5.873  14.850  0.00  0.00    +0.166 C 
ATOM      5  H   UNL     1       4.419   5.491  16.484  0.00  0.00    +0.163 HD
ATOM      6  H   UNL     1       1.345   5.178  14.823  0.00  0.00    +0.159 HD
ATOM      7  H   UNL     1       2.236   4.766  16.239  0.00  0.00    +0.159 HD
ATOM      8  H   UNL     1       3.941   6.951  13.224  0.00  0.00    +0.159 HD
ATOM      9  H   UNL     1       2.310   6.413  13.119  0.00  0.00    +0.159 HD
ENDROOT
BRANCH   1  10
ATOM     10  C   UNL     1       5.648   6.546  15.099  0.00  0.00    +0.151 C 
BRANCH  10  11
ATOM     11  C   UNL     1       6.820   5.853  15.738  0.00  0.00    -0.028 A 
ATOM     12  C   UNL     1       6.752   4.491  16.063  0.00  0.00    +0.005 A 
ATOM     13  C   UNL     1       8.004   6.553  16.017  0.00  0.00    +0.005 A 
ATOM     14  C   UNL     1       7.851   3.840  16.629  0.00  0.00    +0.000 A 
ATOM     15  C   UNL     1       9.099   5.900  16.583  0.00  0.00    +0.000 A 
ATOM     16  C   UNL     1       9.023   4.543  16.886  0.00  0.00    +0.000 A 
ENDBRANCH  10  11
ENDBRANCH   1  10
TORSDOF 2
ENDMDL
MODEL 7
REMARK VINA RESULT:    -4.233     25.218     26.518
REMARK INTER + INTRA:          -4.868
REMARK INTER:                  -4.727
REMARK INTRA:                  -0.141
REMARK UNBOUND:                -0.140
REMARK  Name = 1550473
REMARK  2 active torsions:
REMARK  status: ('A' for Active; 'I' for Inactive)
REMARK    1  A    between atoms: N_1  and  C_4
REMARK    2  A    between atoms: C_4  and  C_5
REMARK                            x       y       z     vdW  Elec       q    Type
REMARK                         _______ _______ _______ _____ _____    ______ ____
ROOT
ATOM      1  N   UNL     1      -9.836  -9.884   0.118  0.00  0.00    -0.354 N 
ATOM      2  N   UNL     1     -10.356 -11.756   1.380  0.00  0.00    -0.372 N 
ATOM      3  N   UNL     1      -8.152 -11.294   0.937  0.00  0.00    -0.372 N 
ATOM      4  C   UNL     1      -9.442 -10.966   0.803  0.00  0.00    +0.166 C 
ATOM      5  H   UNL     1     -10.830  -9.707   0.028  0.00  0.00    +0.163 HD
ATOM      6  H   UNL     1     -10.089 -12.577   1.906  0.00  0.00    +0.159 HD
ATOM      7  H   UNL     1     -11.346 -11.551   1.327  0.00  0.00    +0.159 HD
ATOM      8  H   UNL     1      -7.414 -10.743   0.521  0.00  0.00    +0.159 HD
ATOM      9  H   UNL     1      -7.866 -12.119   1.450  0.00  0.00    +0.159 HD
ENDROOT
BRANCH   1  10
ATOM     10  C   UNL     1      -8.918  -8.930  -0.502  0.00  0.00    +0.151 C 
BRANCH  10  11
ATOM     11  C   UNL     1      -9.132  -8.940  -1.991  0.00  0.00    -0.028 A 
ATOM     12  C   UNL     1      -8.290  -8.202  -2.835  0.00  0.00    +0.005 A 
ATOM     13  C   UNL     1     -10.171  -9.689  -2.563  0.00  0.00    +0.005 A 
ATOM     14  C   UNL     1      -8.469  -8.234  -4.220  0.00  0.00    +0.000 A 
ATOM     15  C   UNL     1     -10.347  -9.718  -3.946  0.00  0.00    +0.000 A 
ATOM     16  C   UNL     1      -9.495  -8.992  -4.775  0.00  0.00    +0.000 A 
ENDBRANCH  10  11
ENDBRANCH   1  10
TORSDOF 2
ENDMDL
MODEL 8
REMARK VINA RESULT:    -4.146      9.991     11.282
REMARK INTER + INTRA:          -4.771
REMARK INTER:                  -4.643
REMARK INTRA:                  -0.128
REMARK UNBOUND:                -0.140
REMARK  Name = 1550473
REMARK  2 active torsions:
REMARK  status: ('A' for Active; 'I' for Inactive)
REMARK    1  A    between atoms: N_1  and  C_4
REMARK    2  A    between atoms: C_4  and  C_5
REMARK                            x       y       z     vdW  Elec       q    Type
REMARK                         _______ _______ _______ _____ _____    ______ ____
ROOT
ATOM      1  N   UNL     1      13.388  11.234  17.771  0.00  0.00    -0.354 N 
ATOM      2  N   UNL     1      12.798  13.445  17.409  0.00  0.00    -0.372 N 
ATOM      3  N   UNL     1      14.500  12.533  16.169  0.00  0.00    -0.372 N 
ATOM      4  C   UNL     1      13.568  12.389  17.117  0.00  0.00    +0.166 C 
ATOM      5  H   UNL     1      12.685  11.199  18.501  0.00  0.00    +0.163 HD
ATOM      6  H   UNL     1      12.909  14.328  16.930  0.00  0.00    +0.159 HD
ATOM      7  H   UNL     1      12.066  13.393  18.106  0.00  0.00    +0.159 HD
ATOM      8  H   UNL     1      15.117  11.776  15.905  0.00  0.00    +0.159 HD
ATOM      9  H   UNL     1      14.633  13.413  15.686  0.00  0.00    +0.159 HD
ENDROOT
BRANCH   1  10
ATOM     10  C   UNL     1      14.137  10.011  17.492  0.00  0.00    +0.151 C 
BRANCH  10  11
ATOM     11  C   UNL     1      13.337   8.827  17.962  0.00  0.00    -0.028 A 
ATOM     12  C   UNL     1      11.967   8.957  18.235  0.00  0.00    +0.005 A 
ATOM     13  C   UNL     1      13.941   7.572  18.130  0.00  0.00    +0.005 A 
ATOM     14  C   UNL     1      11.217   7.851  18.643  0.00  0.00    +0.000 A 
ATOM     15  C   UNL     1      13.189   6.470  18.538  0.00  0.00    +0.000 A 
ATOM     16  C   UNL     1      11.827   6.609  18.792  0.00  0.00    +0.000 A 
ENDBRANCH  10  11
ENDBRANCH   1  10
TORSDOF 2
ENDMDL
MODEL 9
REMARK VINA RESULT:    -4.105      4.998      6.752
REMARK INTER + INTRA:          -4.725
REMARK INTER:                  -4.606
REMARK INTRA:                  -0.119
REMARK UNBOUND:                -0.140
REMARK  Name = 1550473
REMARK  2 active torsions:
REMARK  status: ('A' for Active; 'I' for Inactive)
REMARK    1  A    between atoms: N_1  and  C_4
REMARK    2  A    between atoms: C_4  and  C_5
REMARK                            x       y       z     vdW  Elec       q    Type
REMARK                         _______ _______ _______ _____ _____    ______ ____
ROOT
ATOM      1  N   UNL     1       8.399   5.386  16.130  0.00  0.00    -0.354 N 
ATOM      2  N   UNL     1       6.116   5.052  16.333  0.00  0.00    -0.372 N 
ATOM      3  N   UNL     1       7.530   3.277  16.670  0.00  0.00    -0.372 N 
ATOM      4  C   UNL     1       7.364   4.571  16.377  0.00  0.00    +0.166 C 
ATOM      5  H   UNL     1       8.204   6.350  15.884  0.00  0.00    +0.163 HD
ATOM      6  H   UNL     1       5.315   4.462  16.517  0.00  0.00    +0.159 HD
ATOM      7  H   UNL     1       5.927   6.027  16.132  0.00  0.00    +0.159 HD
ATOM      8  H   UNL     1       8.446   2.851  16.713  0.00  0.00    +0.159 HD
ATOM      9  H   UNL     1       6.741   2.668  16.846  0.00  0.00    +0.159 HD
ENDROOT
BRANCH   1  10
ATOM     10  C   UNL     1       9.799   4.974  16.205  0.00  0.00    +0.151 C 
BRANCH  10  11
ATOM     11  C   UNL     1      10.560   5.969  17.038  0.00  0.00    -0.028 A 
ATOM     12  C   UNL     1      10.601   7.322  16.669  0.00  0.00    +0.005 A 
ATOM     13  C   UNL     1      11.236   5.567  18.199  0.00  0.00    +0.005 A 
ATOM     14  C   UNL     1      11.283   8.252  17.458  0.00  0.00    +0.000 A 
ATOM     15  C   UNL     1      11.916   6.499  18.984  0.00  0.00    +0.000 A 
ATOM     16  C   UNL     1      11.937   7.841  18.614  0.00  0.00    +0.000 A 
ENDBRANCH  10  11
ENDBRANCH   1  10
TORSDOF 2
ENDMDL
