MODEL 1
REMARK VINA RESULT:    -6.158      0.000      0.000
REMARK INTER + INTRA:          -7.005
REMARK INTER:                  -6.878
REMARK INTRA:                  -0.127
REMARK UNBOUND:                -0.127
REMARK  Name = 1550473
REMARK  2 active torsions:
REMARK  status: ('A' for Active; 'I' for Inactive)
REMARK    1  A    between atoms: N_1  and  C_4
REMARK    2  A    between atoms: C_4  and  C_5
REMARK                            x       y       z     vdW  Elec       q    Type
REMARK                         _______ _______ _______ _____ _____    ______ ____
ROOT
ATOM      1  N   UNL     1       2.946   5.560  -1.735  0.00  0.00    -0.354 N 
ATOM      2  N   UNL     1       2.495   6.765   0.191  0.00  0.00    -0.372 N 
ATOM      3  N   UNL     1       1.334   4.825  -0.202  0.00  0.00    -0.372 N 
ATOM      4  C   UNL     1       2.259   5.707  -0.594  0.00  0.00    +0.166 C 
ATOM      5  H   UNL     1       3.613   6.279  -1.991  0.00  0.00    +0.163 HD
ATOM      6  H   UNL     1       1.994   6.900   1.059  0.00  0.00    +0.159 HD
ATOM      7  H   UNL     1       3.194   7.458  -0.045  0.00  0.00    +0.159 HD
ATOM      8  H   UNL     1       1.104   4.008  -0.753  0.00  0.00    +0.159 HD
ATOM      9  H   UNL     1       0.814   4.949   0.658  0.00  0.00    +0.159 HD
ENDROOT
BRANCH   1  10
ATOM     10  C   UNL     1       2.804   4.416  -2.634  0.00  0.00    +0.151 C 
BRANCH  10  11
ATOM     11  C   UNL     1       4.106   4.190  -3.352  0.00  0.00    -0.028 A 
ATOM     12  C   UNL     1       5.093   5.187  -3.367  0.00  0.00    +0.005 A 
ATOM     13  C   UNL     1       4.362   2.979  -4.013  0.00  0.00    +0.005 A 
ATOM     14  C   UNL     1       6.314   4.966  -4.008  0.00  0.00    +0.000 A 
ATOM     15  C   UNL     1       5.582   2.763  -4.652  0.00  0.00    +0.000 A 
ATOM     16  C   UNL     1       6.559   3.756  -4.647  0.00  0.00    +0.000 A 
ENDBRANCH  10  11
ENDBRANCH   1  10
TORSDOF 2
ENDMDL
MODEL 2
REMARK VINA RESULT:    -5.841      1.369      2.172
REMARK INTER + INTRA:          -6.651
REMARK INTER:                  -6.514
REMARK INTRA:                  -0.137
REMARK UNBOUND:                -0.127
REMARK  Name = 1550473
REMARK  2 active torsions:
REMARK  status: ('A' for Active; 'I' for Inactive)
REMARK    1  A    between atoms: N_1  and  C_4
REMARK    2  A    between atoms: C_4  and  C_5
REMARK                            x       y       z     vdW  Elec       q    Type
REMARK                         _______ _______ _______ _____ _____    ______ ____
ROOT
ATOM      1  N   UNL     1       2.703   4.112  -1.194  0.00  0.00    -0.354 N 
ATOM      2  N   UNL     1       0.937   2.892  -0.324  0.00  0.00    -0.372 N 
ATOM      3  N   UNL     1       0.483   4.720  -1.635  0.00  0.00    -0.372 N 
ATOM      4  C   UNL     1       1.385   3.918  -1.058  0.00  0.00    +0.166 C 
ATOM      5  H   UNL     1       3.334   3.487  -0.706  0.00  0.00    +0.163 HD
ATOM      6  H   UNL     1      -0.052   2.719  -0.207  0.00  0.00    +0.159 HD
ATOM      7  H   UNL     1       1.570   2.242   0.125  0.00  0.00    +0.159 HD
ATOM      8  H   UNL     1       0.756   5.515  -2.197  0.00  0.00    +0.159 HD
ATOM      9  H   UNL     1      -0.511   4.569  -1.520  0.00  0.00    +0.159 HD
ENDROOT
BRANCH   1  10
ATOM     10  C   UNL     1       3.294   5.168  -2.015  0.00  0.00    +0.151 C 
BRANCH  10  11
ATOM     11  C   UNL     1       4.356   4.568  -2.895  0.00  0.00    -0.028 A 
ATOM     12  C   UNL     1       4.300   3.215  -3.258  0.00  0.00    +0.005 A 
ATOM     13  C   UNL     1       5.419   5.350  -3.373  0.00  0.00    +0.005 A 
ATOM     14  C   UNL     1       5.270   2.665  -4.100  0.00  0.00    +0.000 A 
ATOM     15  C   UNL     1       6.386   4.798  -4.213  0.00  0.00    +0.000 A 
ATOM     16  C   UNL     1       6.309   3.456  -4.578  0.00  0.00    +0.000 A 
ENDBRANCH  10  11
ENDBRANCH   1  10
TORSDOF 2
ENDMDL
MODEL 3
REMARK VINA RESULT:    -5.440      1.789      2.529
REMARK INTER + INTRA:          -6.202
REMARK INTER:                  -6.225
REMARK INTRA:                   0.023
REMARK UNBOUND:                -0.127
REMARK  Name = 1550473
REMARK  2 active torsions:
REMARK  status: ('A' for Active; 'I' for Inactive)
REMARK    1  A    between atoms: N_1  and  C_4
REMARK    2  A    between atoms: C_4  and  C_5
REMARK                            x       y       z     vdW  Elec       q    Type
REMARK                         _______ _______ _______ _____ _____    ______ ____
ROOT
ATOM      1  N   UNL     1       1.770   2.940  -0.683  0.00  0.00    -0.354 N 
ATOM      2  N   UNL     1      -0.378   3.753  -0.389  0.00  0.00    -0.372 N 
ATOM      3  N   UNL     1       1.384   5.220  -0.306  0.00  0.00    -0.372 N 
ATOM      4  C   UNL     1       0.941   3.968  -0.461  0.00  0.00    +0.166 C 
ATOM      5  H   UNL     1       1.374   2.010  -0.762  0.00  0.00    +0.163 HD
ATOM      6  H   UNL     1      -1.029   4.510  -0.226  0.00  0.00    +0.159 HD
ATOM      7  H   UNL     1      -0.775   2.830  -0.514  0.00  0.00    +0.159 HD
ATOM      8  H   UNL     1       2.368   5.448  -0.343  0.00  0.00    +0.159 HD
ATOM      9  H   UNL     1       0.749   5.989  -0.130  0.00  0.00    +0.159 HD
ENDROOT
BRANCH   1  10
ATOM     10  C   UNL     1       3.218   3.075  -0.832  0.00  0.00    +0.151 C 
BRANCH  10  11
ATOM     11  C   UNL     1       3.565   3.061  -2.295  0.00  0.00    -0.028 A 
ATOM     12  C   UNL     1       4.862   2.735  -2.716  0.00  0.00    +0.005 A 
ATOM     13  C   UNL     1       2.599   3.369  -3.266  0.00  0.00    +0.005 A 
ATOM     14  C   UNL     1       5.177   2.693  -4.077  0.00  0.00    +0.000 A 
ATOM     15  C   UNL     1       2.917   3.327  -4.623  0.00  0.00    +0.000 A 
ATOM     16  C   UNL     1       4.206   2.987  -5.028  0.00  0.00    +0.000 A 
ENDBRANCH  10  11
ENDBRANCH   1  10
TORSDOF 2
ENDMDL
MODEL 4
REMARK VINA RESULT:    -5.373      7.125      8.428
REMARK INTER + INTRA:          -6.128
REMARK INTER:                  -5.982
REMARK INTRA:                  -0.146
REMARK UNBOUND:                -0.127
REMARK  Name = 1550473
REMARK  2 active torsions:
REMARK  status: ('A' for Active; 'I' for Inactive)
REMARK    1  A    between atoms: N_1  and  C_4
REMARK    2  A    between atoms: C_4  and  C_5
REMARK                            x       y       z     vdW  Elec       q    Type
REMARK                         _______ _______ _______ _____ _____    ______ ____
ROOT
ATOM      1  N   UNL     1       2.183   9.110   2.898  0.00  0.00    -0.354 N 
ATOM      2  N   UNL     1       0.329  10.307   3.600  0.00  0.00    -0.372 N 
ATOM      3  N   UNL     1       0.592   8.144   4.321  0.00  0.00    -0.372 N 
ATOM      4  C   UNL     1       1.046   9.177   3.603  0.00  0.00    +0.166 C 
ATOM      5  H   UNL     1       2.458   9.918   2.349  0.00  0.00    +0.163 HD
ATOM      6  H   UNL     1      -0.531  10.388   4.126  0.00  0.00    +0.159 HD
ATOM      7  H   UNL     1       0.629  11.127   3.088  0.00  0.00    +0.159 HD
ATOM      8  H   UNL     1       1.084   7.262   4.360  0.00  0.00    +0.159 HD
ATOM      9  H   UNL     1      -0.273   8.202   4.844  0.00  0.00    +0.159 HD
ENDROOT
BRANCH   1  10
ATOM     10  C   UNL     1       3.065   7.945   2.876  0.00  0.00    +0.151 C 
BRANCH  10  11
ATOM     11  C   UNL     1       4.057   8.059   4.001  0.00  0.00    -0.028 A 
ATOM     12  C   UNL     1       4.715   9.273   4.250  0.00  0.00    +0.005 A 
ATOM     13  C   UNL     1       4.340   6.959   4.825  0.00  0.00    +0.005 A 
ATOM     14  C   UNL     1       5.614   9.388   5.313  0.00  0.00    +0.000 A 
ATOM     15  C   UNL     1       5.238   7.078   5.885  0.00  0.00    +0.000 A 
ATOM     16  C   UNL     1       5.873   8.293   6.130  0.00  0.00    +0.000 A 
ENDBRANCH  10  11
ENDBRANCH   1  10
TORSDOF 2
ENDMDL
MODEL 5
REMARK VINA RESULT:    -5.265     11.672     12.753
REMARK INTER + INTRA:          -6.008
REMARK INTER:                  -5.906
REMARK INTRA:                  -0.102
REMARK UNBOUND:                -0.127
REMARK  Name = 1550473
REMARK  2 active torsions:
REMARK  status: ('A' for Active; 'I' for Inactive)
REMARK    1  A    between atoms: N_1  and  C_4
REMARK    2  A    between atoms: C_4  and  C_5
REMARK                            x       y       z     vdW  Elec       q    Type
REMARK                         _______ _______ _______ _____ _____    ______ ____
ROOT
ATOM      1  N   UNL     1      15.165   0.475   0.065  0.00  0.00    -0.354 N 
ATOM      2  N   UNL     1      15.808   2.204  -1.336  0.00  0.00    -0.372 N 
ATOM      3  N   UNL     1      14.448   2.672   0.452  0.00  0.00    -0.372 N 
ATOM      4  C   UNL     1      15.134   1.774  -0.262  0.00  0.00    +0.166 C 
ATOM      5  H   UNL     1      15.679  -0.160  -0.535  0.00  0.00    +0.163 HD
ATOM      6  H   UNL     1      15.807   3.178  -1.605  0.00  0.00    +0.159 HD
ATOM      7  H   UNL     1      16.359   1.574  -1.906  0.00  0.00    +0.159 HD
ATOM      8  H   UNL     1      13.914   2.411   1.270  0.00  0.00    +0.159 HD
ATOM      9  H   UNL     1      14.424   3.650   0.191  0.00  0.00    +0.159 HD
ENDROOT
BRANCH   1  10
ATOM     10  C   UNL     1      14.510  -0.087   1.244  0.00  0.00    +0.151 C 
BRANCH  10  11
ATOM     11  C   UNL     1      14.184  -1.532   0.984  0.00  0.00    -0.028 A 
ATOM     12  C   UNL     1      15.200  -2.445   0.666  0.00  0.00    +0.005 A 
ATOM     13  C   UNL     1      12.861  -1.995   1.060  0.00  0.00    +0.005 A 
ATOM     14  C   UNL     1      14.901  -3.793   0.453  0.00  0.00    +0.000 A 
ATOM     15  C   UNL     1      12.567  -3.342   0.846  0.00  0.00    +0.000 A 
ATOM     16  C   UNL     1      13.588  -4.241   0.545  0.00  0.00    +0.000 A 
ENDBRANCH  10  11
ENDBRANCH   1  10
TORSDOF 2
ENDMDL
MODEL 6
REMARK VINA RESULT:    -5.067      7.850      9.200
REMARK INTER + INTRA:          -5.787
REMARK INTER:                  -5.661
REMARK INTRA:                  -0.126
REMARK UNBOUND:                -0.127
REMARK  Name = 1550473
REMARK  2 active torsions:
REMARK  status: ('A' for Active; 'I' for Inactive)
REMARK    1  A    between atoms: N_1  and  C_4
REMARK    2  A    between atoms: C_4  and  C_5
REMARK                            x       y       z     vdW  Elec       q    Type
REMARK                         _______ _______ _______ _____ _____    ______ ____
ROOT
ATOM      1  N   UNL     1       4.573   6.740   5.199  0.00  0.00    -0.354 N 
ATOM      2  N   UNL     1       5.933   5.667   6.736  0.00  0.00    -0.372 N 
ATOM      3  N   UNL     1       4.403   4.430   5.554  0.00  0.00    -0.372 N 
ATOM      4  C   UNL     1       4.959   5.617   5.819  0.00  0.00    +0.166 C 
ATOM      5  H   UNL     1       5.013   7.613   5.466  0.00  0.00    +0.163 HD
ATOM      6  H   UNL     1       6.248   4.835   7.217  0.00  0.00    +0.159 HD
ATOM      7  H   UNL     1       6.402   6.533   6.968  0.00  0.00    +0.159 HD
ATOM      8  H   UNL     1       3.660   4.326   4.876  0.00  0.00    +0.159 HD
ATOM      9  H   UNL     1       4.697   3.588   6.034  0.00  0.00    +0.159 HD
ENDROOT
BRANCH   1  10
ATOM     10  C   UNL     1       3.559   6.786   4.147  0.00  0.00    +0.151 C 
BRANCH  10  11
ATOM     11  C   UNL     1       2.869   8.122   4.187  0.00  0.00    -0.028 A 
ATOM     12  C   UNL     1       1.617   8.296   3.579  0.00  0.00    +0.005 A 
ATOM     13  C   UNL     1       3.460   9.217   4.836  0.00  0.00    +0.005 A 
ATOM     14  C   UNL     1       0.963   9.528   3.642  0.00  0.00    +0.000 A 
ATOM     15  C   UNL     1       2.804  10.446   4.896  0.00  0.00    +0.000 A 
ATOM     16  C   UNL     1       1.554  10.601   4.301  0.00  0.00    +0.000 A 
ENDBRANCH  10  11
ENDBRANCH   1  10
TORSDOF 2
ENDMDL
MODEL 7
REMARK VINA RESULT:    -4.818     11.629     12.426
REMARK INTER + INTRA:          -5.508
REMARK INTER:                  -5.364
REMARK INTRA:                  -0.144
REMARK UNBOUND:                -0.127
REMARK  Name = 1550473
REMARK  2 active torsions:
REMARK  status: ('A' for Active; 'I' for Inactive)
REMARK    1  A    between atoms: N_1  and  C_4
REMARK    2  A    between atoms: C_4  and  C_5
REMARK                            x       y       z     vdW  Elec       q    Type
REMARK                         _______ _______ _______ _____ _____    ______ ____
ROOT
ATOM      1  N   UNL     1      14.795   3.161  -0.032  0.00  0.00    -0.354 N 
ATOM      2  N   UNL     1      14.459   5.051   1.263  0.00  0.00    -0.372 N 
ATOM      3  N   UNL     1      16.607   4.354   0.855  0.00  0.00    -0.372 N 
ATOM      4  C   UNL     1      15.292   4.176   0.687  0.00  0.00    +0.166 C 
ATOM      5  H   UNL     1      13.788   3.064  -0.096  0.00  0.00    +0.163 HD
ATOM      6  H   UNL     1      14.805   5.829   1.809  0.00  0.00    +0.159 HD
ATOM      7  H   UNL     1      13.454   4.978   1.159  0.00  0.00    +0.159 HD
ATOM      8  H   UNL     1      17.288   3.726   0.451  0.00  0.00    +0.159 HD
ATOM      9  H   UNL     1      16.972   5.120   1.407  0.00  0.00    +0.159 HD
ENDROOT
BRANCH   1  10
ATOM     10  C   UNL     1      15.617   2.184  -0.745  0.00  0.00    +0.151 C 
BRANCH  10  11
ATOM     11  C   UNL     1      15.303   0.807  -0.228  0.00  0.00    -0.028 A 
ATOM     12  C   UNL     1      16.013  -0.308  -0.696  0.00  0.00    +0.005 A 
ATOM     13  C   UNL     1      14.300   0.612   0.733  0.00  0.00    +0.005 A 
ATOM     14  C   UNL     1      15.742  -1.583  -0.194  0.00  0.00    +0.000 A 
ATOM     15  C   UNL     1      14.032  -0.663   1.231  0.00  0.00    +0.000 A 
ATOM     16  C   UNL     1      14.755  -1.760   0.769  0.00  0.00    +0.000 A 
ENDBRANCH  10  11
ENDBRANCH   1  10
TORSDOF 2
ENDMDL
MODEL 8
REMARK VINA RESULT:    -4.790     21.546     22.928
REMARK INTER + INTRA:          -5.477
REMARK INTER:                  -5.382
REMARK INTRA:                  -0.095
REMARK UNBOUND:                -0.127
REMARK  Name = 1550473
REMARK  2 active torsions:
REMARK  status: ('A' for Active; 'I' for Inactive)
REMARK    1  A    between atoms: N_1  and  C_4
REMARK    2  A    between atoms: C_4  and  C_5
REMARK                            x       y       z     vdW  Elec       q    Type
REMARK                         _______ _______ _______ _____ _____    ______ ____
ROOT
ATOM      1  N   UNL     1     -19.870   5.970  -7.537  0.00  0.00    -0.354 N 
ATOM      2  N   UNL     1     -22.000   6.539  -6.828  0.00  0.00    -0.372 N 
ATOM      3  N   UNL     1     -21.570   4.362  -7.414  0.00  0.00    -0.372 N 
ATOM      4  C   UNL     1     -21.133   5.617  -7.265  0.00  0.00    +0.166 C 
ATOM      5  H   UNL     1     -19.609   6.943  -7.432  0.00  0.00    +0.163 HD
ATOM      6  H   UNL     1     -22.958   6.301  -6.611  0.00  0.00    +0.159 HD
ATOM      7  H   UNL     1     -21.724   7.502  -6.680  0.00  0.00    +0.159 HD
ATOM      8  H   UNL     1     -20.968   3.621  -7.746  0.00  0.00    +0.159 HD
ATOM      9  H   UNL     1     -22.529   4.108  -7.214  0.00  0.00    +0.159 HD
ENDROOT
BRANCH   1  10
ATOM     10  C   UNL     1     -18.834   5.032  -7.968  0.00  0.00    +0.151 C 
BRANCH  10  11
ATOM     11  C   UNL     1     -17.484   5.663  -7.761  0.00  0.00    -0.028 A 
ATOM     12  C   UNL     1     -16.847   6.342  -8.811  0.00  0.00    +0.005 A 
ATOM     13  C   UNL     1     -16.840   5.591  -6.517  0.00  0.00    +0.005 A 
ATOM     14  C   UNL     1     -15.608   6.954  -8.611  0.00  0.00    +0.000 A 
ATOM     15  C   UNL     1     -15.601   6.203  -6.322  0.00  0.00    +0.000 A 
ATOM     16  C   UNL     1     -14.987   6.886  -7.369  0.00  0.00    +0.000 A 
ENDBRANCH  10  11
ENDBRANCH   1  10
TORSDOF 2
ENDMDL
MODEL 9
REMARK VINA RESULT:    -4.721      7.815      8.744
REMARK INTER + INTRA:          -5.400
REMARK INTER:                  -5.217
REMARK INTRA:                  -0.183
REMARK UNBOUND:                -0.127
REMARK  Name = 1550473
REMARK  2 active torsions:
REMARK  status: ('A' for Active; 'I' for Inactive)
REMARK    1  A    between atoms: N_1  and  C_4
REMARK    2  A    between atoms: C_4  and  C_5
REMARK                            x       y       z     vdW  Elec       q    Type
REMARK                         _______ _______ _______ _____ _____    ______ ____
ROOT
ATOM      1  N   UNL     1       3.256  10.678   3.947  0.00  0.00    -0.354 N 
ATOM      2  N   UNL     1       1.529  11.851   4.949  0.00  0.00    -0.372 N 
ATOM      3  N   UNL     1       1.020  10.077   3.585  0.00  0.00    -0.372 N 
ATOM      4  C   UNL     1       1.945  10.859   4.152  0.00  0.00    +0.166 C 
ATOM      5  H   UNL     1       3.906  11.324   4.381  0.00  0.00    +0.163 HD
ATOM      6  H   UNL     1       0.546  12.010   5.125  0.00  0.00    +0.159 HD
ATOM      7  H   UNL     1       2.182  12.467   5.418  0.00  0.00    +0.159 HD
ATOM      8  H   UNL     1       1.268   9.315   2.969  0.00  0.00    +0.159 HD
ATOM      9  H   UNL     1       0.031  10.228   3.741  0.00  0.00    +0.159 HD
ENDROOT
BRANCH   1  10
ATOM     10  C   UNL     1       3.816   9.594   3.140  0.00  0.00    +0.151 C 
BRANCH  10  11
ATOM     11  C   UNL     1       4.240   8.474   4.049  0.00  0.00    -0.028 A 
ATOM     12  C   UNL     1       3.611   7.223   3.978  0.00  0.00    +0.005 A 
ATOM     13  C   UNL     1       5.275   8.656   4.979  0.00  0.00    +0.005 A 
ATOM     14  C   UNL     1       4.025   6.173   4.802  0.00  0.00    +0.000 A 
ATOM     15  C   UNL     1       5.685   7.606   5.800  0.00  0.00    +0.000 A 
ATOM     16  C   UNL     1       5.062   6.364   5.709  0.00  0.00    +0.000 A 
ENDBRANCH  10  11
ENDBRANCH   1  10
TORSDOF 2
ENDMDL
