MODEL 1
REMARK VINA RESULT:    -5.148      0.000      0.000
REMARK INTER + INTRA:          -5.852
REMARK INTER:                  -5.750
REMARK INTRA:                  -0.103
REMARK UNBOUND:                -0.103
REMARK  Name = 1550473
REMARK  2 active torsions:
REMARK  status: ('A' for Active; 'I' for Inactive)
REMARK    1  A    between atoms: N_1  and  C_4
REMARK    2  A    between atoms: C_4  and  C_5
REMARK                            x       y       z     vdW  Elec       q    Type
REMARK                         _______ _______ _______ _____ _____    ______ ____
ROOT
ATOM      1  N   UNL     1     -13.350 -11.593 -24.349  0.00  0.00    -0.354 N 
ATOM      2  N   UNL     1     -11.253 -11.790 -23.386  0.00  0.00    -0.372 N 
ATOM      3  N   UNL     1     -12.551 -13.669 -23.610  0.00  0.00    -0.372 N 
ATOM      4  C   UNL     1     -12.400 -12.352 -23.788  0.00  0.00    +0.166 C 
ATOM      5  H   UNL     1     -13.186 -10.596 -24.428  0.00  0.00    +0.163 HD
ATOM      6  H   UNL     1     -10.516 -12.338 -22.963  0.00  0.00    +0.159 HD
ATOM      7  H   UNL     1     -11.073 -10.801 -23.508  0.00  0.00    +0.159 HD
ATOM      8  H   UNL     1     -13.396 -14.152 -23.886  0.00  0.00    +0.159 HD
ATOM      9  H   UNL     1     -11.830 -14.232 -23.177  0.00  0.00    +0.159 HD
ENDROOT
BRANCH   1  10
ATOM     10  C   UNL     1     -14.613 -12.116 -24.869  0.00  0.00    +0.151 C 
BRANCH  10  11
ATOM     11  C   UNL     1     -15.201 -11.116 -25.826  0.00  0.00    -0.028 A 
ATOM     12  C   UNL     1     -15.585 -11.507 -27.117  0.00  0.00    +0.005 A 
ATOM     13  C   UNL     1     -15.383  -9.777 -25.445  0.00  0.00    +0.005 A 
ATOM     14  C   UNL     1     -16.159 -10.585 -27.996  0.00  0.00    +0.000 A 
ATOM     15  C   UNL     1     -15.956  -8.860 -26.326  0.00  0.00    +0.000 A 
ATOM     16  C   UNL     1     -16.346  -9.265 -27.600  0.00  0.00    +0.000 A 
ENDBRANCH  10  11
ENDBRANCH   1  10
TORSDOF 2
ENDMDL
MODEL 2
REMARK VINA RESULT:    -5.130     47.920     48.918
REMARK INTER + INTRA:          -5.832
REMARK INTER:                  -5.694
REMARK INTRA:                  -0.138
REMARK UNBOUND:                -0.103
REMARK  Name = 1550473
REMARK  2 active torsions:
REMARK  status: ('A' for Active; 'I' for Inactive)
REMARK    1  A    between atoms: N_1  and  C_4
REMARK    2  A    between atoms: C_4  and  C_5
REMARK                            x       y       z     vdW  Elec       q    Type
REMARK                         _______ _______ _______ _____ _____    ______ ____
ROOT
ATOM      1  N   UNL     1     -11.557  15.578  13.407  0.00  0.00    -0.354 N 
ATOM      2  N   UNL     1     -11.242  14.799  11.248  0.00  0.00    -0.372 N 
ATOM      3  N   UNL     1     -13.352  14.750  12.148  0.00  0.00    -0.372 N 
ATOM      4  C   UNL     1     -12.055  15.047  12.282  0.00  0.00    +0.166 C 
ATOM      5  H   UNL     1     -10.560  15.752  13.456  0.00  0.00    +0.163 HD
ATOM      6  H   UNL     1     -11.590  14.402  10.386  0.00  0.00    +0.159 HD
ATOM      7  H   UNL     1     -10.254  15.016  11.284  0.00  0.00    +0.159 HD
ATOM      8  H   UNL     1     -14.017  14.908  12.894  0.00  0.00    +0.159 HD
ATOM      9  H   UNL     1     -13.718  14.341  11.297  0.00  0.00    +0.159 HD
ENDROOT
BRANCH   1  10
ATOM     10  C   UNL     1     -12.366  15.936  14.570  0.00  0.00    +0.151 C 
BRANCH  10  11
ATOM     11  C   UNL     1     -12.003  17.327  15.011  0.00  0.00    -0.028 A 
ATOM     12  C   UNL     1     -11.686  17.589  16.352  0.00  0.00    +0.005 A 
ATOM     13  C   UNL     1     -11.970  18.387  14.092  0.00  0.00    +0.005 A 
ATOM     14  C   UNL     1     -11.320  18.875  16.757  0.00  0.00    +0.000 A 
ATOM     15  C   UNL     1     -11.605  19.670  14.500  0.00  0.00    +0.000 A 
ATOM     16  C   UNL     1     -11.278  19.913  15.832  0.00  0.00    +0.000 A 
ENDBRANCH  10  11
ENDBRANCH   1  10
TORSDOF 2
ENDMDL
MODEL 3
REMARK VINA RESULT:    -4.960     47.258     48.263
REMARK INTER + INTRA:          -5.642
REMARK INTER:                  -5.492
REMARK INTRA:                  -0.150
REMARK UNBOUND:                -0.103
REMARK  Name = 1550473
REMARK  2 active torsions:
REMARK  status: ('A' for Active; 'I' for Inactive)
REMARK    1  A    between atoms: N_1  and  C_4
REMARK    2  A    between atoms: C_4  and  C_5
REMARK                            x       y       z     vdW  Elec       q    Type
REMARK                         _______ _______ _______ _____ _____    ______ ____
ROOT
ATOM      1  N   UNL     1     -12.645  16.851  11.584  0.00  0.00    -0.354 N 
ATOM      2  N   UNL     1     -11.892  15.826   9.649  0.00  0.00    -0.372 N 
ATOM      3  N   UNL     1     -11.112  15.081  11.674  0.00  0.00    -0.372 N 
ATOM      4  C   UNL     1     -11.887  15.925  10.983  0.00  0.00    +0.166 C 
ATOM      5  H   UNL     1     -13.187  17.481  11.003  0.00  0.00    +0.163 HD
ATOM      6  H   UNL     1     -11.333  15.135   9.167  0.00  0.00    +0.159 HD
ATOM      7  H   UNL     1     -12.469  16.427   9.072  0.00  0.00    +0.159 HD
ATOM      8  H   UNL     1     -11.059  15.107  12.683  0.00  0.00    +0.159 HD
ATOM      9  H   UNL     1     -10.536  14.390  11.210  0.00  0.00    +0.159 HD
ENDROOT
BRANCH   1  10
ATOM     10  C   UNL     1     -12.752  17.006  13.034  0.00  0.00    +0.151 C 
BRANCH  10  11
ATOM     11  C   UNL     1     -12.192  18.345  13.428  0.00  0.00    -0.028 A 
ATOM     12  C   UNL     1     -11.853  18.610  14.763  0.00  0.00    +0.005 A 
ATOM     13  C   UNL     1     -11.992  19.350  12.469  0.00  0.00    +0.005 A 
ATOM     14  C   UNL     1     -11.304  19.843  15.124  0.00  0.00    +0.000 A 
ATOM     15  C   UNL     1     -11.445  20.580  12.834  0.00  0.00    +0.000 A 
ATOM     16  C   UNL     1     -11.099  20.825  14.161  0.00  0.00    +0.000 A 
ENDBRANCH  10  11
ENDBRANCH   1  10
TORSDOF 2
ENDMDL
MODEL 4
REMARK VINA RESULT:    -4.840     38.275     39.612
REMARK INTER + INTRA:          -5.509
REMARK INTER:                  -5.370
REMARK INTRA:                  -0.138
REMARK UNBOUND:                -0.103
REMARK  Name = 1550473
REMARK  2 active torsions:
REMARK  status: ('A' for Active; 'I' for Inactive)
REMARK    1  A    between atoms: N_1  and  C_4
REMARK    2  A    between atoms: C_4  and  C_5
REMARK                            x       y       z     vdW  Elec       q    Type
REMARK                         _______ _______ _______ _____ _____    ______ ____
ROOT
ATOM      1  N   UNL     1      22.304 -14.816 -40.028  0.00  0.00    -0.354 N 
ATOM      2  N   UNL     1      22.459 -14.865 -37.717  0.00  0.00    -0.372 N 
ATOM      3  N   UNL     1      24.260 -14.130 -38.935  0.00  0.00    -0.372 N 
ATOM      4  C   UNL     1      23.010 -14.603 -38.909  0.00  0.00    +0.166 C 
ATOM      5  H   UNL     1      21.371 -15.204 -39.942  0.00  0.00    +0.163 HD
ATOM      6  H   UNL     1      22.966 -14.711 -36.856  0.00  0.00    +0.159 HD
ATOM      7  H   UNL     1      21.511 -15.210 -37.633  0.00  0.00    +0.159 HD
ATOM      8  H   UNL     1      24.735 -13.918 -39.802  0.00  0.00    +0.159 HD
ATOM      9  H   UNL     1      24.788 -13.980 -38.084  0.00  0.00    +0.159 HD
ENDROOT
BRANCH   1  10
ATOM     10  C   UNL     1      22.791 -14.512 -41.372  0.00  0.00    +0.151 C 
BRANCH  10  11
ATOM     11  C   UNL     1      21.786 -13.641 -42.073  0.00  0.00    -0.028 A 
ATOM     12  C   UNL     1      21.903 -13.382 -43.447  0.00  0.00    +0.005 A 
ATOM     13  C   UNL     1      20.710 -13.076 -41.371  0.00  0.00    +0.005 A 
ATOM     14  C   UNL     1      20.953 -12.597 -44.105  0.00  0.00    +0.000 A 
ATOM     15  C   UNL     1      19.763 -12.293 -42.032  0.00  0.00    +0.000 A 
ATOM     16  C   UNL     1      19.884 -12.056 -43.399  0.00  0.00    +0.000 A 
ENDBRANCH  10  11
ENDBRANCH   1  10
TORSDOF 2
ENDMDL
MODEL 5
REMARK VINA RESULT:    -4.640     52.542     53.799
REMARK INTER + INTRA:          -5.285
REMARK INTER:                  -5.142
REMARK INTRA:                  -0.142
REMARK UNBOUND:                -0.103
REMARK  Name = 1550473
REMARK  2 active torsions:
REMARK  status: ('A' for Active; 'I' for Inactive)
REMARK    1  A    between atoms: N_1  and  C_4
REMARK    2  A    between atoms: C_4  and  C_5
REMARK                            x       y       z     vdW  Elec       q    Type
REMARK                         _______ _______ _______ _____ _____    ______ ____
ROOT
ATOM      1  N   UNL     1      -6.514  10.040  23.448  0.00  0.00    -0.354 N 
ATOM      2  N   UNL     1      -4.834  11.625  23.268  0.00  0.00    -0.372 N 
ATOM      3  N   UNL     1      -5.299  10.290  21.460  0.00  0.00    -0.372 N 
ATOM      4  C   UNL     1      -5.559  10.640  22.724  0.00  0.00    +0.166 C 
ATOM      5  H   UNL     1      -6.642  10.331  24.411  0.00  0.00    +0.163 HD
ATOM      6  H   UNL     1      -4.110  12.098  22.745  0.00  0.00    +0.159 HD
ATOM      7  H   UNL     1      -4.995  11.944  24.215  0.00  0.00    +0.159 HD
ATOM      8  H   UNL     1      -5.806   9.551  20.993  0.00  0.00    +0.159 HD
ATOM      9  H   UNL     1      -4.570  10.745  20.924  0.00  0.00    +0.159 HD
ENDROOT
BRANCH   1  10
ATOM     10  C   UNL     1      -7.395   8.994  22.932  0.00  0.00    +0.151 C 
BRANCH  10  11
ATOM     11  C   UNL     1      -7.374   7.824  23.877  0.00  0.00    -0.028 A 
ATOM     12  C   UNL     1      -6.879   7.970  25.181  0.00  0.00    +0.005 A 
ATOM     13  C   UNL     1      -7.853   6.568  23.476  0.00  0.00    +0.005 A 
ATOM     14  C   UNL     1      -6.886   6.891  26.068  0.00  0.00    +0.000 A 
ATOM     15  C   UNL     1      -7.858   5.492  24.364  0.00  0.00    +0.000 A 
ATOM     16  C   UNL     1      -7.377   5.655  25.661  0.00  0.00    +0.000 A 
ENDBRANCH  10  11
ENDBRANCH   1  10
TORSDOF 2
ENDMDL
MODEL 6
REMARK VINA RESULT:    -4.538     32.173     33.629
REMARK INTER + INTRA:          -5.171
REMARK INTER:                  -5.028
REMARK INTRA:                  -0.143
REMARK UNBOUND:                -0.103
REMARK  Name = 1550473
REMARK  2 active torsions:
REMARK  status: ('A' for Active; 'I' for Inactive)
REMARK    1  A    between atoms: N_1  and  C_4
REMARK    2  A    between atoms: C_4  and  C_5
REMARK                            x       y       z     vdW  Elec       q    Type
REMARK                         _______ _______ _______ _____ _____    ______ ____
ROOT
ATOM      1  N   UNL     1       2.114   9.378  -2.235  0.00  0.00    -0.354 N 
ATOM      2  N   UNL     1       3.861  10.596  -1.325  0.00  0.00    -0.372 N 
ATOM      3  N   UNL     1       4.075   8.319  -1.509  0.00  0.00    -0.372 N 
ATOM      4  C   UNL     1       3.339   9.421  -1.695  0.00  0.00    +0.166 C 
ATOM      5  H   UNL     1       1.596  10.245  -2.322  0.00  0.00    +0.163 HD
ATOM      6  H   UNL     1       4.784  10.660  -0.918  0.00  0.00    +0.159 HD
ATOM      7  H   UNL     1       3.359  11.466  -1.455  0.00  0.00    +0.159 HD
ATOM      8  H   UNL     1       3.736   7.401  -1.762  0.00  0.00    +0.159 HD
ATOM      9  H   UNL     1       4.997   8.362  -1.093  0.00  0.00    +0.159 HD
ENDROOT
BRANCH   1  10
ATOM     10  C   UNL     1       1.477   8.155  -2.721  0.00  0.00    +0.151 C 
BRANCH  10  11
ATOM     11  C   UNL     1       1.141   8.322  -4.178  0.00  0.00    -0.028 A 
ATOM     12  C   UNL     1       2.057   7.939  -5.168  0.00  0.00    +0.005 A 
ATOM     13  C   UNL     1      -0.095   8.857  -4.573  0.00  0.00    +0.005 A 
ATOM     14  C   UNL     1       1.733   8.066  -6.521  0.00  0.00    +0.000 A 
ATOM     15  C   UNL     1      -0.414   8.983  -5.925  0.00  0.00    +0.000 A 
ATOM     16  C   UNL     1       0.499   8.585  -6.899  0.00  0.00    +0.000 A 
ENDBRANCH  10  11
ENDBRANCH   1  10
TORSDOF 2
ENDMDL
MODEL 7
REMARK VINA RESULT:    -4.521     63.748     65.071
REMARK INTER + INTRA:          -5.152
REMARK INTER:                  -5.003
REMARK INTRA:                  -0.149
REMARK UNBOUND:                -0.103
REMARK  Name = 1550473
REMARK  2 active torsions:
REMARK  status: ('A' for Active; 'I' for Inactive)
REMARK    1  A    between atoms: N_1  and  C_4
REMARK    2  A    between atoms: C_4  and  C_5
REMARK                            x       y       z     vdW  Elec       q    Type
REMARK                         _______ _______ _______ _____ _____    ______ ____
ROOT
ATOM      1  N   UNL     1      10.545  -4.643  34.828  0.00  0.00    -0.354 N 
ATOM      2  N   UNL     1       9.529  -5.374  36.777  0.00  0.00    -0.372 N 
ATOM      3  N   UNL     1       8.572  -5.906  34.761  0.00  0.00    -0.372 N 
ATOM      4  C   UNL     1       9.553  -5.303  35.441  0.00  0.00    +0.166 C 
ATOM      5  H   UNL     1      11.242  -4.182  35.401  0.00  0.00    +0.163 HD
ATOM      6  H   UNL     1       8.796  -5.868  37.267  0.00  0.00    +0.159 HD
ATOM      7  H   UNL     1      10.253  -4.951  37.346  0.00  0.00    +0.159 HD
ATOM      8  H   UNL     1       8.529  -5.885  33.750  0.00  0.00    +0.159 HD
ATOM      9  H   UNL     1       7.823  -6.396  35.233  0.00  0.00    +0.159 HD
ENDROOT
BRANCH   1  10
ATOM     10  C   UNL     1      10.693  -4.552  33.377  0.00  0.00    +0.151 C 
BRANCH  10  11
ATOM     11  C   UNL     1      12.002  -5.174  32.977  0.00  0.00    -0.028 A 
ATOM     12  C   UNL     1      13.053  -5.278  33.901  0.00  0.00    +0.005 A 
ATOM     13  C   UNL     1      12.198  -5.666  31.677  0.00  0.00    +0.005 A 
ATOM     14  C   UNL     1      14.259  -5.882  33.539  0.00  0.00    +0.000 A 
ATOM     15  C   UNL     1      13.404  -6.268  31.320  0.00  0.00    +0.000 A 
ATOM     16  C   UNL     1      14.433  -6.378  32.251  0.00  0.00    +0.000 A 
ENDBRANCH  10  11
ENDBRANCH   1  10
TORSDOF 2
ENDMDL
MODEL 8
REMARK VINA RESULT:    -4.430     33.249     34.571
REMARK INTER + INTRA:          -5.051
REMARK INTER:                  -4.925
REMARK INTRA:                  -0.126
REMARK UNBOUND:                -0.103
REMARK  Name = 1550473
REMARK  2 active torsions:
REMARK  status: ('A' for Active; 'I' for Inactive)
REMARK    1  A    between atoms: N_1  and  C_4
REMARK    2  A    between atoms: C_4  and  C_5
REMARK                            x       y       z     vdW  Elec       q    Type
REMARK                         _______ _______ _______ _____ _____    ______ ____
ROOT
ATOM      1  N   UNL     1       3.761  10.486  -3.530  0.00  0.00    -0.354 N 
ATOM      2  N   UNL     1       3.951   8.827  -1.925  0.00  0.00    -0.372 N 
ATOM      3  N   UNL     1       5.718   9.211  -3.337  0.00  0.00    -0.372 N 
ATOM      4  C   UNL     1       4.478   9.518  -2.943  0.00  0.00    +0.166 C 
ATOM      5  H   UNL     1       2.815  10.650  -3.204  0.00  0.00    +0.163 HD
ATOM      6  H   UNL     1       4.469   8.094  -1.460  0.00  0.00    +0.159 HD
ATOM      7  H   UNL     1       3.022   9.024  -1.571  0.00  0.00    +0.159 HD
ATOM      8  H   UNL     1       6.171   9.691  -4.103  0.00  0.00    +0.159 HD
ATOM      9  H   UNL     1       6.248   8.472  -2.892  0.00  0.00    +0.159 HD
ENDROOT
BRANCH   1  10
ATOM     10  C   UNL     1       4.262  11.333  -4.611  0.00  0.00    +0.151 C 
BRANCH  10  11
ATOM     11  C   UNL     1       3.481  11.045  -5.863  0.00  0.00    -0.028 A 
ATOM     12  C   UNL     1       2.440  10.105  -5.853  0.00  0.00    +0.005 A 
ATOM     13  C   UNL     1       3.773  11.714  -7.062  0.00  0.00    +0.005 A 
ATOM     14  C   UNL     1       1.695   9.860  -7.009  0.00  0.00    +0.000 A 
ATOM     15  C   UNL     1       3.027  11.465  -8.214  0.00  0.00    +0.000 A 
ATOM     16  C   UNL     1       1.987  10.540  -8.186  0.00  0.00    +0.000 A 
ENDBRANCH  10  11
ENDBRANCH   1  10
TORSDOF 2
ENDMDL
MODEL 9
REMARK VINA RESULT:    -4.388      3.660      5.487
REMARK INTER + INTRA:          -5.004
REMARK INTER:                  -4.895
REMARK INTRA:                  -0.109
REMARK UNBOUND:                -0.103
REMARK  Name = 1550473
REMARK  2 active torsions:
REMARK  status: ('A' for Active; 'I' for Inactive)
REMARK    1  A    between atoms: N_1  and  C_4
REMARK    2  A    between atoms: C_4  and  C_5
REMARK                            x       y       z     vdW  Elec       q    Type
REMARK                         _______ _______ _______ _____ _____    ______ ____
ROOT
ATOM      1  N   UNL     1     -16.878 -10.016 -27.982  0.00  0.00    -0.354 N 
ATOM      2  N   UNL     1     -18.013 -10.496 -29.943  0.00  0.00    -0.372 N 
ATOM      3  N   UNL     1     -17.206  -8.373 -29.620  0.00  0.00    -0.372 N 
ATOM      4  C   UNL     1     -17.358  -9.622 -29.170  0.00  0.00    +0.166 C 
ATOM      5  H   UNL     1     -17.052 -10.969 -27.685  0.00  0.00    +0.163 HD
ATOM      6  H   UNL     1     -18.383 -10.229 -30.845  0.00  0.00    +0.159 HD
ATOM      7  H   UNL     1     -18.146 -11.460 -29.663  0.00  0.00    +0.159 HD
ATOM      8  H   UNL     1     -16.726  -7.664 -29.082  0.00  0.00    +0.159 HD
ATOM      9  H   UNL     1     -17.580  -8.083 -30.515  0.00  0.00    +0.159 HD
ENDROOT
BRANCH   1  10
ATOM     10  C   UNL     1     -16.103  -9.157 -27.088  0.00  0.00    +0.151 C 
BRANCH  10  11
ATOM     11  C   UNL     1     -15.650  -9.965 -25.903  0.00  0.00    -0.028 A 
ATOM     12  C   UNL     1     -15.076 -11.232 -26.082  0.00  0.00    +0.005 A 
ATOM     13  C   UNL     1     -15.785  -9.465 -24.599  0.00  0.00    +0.005 A 
ATOM     14  C   UNL     1     -14.627 -11.970 -24.984  0.00  0.00    +0.000 A 
ATOM     15  C   UNL     1     -15.336 -10.205 -23.505  0.00  0.00    +0.000 A 
ATOM     16  C   UNL     1     -14.755 -11.456 -23.698  0.00  0.00    +0.000 A 
ENDBRANCH  10  11
ENDBRANCH   1  10
TORSDOF 2
ENDMDL
