MODEL 1
REMARK VINA RESULT:    -5.779      0.000      0.000
REMARK INTER + INTRA:          -6.616
REMARK INTER:                  -6.455
REMARK INTRA:                  -0.161
REMARK UNBOUND:                -0.161
REMARK  Name = 1550473
REMARK  2 active torsions:
REMARK  status: ('A' for Active; 'I' for Inactive)
REMARK    1  A    between atoms: N_1  and  C_4
REMARK    2  A    between atoms: C_4  and  C_5
REMARK                            x       y       z     vdW  Elec       q    Type
REMARK                         _______ _______ _______ _____ _____    ______ ____
ROOT
ATOM      1  N   UNL     1      -7.878   0.430   4.555  0.00  0.00    -0.354 N 
ATOM      2  N   UNL     1      -5.652   0.122   3.997  0.00  0.00    -0.372 N 
ATOM      3  N   UNL     1      -6.593   2.194   3.702  0.00  0.00    -0.372 N 
ATOM      4  C   UNL     1      -6.722   0.920   4.087  0.00  0.00    +0.166 C 
ATOM      5  H   UNL     1      -7.920  -0.552   4.803  0.00  0.00    +0.163 HD
ATOM      6  H   UNL     1      -4.765   0.464   3.651  0.00  0.00    +0.159 HD
ATOM      7  H   UNL     1      -5.684  -0.848   4.288  0.00  0.00    +0.159 HD
ATOM      8  H   UNL     1      -7.364   2.846   3.740  0.00  0.00    +0.159 HD
ATOM      9  H   UNL     1      -5.717   2.552   3.342  0.00  0.00    +0.159 HD
ENDROOT
BRANCH   1  10
ATOM     10  C   UNL     1      -9.088   1.229   4.744  0.00  0.00    +0.151 C 
BRANCH  10  11
ATOM     11  C   UNL     1      -9.225   1.575   6.201  0.00  0.00    -0.028 A 
ATOM     12  C   UNL     1      -9.814   2.786   6.593  0.00  0.00    +0.005 A 
ATOM     13  C   UNL     1      -8.774   0.693   7.195  0.00  0.00    +0.005 A 
ATOM     14  C   UNL     1      -9.969   3.095   7.947  0.00  0.00    +0.000 A 
ATOM     15  C   UNL     1      -8.930   1.005   8.546  0.00  0.00    +0.000 A 
ATOM     16  C   UNL     1      -9.530   2.205   8.921  0.00  0.00    +0.000 A 
ENDBRANCH  10  11
ENDBRANCH   1  10
TORSDOF 2
ENDMDL
MODEL 2
REMARK VINA RESULT:    -5.223      1.212      1.939
REMARK INTER + INTRA:          -5.994
REMARK INTER:                  -5.873
REMARK INTRA:                  -0.121
REMARK UNBOUND:                -0.161
REMARK  Name = 1550473
REMARK  2 active torsions:
REMARK  status: ('A' for Active; 'I' for Inactive)
REMARK    1  A    between atoms: N_1  and  C_4
REMARK    2  A    between atoms: C_4  and  C_5
REMARK                            x       y       z     vdW  Elec       q    Type
REMARK                         _______ _______ _______ _____ _____    ______ ____
ROOT
ATOM      1  N   UNL     1      -8.059   1.880   5.926  0.00  0.00    -0.354 N 
ATOM      2  N   UNL     1      -6.970   2.488   3.974  0.00  0.00    -0.372 N 
ATOM      3  N   UNL     1      -7.313   0.261   4.405  0.00  0.00    -0.372 N 
ATOM      4  C   UNL     1      -7.454   1.536   4.781  0.00  0.00    +0.166 C 
ATOM      5  H   UNL     1      -8.108   2.863   6.168  0.00  0.00    +0.163 HD
ATOM      6  H   UNL     1      -6.512   2.259   3.102  0.00  0.00    +0.159 HD
ATOM      7  H   UNL     1      -7.061   3.472   4.196  0.00  0.00    +0.159 HD
ATOM      8  H   UNL     1      -7.651  -0.505   4.973  0.00  0.00    +0.159 HD
ATOM      9  H   UNL     1      -6.847   0.011   3.542  0.00  0.00    +0.159 HD
ENDROOT
BRANCH   1  10
ATOM     10  C   UNL     1      -8.667   0.924   6.849  0.00  0.00    +0.151 C 
BRANCH  10  11
ATOM     11  C   UNL     1      -9.492   1.673   7.859  0.00  0.00    -0.028 A 
ATOM     12  C   UNL     1     -10.037   2.926   7.545  0.00  0.00    +0.005 A 
ATOM     13  C   UNL     1      -9.736   1.132   9.131  0.00  0.00    +0.005 A 
ATOM     14  C   UNL     1     -10.828   3.609   8.473  0.00  0.00    +0.000 A 
ATOM     15  C   UNL     1     -10.526   1.817  10.054  0.00  0.00    +0.000 A 
ATOM     16  C   UNL     1     -11.073   3.054   9.724  0.00  0.00    +0.000 A 
ENDBRANCH  10  11
ENDBRANCH   1  10
TORSDOF 2
ENDMDL
MODEL 3
REMARK VINA RESULT:    -5.110     15.355     16.424
REMARK INTER + INTRA:          -5.869
REMARK INTER:                  -5.746
REMARK INTRA:                  -0.123
REMARK UNBOUND:                -0.161
REMARK  Name = 1550473
REMARK  2 active torsions:
REMARK  status: ('A' for Active; 'I' for Inactive)
REMARK    1  A    between atoms: N_1  and  C_4
REMARK    2  A    between atoms: C_4  and  C_5
REMARK                            x       y       z     vdW  Elec       q    Type
REMARK                         _______ _______ _______ _____ _____    ______ ____
ROOT
ATOM      1  N   UNL     1      -1.382 -13.812   8.204  0.00  0.00    -0.354 N 
ATOM      2  N   UNL     1       0.307 -14.163   6.660  0.00  0.00    -0.372 N 
ATOM      3  N   UNL     1       0.687 -14.696   8.859  0.00  0.00    -0.372 N 
ATOM      4  C   UNL     1      -0.139 -14.222   7.920  0.00  0.00    +0.166 C 
ATOM      5  H   UNL     1      -1.948 -13.434   7.453  0.00  0.00    +0.163 HD
ATOM      6  H   UNL     1       1.239 -14.469   6.414  0.00  0.00    +0.159 HD
ATOM      7  H   UNL     1      -0.277 -13.828   5.903  0.00  0.00    +0.159 HD
ATOM      8  H   UNL     1       0.412 -14.761   9.830  0.00  0.00    +0.159 HD
ATOM      9  H   UNL     1       1.627 -14.996   8.635  0.00  0.00    +0.159 HD
ENDROOT
BRANCH   1  10
ATOM     10  C   UNL     1      -1.983 -13.884   9.535  0.00  0.00    +0.151 C 
BRANCH  10  11
ATOM     11  C   UNL     1      -3.421 -13.450   9.449  0.00  0.00    -0.028 A 
ATOM     12  C   UNL     1      -4.048 -13.306   8.203  0.00  0.00    +0.005 A 
ATOM     13  C   UNL     1      -4.162 -13.186  10.611  0.00  0.00    +0.005 A 
ATOM     14  C   UNL     1      -5.391 -12.932   8.124  0.00  0.00    +0.000 A 
ATOM     15  C   UNL     1      -5.503 -12.812  10.528  0.00  0.00    +0.000 A 
ATOM     16  C   UNL     1      -6.118 -12.688   9.284  0.00  0.00    +0.000 A 
ENDBRANCH  10  11
ENDBRANCH   1  10
TORSDOF 2
ENDMDL
MODEL 4
REMARK VINA RESULT:    -5.104     17.294     18.548
REMARK INTER + INTRA:          -5.862
REMARK INTER:                  -5.720
REMARK INTRA:                  -0.142
REMARK UNBOUND:                -0.161
REMARK  Name = 1550473
REMARK  2 active torsions:
REMARK  status: ('A' for Active; 'I' for Inactive)
REMARK    1  A    between atoms: N_1  and  C_4
REMARK    2  A    between atoms: C_4  and  C_5
REMARK                            x       y       z     vdW  Elec       q    Type
REMARK                         _______ _______ _______ _____ _____    ______ ____
ROOT
ATOM      1  N   UNL     1      -0.010 -15.711  10.002  0.00  0.00    -0.354 N 
ATOM      2  N   UNL     1       1.464 -17.497   9.959  0.00  0.00    -0.372 N 
ATOM      3  N   UNL     1      -0.758 -17.903  10.363  0.00  0.00    -0.372 N 
ATOM      4  C   UNL     1       0.220 -17.026  10.109  0.00  0.00    +0.166 C 
ATOM      5  H   UNL     1       0.779 -15.096   9.838  0.00  0.00    +0.163 HD
ATOM      6  H   UNL     1       1.668 -18.485  10.031  0.00  0.00    +0.159 HD
ATOM      7  H   UNL     1       2.244 -16.885   9.750  0.00  0.00    +0.159 HD
ATOM      8  H   UNL     1      -1.718 -17.611  10.492  0.00  0.00    +0.159 HD
ATOM      9  H   UNL     1      -0.572 -18.894  10.450  0.00  0.00    +0.159 HD
ENDROOT
BRANCH   1  10
ATOM     10  C   UNL     1      -1.336 -15.103  10.094  0.00  0.00    +0.151 C 
BRANCH  10  11
ATOM     11  C   UNL     1      -1.563 -14.232   8.889  0.00  0.00    -0.028 A 
ATOM     12  C   UNL     1      -0.480 -13.802   8.108  0.00  0.00    +0.005 A 
ATOM     13  C   UNL     1      -2.858 -13.839   8.519  0.00  0.00    +0.005 A 
ATOM     14  C   UNL     1      -0.692 -13.019   6.971  0.00  0.00    +0.000 A 
ATOM     15  C   UNL     1      -3.066 -13.056   7.384  0.00  0.00    +0.000 A 
ATOM     16  C   UNL     1      -1.983 -12.648   6.609  0.00  0.00    +0.000 A 
ENDBRANCH  10  11
ENDBRANCH   1  10
TORSDOF 2
ENDMDL
MODEL 5
REMARK VINA RESULT:    -5.023     22.270     23.463
REMARK INTER + INTRA:          -5.772
REMARK INTER:                  -5.644
REMARK INTRA:                  -0.128
REMARK UNBOUND:                -0.161
REMARK  Name = 1550473
REMARK  2 active torsions:
REMARK  status: ('A' for Active; 'I' for Inactive)
REMARK    1  A    between atoms: N_1  and  C_4
REMARK    2  A    between atoms: C_4  and  C_5
REMARK                            x       y       z     vdW  Elec       q    Type
REMARK                         _______ _______ _______ _____ _____    ______ ____
ROOT
ATOM      1  N   UNL     1      -2.720  -0.087  28.968  0.00  0.00    -0.354 N 
ATOM      2  N   UNL     1      -2.444  -2.384  29.079  0.00  0.00    -0.372 N 
ATOM      3  N   UNL     1      -2.183  -1.142  30.990  0.00  0.00    -0.372 N 
ATOM      4  C   UNL     1      -2.450  -1.188  29.681  0.00  0.00    +0.166 C 
ATOM      5  H   UNL     1      -2.884  -0.186  27.973  0.00  0.00    +0.163 HD
ATOM      6  H   UNL     1      -2.247  -3.233  29.591  0.00  0.00    +0.159 HD
ATOM      7  H   UNL     1      -2.654  -2.485  28.093  0.00  0.00    +0.159 HD
ATOM      8  H   UNL     1      -2.166  -0.270  31.503  0.00  0.00    +0.159 HD
ATOM      9  H   UNL     1      -1.972  -1.979  31.519  0.00  0.00    +0.159 HD
ENDROOT
BRANCH   1  10
ATOM     10  C   UNL     1      -2.805   1.256  29.539  0.00  0.00    +0.151 C 
BRANCH  10  11
ATOM     11  C   UNL     1      -3.863   2.035  28.807  0.00  0.00    -0.028 A 
ATOM     12  C   UNL     1      -3.647   3.377  28.459  0.00  0.00    +0.005 A 
ATOM     13  C   UNL     1      -5.082   1.436  28.454  0.00  0.00    +0.005 A 
ATOM     14  C   UNL     1      -4.617   4.092  27.753  0.00  0.00    +0.000 A 
ATOM     15  C   UNL     1      -6.049   2.153  27.750  0.00  0.00    +0.000 A 
ATOM     16  C   UNL     1      -5.815   3.480  27.398  0.00  0.00    +0.000 A 
ENDBRANCH  10  11
ENDBRANCH   1  10
TORSDOF 2
ENDMDL
MODEL 6
REMARK VINA RESULT:    -4.950     19.280     20.791
REMARK INTER + INTRA:          -5.690
REMARK INTER:                  -5.557
REMARK INTRA:                  -0.133
REMARK UNBOUND:                -0.161
REMARK  Name = 1550473
REMARK  2 active torsions:
REMARK  status: ('A' for Active; 'I' for Inactive)
REMARK    1  A    between atoms: N_1  and  C_4
REMARK    2  A    between atoms: C_4  and  C_5
REMARK                            x       y       z     vdW  Elec       q    Type
REMARK                         _______ _______ _______ _____ _____    ______ ____
ROOT
ATOM      1  N   UNL     1       4.460   6.965 -11.388  0.00  0.00    -0.354 N 
ATOM      2  N   UNL     1       4.285   9.045 -12.390  0.00  0.00    -0.372 N 
ATOM      3  N   UNL     1       5.265   8.890 -10.321  0.00  0.00    -0.372 N 
ATOM      4  C   UNL     1       4.672   8.287 -11.358  0.00  0.00    +0.166 C 
ATOM      5  H   UNL     1       3.979   6.573 -12.189  0.00  0.00    +0.163 HD
ATOM      6  H   UNL     1       4.435  10.045 -12.397  0.00  0.00    +0.159 HD
ATOM      7  H   UNL     1       3.846   8.645 -13.210  0.00  0.00    +0.159 HD
ATOM      8  H   UNL     1       5.575   8.375  -9.508  0.00  0.00    +0.159 HD
ATOM      9  H   UNL     1       5.413   9.891 -10.304  0.00  0.00    +0.159 HD
ENDROOT
BRANCH   1  10
ATOM     10  C   UNL     1       4.891   6.043 -10.339  0.00  0.00    +0.151 C 
BRANCH  10  11
ATOM     11  C   UNL     1       3.687   5.341  -9.776  0.00  0.00    -0.028 A 
ATOM     12  C   UNL     1       2.508   6.052  -9.510  0.00  0.00    +0.005 A 
ATOM     13  C   UNL     1       3.715   3.963  -9.512  0.00  0.00    +0.005 A 
ATOM     14  C   UNL     1       1.378   5.395  -9.015  0.00  0.00    +0.000 A 
ATOM     15  C   UNL     1       2.586   3.310  -9.018  0.00  0.00    +0.000 A 
ATOM     16  C   UNL     1       1.417   4.026  -8.772  0.00  0.00    +0.000 A 
ENDBRANCH  10  11
ENDBRANCH   1  10
TORSDOF 2
ENDMDL
MODEL 7
REMARK VINA RESULT:    -4.924     15.866     16.927
REMARK INTER + INTRA:          -5.660
REMARK INTER:                  -5.551
REMARK INTRA:                  -0.109
REMARK UNBOUND:                -0.161
REMARK  Name = 1550473
REMARK  2 active torsions:
REMARK  status: ('A' for Active; 'I' for Inactive)
REMARK    1  A    between atoms: N_1  and  C_4
REMARK    2  A    between atoms: C_4  and  C_5
REMARK                            x       y       z     vdW  Elec       q    Type
REMARK                         _______ _______ _______ _____ _____    ______ ____
ROOT
ATOM      1  N   UNL     1      -1.529 -14.850   9.539  0.00  0.00    -0.354 N 
ATOM      2  N   UNL     1       0.103 -16.278  10.353  0.00  0.00    -0.372 N 
ATOM      3  N   UNL     1       0.681 -14.722   8.768  0.00  0.00    -0.372 N 
ATOM      4  C   UNL     1      -0.257 -15.272   9.546  0.00  0.00    +0.166 C 
ATOM      5  H   UNL     1      -2.198 -15.329  10.130  0.00  0.00    +0.163 HD
ATOM      6  H   UNL     1       1.056 -16.616  10.382  0.00  0.00    +0.159 HD
ATOM      7  H   UNL     1      -0.558 -16.724  10.976  0.00  0.00    +0.159 HD
ATOM      8  H   UNL     1       0.472 -13.963   8.133  0.00  0.00    +0.159 HD
ATOM      9  H   UNL     1       1.637 -15.054   8.775  0.00  0.00    +0.159 HD
ENDROOT
BRANCH   1  10
ATOM     10  C   UNL     1      -2.013 -13.727   8.737  0.00  0.00    +0.151 C 
BRANCH  10  11
ATOM     11  C   UNL     1      -3.428 -13.413   9.136  0.00  0.00    -0.028 A 
ATOM     12  C   UNL     1      -3.775 -13.289  10.490  0.00  0.00    +0.005 A 
ATOM     13  C   UNL     1      -4.426 -13.233   8.166  0.00  0.00    +0.005 A 
ATOM     14  C   UNL     1      -5.084 -12.967  10.860  0.00  0.00    +0.000 A 
ATOM     15  C   UNL     1      -5.731 -12.913   8.540  0.00  0.00    +0.000 A 
ATOM     16  C   UNL     1      -6.059 -12.778   9.886  0.00  0.00    +0.000 A 
ENDBRANCH  10  11
ENDBRANCH   1  10
TORSDOF 2
ENDMDL
MODEL 8
REMARK VINA RESULT:    -4.723     11.342     12.554
REMARK INTER + INTRA:          -5.436
REMARK INTER:                  -5.278
REMARK INTRA:                  -0.158
REMARK UNBOUND:                -0.161
REMARK  Name = 1550473
REMARK  2 active torsions:
REMARK  status: ('A' for Active; 'I' for Inactive)
REMARK    1  A    between atoms: N_1  and  C_4
REMARK    2  A    between atoms: C_4  and  C_5
REMARK                            x       y       z     vdW  Elec       q    Type
REMARK                         _______ _______ _______ _____ _____    ______ ____
ROOT
ATOM      1  N   UNL     1     -10.859 -10.471   1.073  0.00  0.00    -0.354 N 
ATOM      2  N   UNL     1     -10.337 -11.390   3.134  0.00  0.00    -0.372 N 
ATOM      3  N   UNL     1     -12.531 -10.920   2.652  0.00  0.00    -0.372 N 
ATOM      4  C   UNL     1     -11.248 -10.920   2.273  0.00  0.00    +0.166 C 
ATOM      5  H   UNL     1      -9.868 -10.470   0.858  0.00  0.00    +0.163 HD
ATOM      6  H   UNL     1     -10.601 -11.739   4.045  0.00  0.00    +0.159 HD
ATOM      7  H   UNL     1      -9.353 -11.430   2.898  0.00  0.00    +0.159 HD
ATOM      8  H   UNL     1     -13.266 -10.573   2.052  0.00  0.00    +0.159 HD
ATOM      9  H   UNL     1     -12.814 -11.254   3.565  0.00  0.00    +0.159 HD
ENDROOT
BRANCH   1  10
ATOM     10  C   UNL     1     -11.777  -9.989   0.043  0.00  0.00    +0.151 C 
BRANCH  10  11
ATOM     11  C   UNL     1     -11.526  -8.525  -0.193  0.00  0.00    -0.028 A 
ATOM     12  C   UNL     1     -12.370  -7.558   0.373  0.00  0.00    +0.005 A 
ATOM     13  C   UNL     1     -10.443  -8.098  -0.977  0.00  0.00    +0.005 A 
ATOM     14  C   UNL     1     -12.120  -6.197   0.179  0.00  0.00    +0.000 A 
ATOM     15  C   UNL     1     -10.198  -6.739  -1.169  0.00  0.00    +0.000 A 
ATOM     16  C   UNL     1     -11.035  -5.788  -0.589  0.00  0.00    +0.000 A 
ENDBRANCH  10  11
ENDBRANCH   1  10
TORSDOF 2
ENDMDL
MODEL 9
REMARK VINA RESULT:    -4.564     31.277     32.441
REMARK INTER + INTRA:          -5.259
REMARK INTER:                  -5.134
REMARK INTRA:                  -0.125
REMARK UNBOUND:                -0.161
REMARK  Name = 1550473
REMARK  2 active torsions:
REMARK  status: ('A' for Active; 'I' for Inactive)
REMARK    1  A    between atoms: N_1  and  C_4
REMARK    2  A    between atoms: C_4  and  C_5
REMARK                            x       y       z     vdW  Elec       q    Type
REMARK                         _______ _______ _______ _____ _____    ______ ____
ROOT
ATOM      1  N   UNL     1       5.568  -3.321 -22.583  0.00  0.00    -0.354 N 
ATOM      2  N   UNL     1       3.514  -4.256 -23.105  0.00  0.00    -0.372 N 
ATOM      3  N   UNL     1       4.183  -4.202 -20.911  0.00  0.00    -0.372 N 
ATOM      4  C   UNL     1       4.435  -3.921 -22.193  0.00  0.00    +0.166 C 
ATOM      5  H   UNL     1       5.713  -3.162 -23.574  0.00  0.00    +0.163 HD
ATOM      6  H   UNL     1       2.648  -4.706 -22.841  0.00  0.00    +0.159 HD
ATOM      7  H   UNL     1       3.641  -4.054 -24.090  0.00  0.00    +0.159 HD
ATOM      8  H   UNL     1       4.840  -3.981 -20.175  0.00  0.00    +0.159 HD
ATOM      9  H   UNL     1       3.327  -4.663 -20.628  0.00  0.00    +0.159 HD
ENDROOT
BRANCH   1  10
ATOM     10  C   UNL     1       6.611  -2.867 -21.665  0.00  0.00    +0.151 C 
BRANCH  10  11
ATOM     11  C   UNL     1       7.616  -3.970 -21.479  0.00  0.00    -0.028 A 
ATOM     12  C   UNL     1       7.961  -4.807 -22.551  0.00  0.00    +0.005 A 
ATOM     13  C   UNL     1       8.231  -4.180 -20.235  0.00  0.00    +0.005 A 
ATOM     14  C   UNL     1       8.917  -5.813 -22.386  0.00  0.00    +0.000 A 
ATOM     15  C   UNL     1       9.184  -5.186 -20.075  0.00  0.00    +0.000 A 
ATOM     16  C   UNL     1       9.529  -6.000 -21.152  0.00  0.00    +0.000 A 
ENDBRANCH  10  11
ENDBRANCH   1  10
TORSDOF 2
ENDMDL
