MODEL 1
REMARK VINA RESULT:    -5.037      0.000      0.000
REMARK INTER + INTRA:          -5.752
REMARK INTER:                  -5.626
REMARK INTRA:                  -0.126
REMARK UNBOUND:                -0.126
REMARK  Name = 1550473
REMARK  2 active torsions:
REMARK  status: ('A' for Active; 'I' for Inactive)
REMARK    1  A    between atoms: N_1  and  C_4
REMARK    2  A    between atoms: C_4  and  C_5
REMARK                            x       y       z     vdW  Elec       q    Type
REMARK                         _______ _______ _______ _____ _____    ______ ____
ROOT
ATOM      1  N   UNL     1     -10.446  -1.910  -8.444  0.00  0.00    -0.354 N 
ATOM      2  N   UNL     1     -11.170  -4.081  -8.086  0.00  0.00    -0.372 N 
ATOM      3  N   UNL     1     -10.172  -2.945  -6.359  0.00  0.00    -0.372 N 
ATOM      4  C   UNL     1     -10.590  -2.964  -7.629  0.00  0.00    +0.166 C 
ATOM      5  H   UNL     1     -10.756  -1.999  -9.405  0.00  0.00    +0.163 HD
ATOM      6  H   UNL     1     -11.295  -4.891  -7.493  0.00  0.00    +0.159 HD
ATOM      7  H   UNL     1     -11.520  -4.150  -9.033  0.00  0.00    +0.159 HD
ATOM      8  H   UNL     1      -9.721  -2.135  -5.956  0.00  0.00    +0.159 HD
ATOM      9  H   UNL     1     -10.278  -3.750  -5.754  0.00  0.00    +0.159 HD
ENDROOT
BRANCH   1  10
ATOM     10  C   UNL     1      -9.877  -0.629  -8.030  0.00  0.00    +0.151 C 
BRANCH  10  11
ATOM     11  C   UNL     1      -9.273   0.050  -9.229  0.00  0.00    -0.028 A 
ATOM     12  C   UNL     1      -9.591  -0.379 -10.526  0.00  0.00    +0.005 A 
ATOM     13  C   UNL     1      -8.387   1.128  -9.074  0.00  0.00    +0.005 A 
ATOM     14  C   UNL     1      -9.054   0.270 -11.640  0.00  0.00    +0.000 A 
ATOM     15  C   UNL     1      -7.852   1.773 -10.189  0.00  0.00    +0.000 A 
ATOM     16  C   UNL     1      -8.188   1.346 -11.472  0.00  0.00    +0.000 A 
ENDBRANCH  10  11
ENDBRANCH   1  10
TORSDOF 2
ENDMDL
MODEL 2
REMARK VINA RESULT:    -4.952     20.408     22.134
REMARK INTER + INTRA:          -5.657
REMARK INTER:                  -5.557
REMARK INTRA:                  -0.101
REMARK UNBOUND:                -0.126
REMARK  Name = 1550473
REMARK  2 active torsions:
REMARK  status: ('A' for Active; 'I' for Inactive)
REMARK    1  A    between atoms: N_1  and  C_4
REMARK    2  A    between atoms: C_4  and  C_5
REMARK                            x       y       z     vdW  Elec       q    Type
REMARK                         _______ _______ _______ _____ _____    ______ ____
ROOT
ATOM      1  N   UNL     1      -2.302  -5.127  12.649  0.00  0.00    -0.354 N 
ATOM      2  N   UNL     1      -2.086  -4.913  14.945  0.00  0.00    -0.372 N 
ATOM      3  N   UNL     1      -0.993  -3.423  13.584  0.00  0.00    -0.372 N 
ATOM      4  C   UNL     1      -1.793  -4.487  13.710  0.00  0.00    +0.166 C 
ATOM      5  H   UNL     1      -2.878  -5.946  12.811  0.00  0.00    +0.163 HD
ATOM      6  H   UNL     1      -1.720  -4.448  15.765  0.00  0.00    +0.159 HD
ATOM      7  H   UNL     1      -2.699  -5.703  15.105  0.00  0.00    +0.159 HD
ATOM      8  H   UNL     1      -0.729  -3.056  12.680  0.00  0.00    +0.159 HD
ATOM      9  H   UNL     1      -0.607  -2.952  14.392  0.00  0.00    +0.159 HD
ENDROOT
BRANCH   1  10
ATOM     10  C   UNL     1      -2.088  -4.712  11.264  0.00  0.00    +0.151 C 
BRANCH  10  11
ATOM     11  C   UNL     1      -3.196  -5.263  10.409  0.00  0.00    -0.028 A 
ATOM     12  C   UNL     1      -3.994  -4.406   9.637  0.00  0.00    +0.005 A 
ATOM     13  C   UNL     1      -3.450  -6.643  10.362  0.00  0.00    +0.005 A 
ATOM     14  C   UNL     1      -5.003  -4.920   8.820  0.00  0.00    +0.000 A 
ATOM     15  C   UNL     1      -4.459  -7.152   9.546  0.00  0.00    +0.000 A 
ATOM     16  C   UNL     1      -5.234  -6.291   8.773  0.00  0.00    +0.000 A 
ENDBRANCH  10  11
ENDBRANCH   1  10
TORSDOF 2
ENDMDL
MODEL 3
REMARK VINA RESULT:    -4.943     26.247     27.501
REMARK INTER + INTRA:          -5.647
REMARK INTER:                  -5.526
REMARK INTRA:                  -0.121
REMARK UNBOUND:                -0.126
REMARK  Name = 1550473
REMARK  2 active torsions:
REMARK  status: ('A' for Active; 'I' for Inactive)
REMARK    1  A    between atoms: N_1  and  C_4
REMARK    2  A    between atoms: C_4  and  C_5
REMARK                            x       y       z     vdW  Elec       q    Type
REMARK                         _______ _______ _______ _____ _____    ______ ____
ROOT
ATOM      1  N   UNL     1       3.835  10.504   9.690  0.00  0.00    -0.354 N 
ATOM      2  N   UNL     1       4.569   9.189   7.931  0.00  0.00    -0.372 N 
ATOM      3  N   UNL     1       5.267   8.686  10.058  0.00  0.00    -0.372 N 
ATOM      4  C   UNL     1       4.554   9.467   9.240  0.00  0.00    +0.166 C 
ATOM      5  H   UNL     1       3.340  11.075   9.015  0.00  0.00    +0.163 HD
ATOM      6  H   UNL     1       5.099   8.411   7.562  0.00  0.00    +0.159 HD
ATOM      7  H   UNL     1       4.036   9.734   7.264  0.00  0.00    +0.159 HD
ATOM      8  H   UNL     1       5.302   8.847  11.056  0.00  0.00    +0.159 HD
ATOM      9  H   UNL     1       5.814   7.910   9.707  0.00  0.00    +0.159 HD
ENDROOT
BRANCH   1  10
ATOM     10  C   UNL     1       3.708  10.860  11.102  0.00  0.00    +0.151 C 
BRANCH  10  11
ATOM     11  C   UNL     1       4.250  12.247  11.310  0.00  0.00    -0.028 A 
ATOM     12  C   UNL     1       5.053  12.851  10.332  0.00  0.00    +0.005 A 
ATOM     13  C   UNL     1       3.960  12.964  12.481  0.00  0.00    +0.005 A 
ATOM     14  C   UNL     1       5.532  14.151  10.511  0.00  0.00    +0.000 A 
ATOM     15  C   UNL     1       4.441  14.262  12.656  0.00  0.00    +0.000 A 
ATOM     16  C   UNL     1       5.225  14.856  11.670  0.00  0.00    +0.000 A 
ENDBRANCH  10  11
ENDBRANCH   1  10
TORSDOF 2
ENDMDL
MODEL 4
REMARK VINA RESULT:    -4.718     24.522     25.797
REMARK INTER + INTRA:          -5.396
REMARK INTER:                  -5.258
REMARK INTRA:                  -0.138
REMARK UNBOUND:                -0.126
REMARK  Name = 1550473
REMARK  2 active torsions:
REMARK  status: ('A' for Active; 'I' for Inactive)
REMARK    1  A    between atoms: N_1  and  C_4
REMARK    2  A    between atoms: C_4  and  C_5
REMARK                            x       y       z     vdW  Elec       q    Type
REMARK                         _______ _______ _______ _____ _____    ______ ____
ROOT
ATOM      1  N   UNL     1       3.078   9.284   8.560  0.00  0.00    -0.354 N 
ATOM      2  N   UNL     1       2.094   7.212   8.236  0.00  0.00    -0.372 N 
ATOM      3  N   UNL     1       4.241   7.307   9.040  0.00  0.00    -0.372 N 
ATOM      4  C   UNL     1       3.146   7.947   8.615  0.00  0.00    +0.166 C 
ATOM      5  H   UNL     1       2.230   9.708   8.200  0.00  0.00    +0.163 HD
ATOM      6  H   UNL     1       2.115   6.202   8.270  0.00  0.00    +0.159 HD
ATOM      7  H   UNL     1       1.232   7.639   7.920  0.00  0.00    +0.159 HD
ATOM      8  H   UNL     1       5.071   7.803   9.334  0.00  0.00    +0.159 HD
ATOM      9  H   UNL     1       4.286   6.296   9.070  0.00  0.00    +0.159 HD
ENDROOT
BRANCH   1  10
ATOM     10  C   UNL     1       4.148  10.176   9.000  0.00  0.00    +0.151 C 
BRANCH  10  11
ATOM     11  C   UNL     1       3.686  10.939  10.211  0.00  0.00    -0.028 A 
ATOM     12  C   UNL     1       2.341  10.900  10.606  0.00  0.00    +0.005 A 
ATOM     13  C   UNL     1       4.589  11.698  10.971  0.00  0.00    +0.005 A 
ATOM     14  C   UNL     1       1.917  11.583  11.748  0.00  0.00    +0.000 A 
ATOM     15  C   UNL     1       4.162  12.380  12.110  0.00  0.00    +0.000 A 
ATOM     16  C   UNL     1       2.826  12.320  12.499  0.00  0.00    +0.000 A 
ENDBRANCH  10  11
ENDBRANCH   1  10
TORSDOF 2
ENDMDL
MODEL 5
REMARK VINA RESULT:    -4.684     15.253     16.440
REMARK INTER + INTRA:          -5.357
REMARK INTER:                  -5.236
REMARK INTRA:                  -0.121
REMARK UNBOUND:                -0.126
REMARK  Name = 1550473
REMARK  2 active torsions:
REMARK  status: ('A' for Active; 'I' for Inactive)
REMARK    1  A    between atoms: N_1  and  C_4
REMARK    2  A    between atoms: C_4  and  C_5
REMARK                            x       y       z     vdW  Elec       q    Type
REMARK                         _______ _______ _______ _____ _____    ______ ____
ROOT
ATOM      1  N   UNL     1       0.515   6.806  -0.707  0.00  0.00    -0.354 N 
ATOM      2  N   UNL     1      -1.428   5.614  -1.117  0.00  0.00    -0.372 N 
ATOM      3  N   UNL     1      -0.808   6.011   1.057  0.00  0.00    -0.372 N 
ATOM      4  C   UNL     1      -0.561   6.151  -0.250  0.00  0.00    +0.166 C 
ATOM      5  H   UNL     1       0.662   6.851  -1.709  0.00  0.00    +0.163 HD
ATOM      6  H   UNL     1      -2.250   5.117  -0.802  0.00  0.00    +0.159 HD
ATOM      7  H   UNL     1      -1.303   5.700  -2.118  0.00  0.00    +0.159 HD
ATOM      8  H   UNL     1      -0.190   6.388   1.762  0.00  0.00    +0.159 HD
ATOM      9  H   UNL     1      -1.620   5.507   1.391  0.00  0.00    +0.159 HD
ENDROOT
BRANCH   1  10
ATOM     10  C   UNL     1       1.491   7.474   0.152  0.00  0.00    +0.151 C 
BRANCH  10  11
ATOM     11  C   UNL     1       2.617   7.996  -0.697  0.00  0.00    -0.028 A 
ATOM     12  C   UNL     1       2.867   7.448  -1.964  0.00  0.00    +0.005 A 
ATOM     13  C   UNL     1       3.433   9.044  -0.244  0.00  0.00    +0.005 A 
ATOM     14  C   UNL     1       3.893   7.953  -2.765  0.00  0.00    +0.000 A 
ATOM     15  C   UNL     1       4.457   9.545  -1.047  0.00  0.00    +0.000 A 
ATOM     16  C   UNL     1       4.686   9.001  -2.309  0.00  0.00    +0.000 A 
ENDBRANCH  10  11
ENDBRANCH   1  10
TORSDOF 2
ENDMDL
MODEL 6
REMARK VINA RESULT:    -4.611      2.542      5.062
REMARK INTER + INTRA:          -5.276
REMARK INTER:                  -5.154
REMARK INTRA:                  -0.122
REMARK UNBOUND:                -0.126
REMARK  Name = 1550473
REMARK  2 active torsions:
REMARK  status: ('A' for Active; 'I' for Inactive)
REMARK    1  A    between atoms: N_1  and  C_4
REMARK    2  A    between atoms: C_4  and  C_5
REMARK                            x       y       z     vdW  Elec       q    Type
REMARK                         _______ _______ _______ _____ _____    ______ ____
ROOT
ATOM      1  N   UNL     1      -8.984   0.183  -9.681  0.00  0.00    -0.354 N 
ATOM      2  N   UNL     1      -7.793   1.753 -10.898  0.00  0.00    -0.372 N 
ATOM      3  N   UNL     1      -8.956   0.127 -12.024  0.00  0.00    -0.372 N 
ATOM      4  C   UNL     1      -8.586   0.675 -10.862  0.00  0.00    +0.166 C 
ATOM      5  H   UNL     1      -8.644   0.627  -8.835  0.00  0.00    +0.163 HD
ATOM      6  H   UNL     1      -7.480   2.149 -11.774  0.00  0.00    +0.159 HD
ATOM      7  H   UNL     1      -7.492   2.222 -10.052  0.00  0.00    +0.159 HD
ATOM      8  H   UNL     1      -9.549  -0.692 -12.065  0.00  0.00    +0.159 HD
ATOM      9  H   UNL     1      -8.643   0.502 -12.911  0.00  0.00    +0.159 HD
ENDROOT
BRANCH   1  10
ATOM     10  C   UNL     1      -9.891  -0.954  -9.533  0.00  0.00    +0.151 C 
BRANCH  10  11
ATOM     11  C   UNL     1      -9.942  -1.356  -8.085  0.00  0.00    -0.028 A 
ATOM     12  C   UNL     1     -10.535  -2.569  -7.703  0.00  0.00    +0.005 A 
ATOM     13  C   UNL     1      -9.394  -0.532  -7.090  0.00  0.00    +0.005 A 
ATOM     14  C   UNL     1     -10.556  -2.957  -6.361  0.00  0.00    +0.000 A 
ATOM     15  C   UNL     1      -9.418  -0.923  -5.751  0.00  0.00    +0.000 A 
ATOM     16  C   UNL     1      -9.996  -2.136  -5.388  0.00  0.00    +0.000 A 
ENDBRANCH  10  11
ENDBRANCH   1  10
TORSDOF 2
ENDMDL
MODEL 7
REMARK VINA RESULT:    -4.581     18.524     19.889
REMARK INTER + INTRA:          -5.243
REMARK INTER:                  -5.110
REMARK INTRA:                  -0.133
REMARK UNBOUND:                -0.126
REMARK  Name = 1550473
REMARK  2 active torsions:
REMARK  status: ('A' for Active; 'I' for Inactive)
REMARK    1  A    between atoms: N_1  and  C_4
REMARK    2  A    between atoms: C_4  and  C_5
REMARK                            x       y       z     vdW  Elec       q    Type
REMARK                         _______ _______ _______ _____ _____    ______ ____
ROOT
ATOM      1  N   UNL     1       5.386  11.600  -1.100  0.00  0.00    -0.354 N 
ATOM      2  N   UNL     1       5.724  13.776  -1.815  0.00  0.00    -0.372 N 
ATOM      3  N   UNL     1       4.335  13.400  -0.028  0.00  0.00    -0.372 N 
ATOM      4  C   UNL     1       5.144  12.912  -0.974  0.00  0.00    +0.166 C 
ATOM      5  H   UNL     1       5.985  11.291  -1.857  0.00  0.00    +0.163 HD
ATOM      6  H   UNL     1       5.564  14.772  -1.743  0.00  0.00    +0.159 HD
ATOM      7  H   UNL     1       6.359  13.469  -2.542  0.00  0.00    +0.159 HD
ATOM      8  H   UNL     1       3.862  12.799   0.634  0.00  0.00    +0.159 HD
ATOM      9  H   UNL     1       4.153  14.392   0.053  0.00  0.00    +0.159 HD
ENDROOT
BRANCH   1  10
ATOM     10  C   UNL     1       4.846  10.580  -0.202  0.00  0.00    +0.151 C 
BRANCH  10  11
ATOM     11  C   UNL     1       4.281   9.453  -1.023  0.00  0.00    -0.028 A 
ATOM     12  C   UNL     1       4.820   9.148  -2.281  0.00  0.00    +0.005 A 
ATOM     13  C   UNL     1       3.209   8.683  -0.545  0.00  0.00    +0.005 A 
ATOM     14  C   UNL     1       4.315   8.083  -3.030  0.00  0.00    +0.000 A 
ATOM     15  C   UNL     1       2.707   7.621  -1.296  0.00  0.00    +0.000 A 
ATOM     16  C   UNL     1       3.262   7.319  -2.537  0.00  0.00    +0.000 A 
ENDBRANCH  10  11
ENDBRANCH   1  10
TORSDOF 2
ENDMDL
MODEL 8
REMARK VINA RESULT:    -4.560     19.735     20.951
REMARK INTER + INTRA:          -5.219
REMARK INTER:                  -5.077
REMARK INTRA:                  -0.142
REMARK UNBOUND:                -0.126
REMARK  Name = 1550473
REMARK  2 active torsions:
REMARK  status: ('A' for Active; 'I' for Inactive)
REMARK    1  A    between atoms: N_1  and  C_4
REMARK    2  A    between atoms: C_4  and  C_5
REMARK                            x       y       z     vdW  Elec       q    Type
REMARK                         _______ _______ _______ _____ _____    ______ ____
ROOT
ATOM      1  N   UNL     1      -3.736  -8.978  10.833  0.00  0.00    -0.354 N 
ATOM      2  N   UNL     1      -4.833 -10.936  11.408  0.00  0.00    -0.372 N 
ATOM      3  N   UNL     1      -3.615 -10.877   9.464  0.00  0.00    -0.372 N 
ATOM      4  C   UNL     1      -4.053 -10.252  10.562  0.00  0.00    +0.166 C 
ATOM      5  H   UNL     1      -4.126  -8.553  11.666  0.00  0.00    +0.163 HD
ATOM      6  H   UNL     1      -5.086 -11.899  11.232  0.00  0.00    +0.159 HD
ATOM      7  H   UNL     1      -5.183 -10.522  12.263  0.00  0.00    +0.159 HD
ATOM      8  H   UNL     1      -3.028 -10.414   8.783  0.00  0.00    +0.159 HD
ATOM      9  H   UNL     1      -3.867 -11.837   9.264  0.00  0.00    +0.159 HD
ENDROOT
BRANCH   1  10
ATOM     10  C   UNL     1      -2.851  -8.162  10.005  0.00  0.00    +0.151 C 
BRANCH  10  11
ATOM     11  C   UNL     1      -3.586  -6.924   9.571  0.00  0.00    -0.028 A 
ATOM     12  C   UNL     1      -2.972  -5.666   9.652  0.00  0.00    +0.005 A 
ATOM     13  C   UNL     1      -4.896  -7.003   9.074  0.00  0.00    +0.005 A 
ATOM     14  C   UNL     1      -3.644  -4.519   9.221  0.00  0.00    +0.000 A 
ATOM     15  C   UNL     1      -5.564  -5.856   8.647  0.00  0.00    +0.000 A 
ATOM     16  C   UNL     1      -4.937  -4.615   8.718  0.00  0.00    +0.000 A 
ENDBRANCH  10  11
ENDBRANCH   1  10
TORSDOF 2
ENDMDL
MODEL 9
REMARK VINA RESULT:    -4.553     16.140     17.041
REMARK INTER + INTRA:          -5.212
REMARK INTER:                  -5.084
REMARK INTRA:                  -0.128
REMARK UNBOUND:                -0.126
REMARK  Name = 1550473
REMARK  2 active torsions:
REMARK  status: ('A' for Active; 'I' for Inactive)
REMARK    1  A    between atoms: N_1  and  C_4
REMARK    2  A    between atoms: C_4  and  C_5
REMARK                            x       y       z     vdW  Elec       q    Type
REMARK                         _______ _______ _______ _____ _____    ______ ____
ROOT
ATOM      1  N   UNL     1       1.457   6.678   0.232  0.00  0.00    -0.354 N 
ATOM      2  N   UNL     1       0.452   4.824   1.190  0.00  0.00    -0.372 N 
ATOM      3  N   UNL     1       1.094   6.561   2.544  0.00  0.00    -0.372 N 
ATOM      4  C   UNL     1       1.008   6.035   1.318  0.00  0.00    +0.166 C 
ATOM      5  H   UNL     1       1.390   6.212  -0.665  0.00  0.00    +0.163 HD
ATOM      6  H   UNL     1       0.102   4.316   1.990  0.00  0.00    +0.159 HD
ATOM      7  H   UNL     1       0.345   4.380   0.286  0.00  0.00    +0.159 HD
ATOM      8  H   UNL     1       1.509   7.468   2.710  0.00  0.00    +0.159 HD
ATOM      9  H   UNL     1       0.760   6.063   3.360  0.00  0.00    +0.159 HD
ENDROOT
BRANCH   1  10
ATOM     10  C   UNL     1       2.030   8.023   0.257  0.00  0.00    +0.151 C 
BRANCH  10  11
ATOM     11  C   UNL     1       2.922   8.199  -0.941  0.00  0.00    -0.028 A 
ATOM     12  C   UNL     1       3.569   9.421  -1.173  0.00  0.00    +0.005 A 
ATOM     13  C   UNL     1       3.130   7.144  -1.844  0.00  0.00    +0.005 A 
ATOM     14  C   UNL     1       4.421   9.576  -2.269  0.00  0.00    +0.000 A 
ATOM     15  C   UNL     1       3.981   7.303  -2.937  0.00  0.00    +0.000 A 
ATOM     16  C   UNL     1       4.628   8.518  -3.148  0.00  0.00    +0.000 A 
ENDBRANCH  10  11
ENDBRANCH   1  10
TORSDOF 2
ENDMDL
