MODEL 1
REMARK VINA RESULT:    -5.256      0.000      0.000
REMARK INTER + INTRA:          -5.891
REMARK INTER:                  -5.870
REMARK INTRA:                  -0.021
REMARK UNBOUND:                -0.021
REMARK  Name = 1550473
REMARK  2 active torsions:
REMARK  status: ('A' for Active; 'I' for Inactive)
REMARK    1  A    between atoms: N_1  and  C_4
REMARK    2  A    between atoms: C_4  and  C_5
REMARK                            x       y       z     vdW  Elec       q    Type
REMARK                         _______ _______ _______ _____ _____    ______ ____
ROOT
ATOM      1  N   UNL     1      -1.561  -9.645  -5.428  0.00  0.00    -0.354 N 
ATOM      2  N   UNL     1      -1.037  -7.655  -4.365  0.00  0.00    -0.372 N 
ATOM      3  N   UNL     1      -2.809  -8.892  -3.593  0.00  0.00    -0.372 N 
ATOM      4  C   UNL     1      -1.808  -8.744  -4.468  0.00  0.00    +0.166 C 
ATOM      5  H   UNL     1      -0.806  -9.460  -6.078  0.00  0.00    +0.163 HD
ATOM      6  H   UNL     1      -1.198  -6.960  -3.648  0.00  0.00    +0.159 HD
ATOM      7  H   UNL     1      -0.255  -7.495  -4.987  0.00  0.00    +0.159 HD
ATOM      8  H   UNL     1      -3.432  -9.688  -3.621  0.00  0.00    +0.159 HD
ATOM      9  H   UNL     1      -2.993  -8.201  -2.876  0.00  0.00    +0.159 HD
ENDROOT
BRANCH   1  10
ATOM     10  C   UNL     1      -2.308 -10.891  -5.593  0.00  0.00    +0.151 C 
BRANCH  10  11
ATOM     11  C   UNL     1      -3.611 -10.595  -6.282  0.00  0.00    -0.028 A 
ATOM     12  C   UNL     1      -3.650  -9.745  -7.397  0.00  0.00    +0.005 A 
ATOM     13  C   UNL     1      -4.810 -11.166  -5.829  0.00  0.00    +0.005 A 
ATOM     14  C   UNL     1      -4.856  -9.494  -8.056  0.00  0.00    +0.000 A 
ATOM     15  C   UNL     1      -6.012 -10.912  -6.489  0.00  0.00    +0.000 A 
ATOM     16  C   UNL     1      -6.034 -10.078  -7.604  0.00  0.00    +0.000 A 
ENDBRANCH  10  11
ENDBRANCH   1  10
TORSDOF 2
ENDMDL
MODEL 2
REMARK VINA RESULT:    -5.168      2.827      4.627
REMARK INTER + INTRA:          -5.794
REMARK INTER:                  -5.618
REMARK INTRA:                  -0.175
REMARK UNBOUND:                -0.021
REMARK  Name = 1550473
REMARK  2 active torsions:
REMARK  status: ('A' for Active; 'I' for Inactive)
REMARK    1  A    between atoms: N_1  and  C_4
REMARK    2  A    between atoms: C_4  and  C_5
REMARK                            x       y       z     vdW  Elec       q    Type
REMARK                         _______ _______ _______ _____ _____    ______ ____
ROOT
ATOM      1  N   UNL     1      -4.327  -9.317  -7.626  0.00  0.00    -0.354 N 
ATOM      2  N   UNL     1      -5.556  -9.844  -9.517  0.00  0.00    -0.372 N 
ATOM      3  N   UNL     1      -6.326 -10.529  -7.467  0.00  0.00    -0.372 N 
ATOM      4  C   UNL     1      -5.396  -9.894  -8.189  0.00  0.00    +0.166 C 
ATOM      5  H   UNL     1      -3.642  -8.878  -8.231  0.00  0.00    +0.163 HD
ATOM      6  H   UNL     1      -6.355 -10.267  -9.969  0.00  0.00    +0.159 HD
ATOM      7  H   UNL     1      -4.894  -9.364 -10.115  0.00  0.00    +0.159 HD
ATOM      8  H   UNL     1      -6.261 -10.608  -6.461  0.00  0.00    +0.159 HD
ATOM      9  H   UNL     1      -7.127 -10.969  -7.903  0.00  0.00    +0.159 HD
ENDROOT
BRANCH   1  10
ATOM     10  C   UNL     1      -4.087  -9.269  -6.184  0.00  0.00    +0.151 C 
BRANCH  10  11
ATOM     11  C   UNL     1      -3.058 -10.305  -5.823  0.00  0.00    -0.028 A 
ATOM     12  C   UNL     1      -3.335 -11.273  -4.846  0.00  0.00    +0.005 A 
ATOM     13  C   UNL     1      -1.807 -10.327  -6.457  0.00  0.00    +0.005 A 
ATOM     14  C   UNL     1      -2.391 -12.253  -4.531  0.00  0.00    +0.000 A 
ATOM     15  C   UNL     1      -0.867 -11.307  -6.139  0.00  0.00    +0.000 A 
ATOM     16  C   UNL     1      -1.160 -12.271  -5.178  0.00  0.00    +0.000 A 
ENDBRANCH  10  11
ENDBRANCH   1  10
TORSDOF 2
ENDMDL
MODEL 3
REMARK VINA RESULT:    -4.864      2.649      3.512
REMARK INTER + INTRA:          -5.454
REMARK INTER:                  -5.343
REMARK INTRA:                  -0.111
REMARK UNBOUND:                -0.021
REMARK  Name = 1550473
REMARK  2 active torsions:
REMARK  status: ('A' for Active; 'I' for Inactive)
REMARK    1  A    between atoms: N_1  and  C_4
REMARK    2  A    between atoms: C_4  and  C_5
REMARK                            x       y       z     vdW  Elec       q    Type
REMARK                         _______ _______ _______ _____ _____    ______ ____
ROOT
ATOM      1  N   UNL     1      -1.371 -11.049  -8.066  0.00  0.00    -0.354 N 
ATOM      2  N   UNL     1       0.184 -12.371  -9.162  0.00  0.00    -0.372 N 
ATOM      3  N   UNL     1       0.823 -11.248  -7.266  0.00  0.00    -0.372 N 
ATOM      4  C   UNL     1      -0.130 -11.546  -8.155  0.00  0.00    +0.166 C 
ATOM      5  H   UNL     1      -2.039 -11.290  -8.789  0.00  0.00    +0.163 HD
ATOM      6  H   UNL     1       1.111 -12.764  -9.253  0.00  0.00    +0.159 HD
ATOM      7  H   UNL     1      -0.499 -12.646  -9.857  0.00  0.00    +0.159 HD
ATOM      8  H   UNL     1       0.652 -10.627  -6.486  0.00  0.00    +0.159 HD
ATOM      9  H   UNL     1       1.760 -11.622  -7.347  0.00  0.00    +0.159 HD
ENDROOT
BRANCH   1  10
ATOM     10  C   UNL     1      -1.829 -10.186  -6.979  0.00  0.00    +0.151 C 
BRANCH  10  11
ATOM     11  C   UNL     1      -3.333 -10.199  -6.942  0.00  0.00    -0.028 A 
ATOM     12  C   UNL     1      -4.032 -11.413  -6.863  0.00  0.00    +0.005 A 
ATOM     13  C   UNL     1      -4.063  -9.002  -6.979  0.00  0.00    +0.005 A 
ATOM     14  C   UNL     1      -5.427 -11.424  -6.798  0.00  0.00    +0.000 A 
ATOM     15  C   UNL     1      -5.457  -9.018  -6.916  0.00  0.00    +0.000 A 
ATOM     16  C   UNL     1      -6.138 -10.229  -6.823  0.00  0.00    +0.000 A 
ENDBRANCH  10  11
ENDBRANCH   1  10
TORSDOF 2
ENDMDL
MODEL 4
REMARK VINA RESULT:    -4.829     18.664     19.629
REMARK INTER + INTRA:          -5.414
REMARK INTER:                  -5.267
REMARK INTRA:                  -0.148
REMARK UNBOUND:                -0.021
REMARK  Name = 1550473
REMARK  2 active torsions:
REMARK  status: ('A' for Active; 'I' for Inactive)
REMARK    1  A    between atoms: N_1  and  C_4
REMARK    2  A    between atoms: C_4  and  C_5
REMARK                            x       y       z     vdW  Elec       q    Type
REMARK                         _______ _______ _______ _____ _____    ______ ____
ROOT
ATOM      1  N   UNL     1      -3.555  10.404  -5.663  0.00  0.00    -0.354 N 
ATOM      2  N   UNL     1      -3.653  10.567  -3.355  0.00  0.00    -0.372 N 
ATOM      3  N   UNL     1      -2.948   8.598  -4.299  0.00  0.00    -0.372 N 
ATOM      4  C   UNL     1      -3.384   9.852  -4.455  0.00  0.00    +0.166 C 
ATOM      5  H   UNL     1      -3.917  11.349  -5.714  0.00  0.00    +0.163 HD
ATOM      6  H   UNL     1      -3.530  10.178  -2.430  0.00  0.00    +0.159 HD
ATOM      7  H   UNL     1      -3.971  11.527  -3.408  0.00  0.00    +0.159 HD
ATOM      8  H   UNL     1      -2.733   8.004  -5.089  0.00  0.00    +0.159 HD
ATOM      9  H   UNL     1      -2.830   8.187  -3.381  0.00  0.00    +0.159 HD
ENDROOT
BRANCH   1  10
ATOM     10  C   UNL     1      -3.240   9.730  -6.922  0.00  0.00    +0.151 C 
BRANCH  10  11
ATOM     11  C   UNL     1      -4.487   9.642  -7.758  0.00  0.00    -0.028 A 
ATOM     12  C   UNL     1      -5.542  10.544  -7.559  0.00  0.00    +0.005 A 
ATOM     13  C   UNL     1      -4.617   8.662  -8.754  0.00  0.00    +0.005 A 
ATOM     14  C   UNL     1      -6.688  10.482  -8.355  0.00  0.00    +0.000 A 
ATOM     15  C   UNL     1      -5.763   8.603  -9.546  0.00  0.00    +0.000 A 
ATOM     16  C   UNL     1      -6.798   9.514  -9.348  0.00  0.00    +0.000 A 
ENDBRANCH  10  11
ENDBRANCH   1  10
TORSDOF 2
ENDMDL
MODEL 5
REMARK VINA RESULT:    -4.733     25.644     26.184
REMARK INTER + INTRA:          -5.307
REMARK INTER:                  -5.169
REMARK INTRA:                  -0.138
REMARK UNBOUND:                -0.021
REMARK  Name = 1550473
REMARK  2 active torsions:
REMARK  status: ('A' for Active; 'I' for Inactive)
REMARK    1  A    between atoms: N_1  and  C_4
REMARK    2  A    between atoms: C_4  and  C_5
REMARK                            x       y       z     vdW  Elec       q    Type
REMARK                         _______ _______ _______ _____ _____    ______ ____
ROOT
ATOM      1  N   UNL     1      -0.056  13.810   5.033  0.00  0.00    -0.354 N 
ATOM      2  N   UNL     1      -1.160  12.628   6.691  0.00  0.00    -0.372 N 
ATOM      3  N   UNL     1      -2.173  12.881   4.648  0.00  0.00    -0.372 N 
ATOM      4  C   UNL     1      -1.124  13.114   5.444  0.00  0.00    +0.166 C 
ATOM      5  H   UNL     1       0.693  13.978   5.694  0.00  0.00    +0.163 HD
ATOM      6  H   UNL     1      -1.951  12.097   7.028  0.00  0.00    +0.159 HD
ATOM      7  H   UNL     1      -0.389  12.758   7.335  0.00  0.00    +0.159 HD
ATOM      8  H   UNL     1      -2.211  13.226   3.698  0.00  0.00    +0.159 HD
ATOM      9  H   UNL     1      -2.979  12.362   4.971  0.00  0.00    +0.159 HD
ENDROOT
BRANCH   1  10
ATOM     10  C   UNL     1       0.105  14.336   3.678  0.00  0.00    +0.151 C 
BRANCH  10  11
ATOM     11  C   UNL     1       1.529  14.136   3.239  0.00  0.00    -0.028 A 
ATOM     12  C   UNL     1       2.385  13.292   3.963  0.00  0.00    +0.005 A 
ATOM     13  C   UNL     1       2.027  14.782   2.097  0.00  0.00    +0.005 A 
ATOM     14  C   UNL     1       3.699  13.082   3.538  0.00  0.00    +0.000 A 
ATOM     15  C   UNL     1       3.340  14.570   1.678  0.00  0.00    +0.000 A 
ATOM     16  C   UNL     1       4.175  13.718   2.397  0.00  0.00    +0.000 A 
ENDBRANCH  10  11
ENDBRANCH   1  10
TORSDOF 2
ENDMDL
MODEL 6
REMARK VINA RESULT:    -4.660      3.351      4.755
REMARK INTER + INTRA:          -5.225
REMARK INTER:                  -5.051
REMARK INTRA:                  -0.175
REMARK UNBOUND:                -0.021
REMARK  Name = 1550473
REMARK  2 active torsions:
REMARK  status: ('A' for Active; 'I' for Inactive)
REMARK    1  A    between atoms: N_1  and  C_4
REMARK    2  A    between atoms: C_4  and  C_5
REMARK                            x       y       z     vdW  Elec       q    Type
REMARK                         _______ _______ _______ _____ _____    ______ ____
ROOT
ATOM      1  N   UNL     1      -5.661 -12.236  -5.533  0.00  0.00    -0.354 N 
ATOM      2  N   UNL     1      -5.755 -14.421  -4.770  0.00  0.00    -0.372 N 
ATOM      3  N   UNL     1      -5.752 -14.035  -7.032  0.00  0.00    -0.372 N 
ATOM      4  C   UNL     1      -5.722 -13.550  -5.786  0.00  0.00    +0.166 C 
ATOM      5  H   UNL     1      -5.672 -11.931  -4.566  0.00  0.00    +0.163 HD
ATOM      6  H   UNL     1      -5.797 -15.418  -4.930  0.00  0.00    +0.159 HD
ATOM      7  H   UNL     1      -5.719 -14.115  -3.805  0.00  0.00    +0.159 HD
ATOM      8  H   UNL     1      -5.736 -13.430  -7.842  0.00  0.00    +0.159 HD
ATOM      9  H   UNL     1      -5.806 -15.030  -7.212  0.00  0.00    +0.159 HD
ENDROOT
BRANCH   1  10
ATOM     10  C   UNL     1      -5.567 -11.207  -6.567  0.00  0.00    +0.151 C 
BRANCH  10  11
ATOM     11  C   UNL     1      -4.146 -10.722  -6.650  0.00  0.00    -0.028 A 
ATOM     12  C   UNL     1      -3.722  -9.625  -5.886  0.00  0.00    +0.005 A 
ATOM     13  C   UNL     1      -3.217 -11.360  -7.487  0.00  0.00    +0.005 A 
ATOM     14  C   UNL     1      -2.395  -9.193  -5.940  0.00  0.00    +0.000 A 
ATOM     15  C   UNL     1      -1.893 -10.925  -7.538  0.00  0.00    +0.000 A 
ATOM     16  C   UNL     1      -1.482  -9.843  -6.763  0.00  0.00    +0.000 A 
ENDBRANCH  10  11
ENDBRANCH   1  10
TORSDOF 2
ENDMDL
MODEL 7
REMARK VINA RESULT:    -4.629      2.336      3.735
REMARK INTER + INTRA:          -5.192
REMARK INTER:                  -5.036
REMARK INTRA:                  -0.155
REMARK UNBOUND:                -0.021
REMARK  Name = 1550473
REMARK  2 active torsions:
REMARK  status: ('A' for Active; 'I' for Inactive)
REMARK    1  A    between atoms: N_1  and  C_4
REMARK    2  A    between atoms: C_4  and  C_5
REMARK                            x       y       z     vdW  Elec       q    Type
REMARK                         _______ _______ _______ _____ _____    ______ ____
ROOT
ATOM      1  N   UNL     1      -3.404 -10.712  -4.072  0.00  0.00    -0.354 N 
ATOM      2  N   UNL     1      -3.084  -8.595  -3.189  0.00  0.00    -0.372 N 
ATOM      3  N   UNL     1      -3.740  -8.795  -5.378  0.00  0.00    -0.372 N 
ATOM      4  C   UNL     1      -3.412  -9.380  -4.222  0.00  0.00    +0.166 C 
ATOM      5  H   UNL     1      -3.117 -11.094  -3.179  0.00  0.00    +0.163 HD
ATOM      6  H   UNL     1      -3.085  -7.587  -3.270  0.00  0.00    +0.159 HD
ATOM      7  H   UNL     1      -2.842  -8.978  -2.283  0.00  0.00    +0.159 HD
ATOM      8  H   UNL     1      -3.991  -9.332  -6.198  0.00  0.00    +0.159 HD
ATOM      9  H   UNL     1      -3.735  -7.788  -5.483  0.00  0.00    +0.159 HD
ENDROOT
BRANCH   1  10
ATOM     10  C   UNL     1      -3.796 -11.654  -5.119  0.00  0.00    +0.151 C 
BRANCH  10  11
ATOM     11  C   UNL     1      -2.578 -12.046  -5.908  0.00  0.00    -0.028 A 
ATOM     12  C   UNL     1      -1.428 -12.516  -5.257  0.00  0.00    +0.005 A 
ATOM     13  C   UNL     1      -2.570 -11.956  -7.309  0.00  0.00    +0.005 A 
ATOM     14  C   UNL     1      -0.307 -12.909  -5.992  0.00  0.00    +0.000 A 
ATOM     15  C   UNL     1      -1.448 -12.349  -8.039  0.00  0.00    +0.000 A 
ATOM     16  C   UNL     1      -0.318 -12.827  -7.380  0.00  0.00    +0.000 A 
ENDBRANCH  10  11
ENDBRANCH   1  10
TORSDOF 2
ENDMDL
MODEL 8
REMARK VINA RESULT:    -4.499     12.117     13.330
REMARK INTER + INTRA:          -5.045
REMARK INTER:                  -4.897
REMARK INTRA:                  -0.148
REMARK UNBOUND:                -0.021
REMARK  Name = 1550473
REMARK  2 active torsions:
REMARK  status: ('A' for Active; 'I' for Inactive)
REMARK    1  A    between atoms: N_1  and  C_4
REMARK    2  A    between atoms: C_4  and  C_5
REMARK                            x       y       z     vdW  Elec       q    Type
REMARK                         _______ _______ _______ _____ _____    ______ ____
ROOT
ATOM      1  N   UNL     1     -13.174   0.263  -5.946  0.00  0.00    -0.354 N 
ATOM      2  N   UNL     1     -12.228   0.594  -3.859  0.00  0.00    -0.372 N 
ATOM      3  N   UNL     1     -13.604  -1.214  -4.178  0.00  0.00    -0.372 N 
ATOM      4  C   UNL     1     -13.010  -0.123  -4.674  0.00  0.00    +0.166 C 
ATOM      5  H   UNL     1     -12.721   1.116  -6.253  0.00  0.00    +0.163 HD
ATOM      6  H   UNL     1     -12.082   0.326  -2.895  0.00  0.00    +0.159 HD
ATOM      7  H   UNL     1     -11.739   1.421  -4.180  0.00  0.00    +0.159 HD
ATOM      8  H   UNL     1     -14.211  -1.795  -4.740  0.00  0.00    +0.159 HD
ATOM      9  H   UNL     1     -13.480  -1.492  -3.213  0.00  0.00    +0.159 HD
ENDROOT
BRANCH   1  10
ATOM     10  C   UNL     1     -13.962  -0.478  -6.930  0.00  0.00    +0.151 C 
BRANCH  10  11
ATOM     11  C   UNL     1     -13.093  -0.796  -8.116  0.00  0.00    -0.028 A 
ATOM     12  C   UNL     1     -12.005  -1.672  -7.987  0.00  0.00    +0.005 A 
ATOM     13  C   UNL     1     -13.356  -0.229  -9.372  0.00  0.00    +0.005 A 
ATOM     14  C   UNL     1     -11.216  -1.991  -9.094  0.00  0.00    +0.000 A 
ATOM     15  C   UNL     1     -12.565  -0.550 -10.476  0.00  0.00    +0.000 A 
ATOM     16  C   UNL     1     -11.497  -1.433 -10.337  0.00  0.00    +0.000 A 
ENDBRANCH  10  11
ENDBRANCH   1  10
TORSDOF 2
ENDMDL
MODEL 9
REMARK VINA RESULT:    -4.385      3.325      4.758
REMARK INTER + INTRA:          -4.918
REMARK INTER:                  -4.746
REMARK INTRA:                  -0.172
REMARK UNBOUND:                -0.021
REMARK  Name = 1550473
REMARK  2 active torsions:
REMARK  status: ('A' for Active; 'I' for Inactive)
REMARK    1  A    between atoms: N_1  and  C_4
REMARK    2  A    between atoms: C_4  and  C_5
REMARK                            x       y       z     vdW  Elec       q    Type
REMARK                         _______ _______ _______ _____ _____    ______ ____
ROOT
ATOM      1  N   UNL     1      -4.781 -12.239  -7.625  0.00  0.00    -0.354 N 
ATOM      2  N   UNL     1      -6.380 -10.682  -7.007  0.00  0.00    -0.372 N 
ATOM      3  N   UNL     1      -5.477 -12.045  -5.396  0.00  0.00    -0.372 N 
ATOM      4  C   UNL     1      -5.535 -11.667  -6.678  0.00  0.00    +0.166 C 
ATOM      5  H   UNL     1      -4.893 -11.928  -8.583  0.00  0.00    +0.163 HD
ATOM      6  H   UNL     1      -6.959 -10.229  -6.313  0.00  0.00    +0.159 HD
ATOM      7  H   UNL     1      -6.457 -10.342  -7.958  0.00  0.00    +0.159 HD
ATOM      8  H   UNL     1      -4.865 -12.786  -5.084  0.00  0.00    +0.159 HD
ATOM      9  H   UNL     1      -6.058 -11.611  -4.689  0.00  0.00    +0.159 HD
ENDROOT
BRANCH   1  10
ATOM     10  C   UNL     1      -3.791 -13.283  -7.363  0.00  0.00    +0.151 C 
BRANCH  10  11
ATOM     11  C   UNL     1      -2.426 -12.656  -7.286  0.00  0.00    -0.028 A 
ATOM     12  C   UNL     1      -1.664 -12.465  -8.448  0.00  0.00    +0.005 A 
ATOM     13  C   UNL     1      -1.891 -12.246  -6.055  0.00  0.00    +0.005 A 
ATOM     14  C   UNL     1      -0.408 -11.856  -8.381  0.00  0.00    +0.000 A 
ATOM     15  C   UNL     1      -0.637 -11.639  -5.992  0.00  0.00    +0.000 A 
ATOM     16  C   UNL     1       0.103 -11.442  -7.156  0.00  0.00    +0.000 A 
ENDBRANCH  10  11
ENDBRANCH   1  10
TORSDOF 2
ENDMDL
