MODEL 1
REMARK VINA RESULT:    -5.291      0.000      0.000
REMARK INTER + INTRA:          -6.086
REMARK INTER:                  -5.910
REMARK INTRA:                  -0.176
REMARK UNBOUND:                -0.176
REMARK  Name = 1550473
REMARK  2 active torsions:
REMARK  status: ('A' for Active; 'I' for Inactive)
REMARK    1  A    between atoms: N_1  and  C_4
REMARK    2  A    between atoms: C_4  and  C_5
REMARK                            x       y       z     vdW  Elec       q    Type
REMARK                         _______ _______ _______ _____ _____    ______ ____
ROOT
ATOM      1  N   UNL     1      17.221  -2.505  -1.374  0.00  0.00    -0.354 N 
ATOM      2  N   UNL     1      19.256  -3.107  -2.302  0.00  0.00    -0.372 N 
ATOM      3  N   UNL     1      18.077  -1.377  -3.241  0.00  0.00    -0.372 N 
ATOM      4  C   UNL     1      18.171  -2.324  -2.302  0.00  0.00    +0.166 C 
ATOM      5  H   UNL     1      17.337  -3.260  -0.708  0.00  0.00    +0.163 HD
ATOM      6  H   UNL     1      19.990  -2.991  -2.988  0.00  0.00    +0.159 HD
ATOM      7  H   UNL     1      19.391  -3.831  -1.607  0.00  0.00    +0.159 HD
ATOM      8  H   UNL     1      17.280  -0.756  -3.299  0.00  0.00    +0.159 HD
ATOM      9  H   UNL     1      18.796  -1.253  -3.943  0.00  0.00    +0.159 HD
ENDROOT
BRANCH   1  10
ATOM     10  C   UNL     1      16.027  -1.671  -1.253  0.00  0.00    +0.151 C 
BRANCH  10  11
ATOM     11  C   UNL     1      14.881  -2.349  -1.953  0.00  0.00    -0.028 A 
ATOM     12  C   UNL     1      14.420  -3.600  -1.516  0.00  0.00    +0.005 A 
ATOM     13  C   UNL     1      14.250  -1.744  -3.050  0.00  0.00    +0.005 A 
ATOM     14  C   UNL     1      13.337  -4.216  -2.147  0.00  0.00    +0.000 A 
ATOM     15  C   UNL     1      13.169  -2.363  -3.678  0.00  0.00    +0.000 A 
ATOM     16  C   UNL     1      12.712  -3.598  -3.225  0.00  0.00    +0.000 A 
ENDBRANCH  10  11
ENDBRANCH   1  10
TORSDOF 2
ENDMDL
MODEL 2
REMARK VINA RESULT:    -4.987     31.484     32.684
REMARK INTER + INTRA:          -5.747
REMARK INTER:                  -5.607
REMARK INTRA:                  -0.140
REMARK UNBOUND:                -0.176
REMARK  Name = 1550473
REMARK  2 active torsions:
REMARK  status: ('A' for Active; 'I' for Inactive)
REMARK    1  A    between atoms: N_1  and  C_4
REMARK    2  A    between atoms: C_4  and  C_5
REMARK                            x       y       z     vdW  Elec       q    Type
REMARK                         _______ _______ _______ _____ _____    ______ ____
ROOT
ATOM      1  N   UNL     1      -9.792  14.363 -14.139  0.00  0.00    -0.354 N 
ATOM      2  N   UNL     1     -10.085  15.548 -16.107  0.00  0.00    -0.372 N 
ATOM      3  N   UNL     1     -10.356  16.637 -14.106  0.00  0.00    -0.372 N 
ATOM      4  C   UNL     1     -10.077  15.510 -14.769  0.00  0.00    +0.166 C 
ATOM      5  H   UNL     1      -9.619  13.536 -14.699  0.00  0.00    +0.163 HD
ATOM      6  H   UNL     1     -10.293  16.400 -16.610  0.00  0.00    +0.159 HD
ATOM      7  H   UNL     1      -9.866  14.731 -16.664  0.00  0.00    +0.159 HD
ATOM      8  H   UNL     1     -10.372  16.674 -13.095  0.00  0.00    +0.159 HD
ATOM      9  H   UNL     1     -10.578  17.497 -14.592  0.00  0.00    +0.159 HD
ENDROOT
BRANCH   1  10
ATOM     10  C   UNL     1      -9.704  14.228 -12.686  0.00  0.00    +0.151 C 
BRANCH  10  11
ATOM     11  C   UNL     1     -10.488  13.018 -12.256  0.00  0.00    -0.028 A 
ATOM     12  C   UNL     1     -10.055  12.237 -11.174  0.00  0.00    +0.005 A 
ATOM     13  C   UNL     1     -11.667  12.651 -12.923  0.00  0.00    +0.005 A 
ATOM     14  C   UNL     1     -10.799  11.131 -10.756  0.00  0.00    +0.000 A 
ATOM     15  C   UNL     1     -12.406  11.546 -12.503  0.00  0.00    +0.000 A 
ATOM     16  C   UNL     1     -11.973  10.787 -11.418  0.00  0.00    +0.000 A 
ENDBRANCH  10  11
ENDBRANCH   1  10
TORSDOF 2
ENDMDL
MODEL 3
REMARK VINA RESULT:    -4.961     29.731     30.753
REMARK INTER + INTRA:          -5.718
REMARK INTER:                  -5.605
REMARK INTRA:                  -0.113
REMARK UNBOUND:                -0.176
REMARK  Name = 1550473
REMARK  2 active torsions:
REMARK  status: ('A' for Active; 'I' for Inactive)
REMARK    1  A    between atoms: N_1  and  C_4
REMARK    2  A    between atoms: C_4  and  C_5
REMARK                            x       y       z     vdW  Elec       q    Type
REMARK                         _______ _______ _______ _____ _____    ______ ____
ROOT
ATOM      1  N   UNL     1     -10.262   6.072   9.650  0.00  0.00    -0.354 N 
ATOM      2  N   UNL     1      -9.438   3.974   9.118  0.00  0.00    -0.372 N 
ATOM      3  N   UNL     1     -11.417   4.129  10.270  0.00  0.00    -0.372 N 
ATOM      4  C   UNL     1     -10.380   4.738   9.684  0.00  0.00    +0.166 C 
ATOM      5  H   UNL     1      -9.437   6.471   9.217  0.00  0.00    +0.163 HD
ATOM      6  H   UNL     1      -9.502   2.964   9.125  0.00  0.00    +0.159 HD
ATOM      7  H   UNL     1      -8.638   4.376   8.646  0.00  0.00    +0.159 HD
ATOM      8  H   UNL     1     -12.158   4.649  10.720  0.00  0.00    +0.159 HD
ATOM      9  H   UNL     1     -11.493   3.120  10.298  0.00  0.00    +0.159 HD
ENDROOT
BRANCH   1  10
ATOM     10  C   UNL     1     -11.258   6.995  10.190  0.00  0.00    +0.151 C 
BRANCH  10  11
ATOM     11  C   UNL     1     -10.817   8.407   9.920  0.00  0.00    -0.028 A 
ATOM     12  C   UNL     1     -11.027   9.414  10.874  0.00  0.00    +0.005 A 
ATOM     13  C   UNL     1     -10.182   8.744   8.714  0.00  0.00    +0.005 A 
ATOM     14  C   UNL     1     -10.590  10.719  10.636  0.00  0.00    +0.000 A 
ATOM     15  C   UNL     1      -9.748  10.049   8.480  0.00  0.00    +0.000 A 
ATOM     16  C   UNL     1      -9.950  11.035   9.442  0.00  0.00    +0.000 A 
ENDBRANCH  10  11
ENDBRANCH   1  10
TORSDOF 2
ENDMDL
MODEL 4
REMARK VINA RESULT:    -4.932      1.557      1.957
REMARK INTER + INTRA:          -5.685
REMARK INTER:                  -5.548
REMARK INTRA:                  -0.137
REMARK UNBOUND:                -0.176
REMARK  Name = 1550473
REMARK  2 active torsions:
REMARK  status: ('A' for Active; 'I' for Inactive)
REMARK    1  A    between atoms: N_1  and  C_4
REMARK    2  A    between atoms: C_4  and  C_5
REMARK                            x       y       z     vdW  Elec       q    Type
REMARK                         _______ _______ _______ _____ _____    ______ ____
ROOT
ATOM      1  N   UNL     1      16.795  -0.903  -2.584  0.00  0.00    -0.354 N 
ATOM      2  N   UNL     1      18.667  -0.318  -1.352  0.00  0.00    -0.372 N 
ATOM      3  N   UNL     1      16.916   1.159  -1.477  0.00  0.00    -0.372 N 
ATOM      4  C   UNL     1      17.445  -0.022  -1.812  0.00  0.00    +0.166 C 
ATOM      5  H   UNL     1      17.264  -1.768  -2.827  0.00  0.00    +0.163 HD
ATOM      6  H   UNL     1      19.180   0.325  -0.764  0.00  0.00    +0.159 HD
ATOM      7  H   UNL     1      19.114  -1.203  -1.558  0.00  0.00    +0.159 HD
ATOM      8  H   UNL     1      16.000   1.446  -1.797  0.00  0.00    +0.159 HD
ATOM      9  H   UNL     1      17.419   1.821  -0.900  0.00  0.00    +0.159 HD
ENDROOT
BRANCH   1  10
ATOM     10  C   UNL     1      15.440  -0.700  -3.093  0.00  0.00    +0.151 C 
BRANCH  10  11
ATOM     11  C   UNL     1      14.618  -1.925  -2.804  0.00  0.00    -0.028 A 
ATOM     12  C   UNL     1      14.903  -2.727  -1.689  0.00  0.00    +0.005 A 
ATOM     13  C   UNL     1      13.548  -2.287  -3.637  0.00  0.00    +0.005 A 
ATOM     14  C   UNL     1      14.121  -3.849  -1.403  0.00  0.00    +0.000 A 
ATOM     15  C   UNL     1      12.770  -3.408  -3.349  0.00  0.00    +0.000 A 
ATOM     16  C   UNL     1      13.056  -4.187  -2.230  0.00  0.00    +0.000 A 
ENDBRANCH  10  11
ENDBRANCH   1  10
TORSDOF 2
ENDMDL
MODEL 5
REMARK VINA RESULT:    -4.767     25.620     26.933
REMARK INTER + INTRA:          -5.501
REMARK INTER:                  -5.347
REMARK INTRA:                  -0.154
REMARK UNBOUND:                -0.176
REMARK  Name = 1550473
REMARK  2 active torsions:
REMARK  status: ('A' for Active; 'I' for Inactive)
REMARK    1  A    between atoms: N_1  and  C_4
REMARK    2  A    between atoms: C_4  and  C_5
REMARK                            x       y       z     vdW  Elec       q    Type
REMARK                         _______ _______ _______ _____ _____    ______ ____
ROOT
ATOM      1  N   UNL     1      -4.148   8.606 -18.805  0.00  0.00    -0.354 N 
ATOM      2  N   UNL     1      -5.324   7.912 -16.934  0.00  0.00    -0.372 N 
ATOM      3  N   UNL     1      -4.227   6.343 -18.200  0.00  0.00    -0.372 N 
ATOM      4  C   UNL     1      -4.558   7.622 -17.993  0.00  0.00    +0.166 C 
ATOM      5  H   UNL     1      -4.458   9.551 -18.611  0.00  0.00    +0.163 HD
ATOM      6  H   UNL     1      -5.645   7.191 -16.302  0.00  0.00    +0.159 HD
ATOM      7  H   UNL     1      -5.594   8.863 -16.717  0.00  0.00    +0.159 HD
ATOM      8  H   UNL     1      -3.657   6.058 -18.985  0.00  0.00    +0.159 HD
ATOM      9  H   UNL     1      -4.549   5.606 -17.585  0.00  0.00    +0.159 HD
ENDROOT
BRANCH   1  10
ATOM     10  C   UNL     1      -3.267   8.404 -19.954  0.00  0.00    +0.151 C 
BRANCH  10  11
ATOM     11  C   UNL     1      -1.837   8.502 -19.500  0.00  0.00    -0.028 A 
ATOM     12  C   UNL     1      -0.958   7.424 -19.679  0.00  0.00    +0.005 A 
ATOM     13  C   UNL     1      -1.353   9.672 -18.896  0.00  0.00    +0.005 A 
ATOM     14  C   UNL     1       0.379   7.525 -19.285  0.00  0.00    +0.000 A 
ATOM     15  C   UNL     1      -0.019   9.769 -18.503  0.00  0.00    +0.000 A 
ATOM     16  C   UNL     1       0.847   8.697 -18.700  0.00  0.00    +0.000 A 
ENDBRANCH  10  11
ENDBRANCH   1  10
TORSDOF 2
ENDMDL
MODEL 6
REMARK VINA RESULT:    -4.757     13.542     14.942
REMARK INTER + INTRA:          -5.489
REMARK INTER:                  -5.313
REMARK INTRA:                  -0.177
REMARK UNBOUND:                -0.176
REMARK  Name = 1550473
REMARK  2 active torsions:
REMARK  status: ('A' for Active; 'I' for Inactive)
REMARK    1  A    between atoms: N_1  and  C_4
REMARK    2  A    between atoms: C_4  and  C_5
REMARK                            x       y       z     vdW  Elec       q    Type
REMARK                         _______ _______ _______ _____ _____    ______ ____
ROOT
ATOM      1  N   UNL     1       9.630 -14.951  -5.237  0.00  0.00    -0.354 N 
ATOM      2  N   UNL     1      10.941 -14.521  -7.097  0.00  0.00    -0.372 N 
ATOM      3  N   UNL     1       9.766 -12.795  -6.146  0.00  0.00    -0.372 N 
ATOM      4  C   UNL     1      10.102 -14.089  -6.147  0.00  0.00    +0.166 C 
ATOM      5  H   UNL     1       9.900 -15.925  -5.310  0.00  0.00    +0.163 HD
ATOM      6  H   UNL     1      11.316 -13.893  -7.796  0.00  0.00    +0.159 HD
ATOM      7  H   UNL     1      11.245 -15.486  -7.141  0.00  0.00    +0.159 HD
ATOM      8  H   UNL     1       9.133 -12.407  -5.459  0.00  0.00    +0.159 HD
ATOM      9  H   UNL     1      10.122 -12.154  -6.843  0.00  0.00    +0.159 HD
ENDROOT
BRANCH   1  10
ATOM     10  C   UNL     1       8.755 -14.571  -4.129  0.00  0.00    +0.151 C 
BRANCH  10  11
ATOM     11  C   UNL     1       7.362 -15.062  -4.414  0.00  0.00    -0.028 A 
ATOM     12  C   UNL     1       6.371 -14.174  -4.858  0.00  0.00    +0.005 A 
ATOM     13  C   UNL     1       7.028 -16.415  -4.247  0.00  0.00    +0.005 A 
ATOM     14  C   UNL     1       5.085 -14.635  -5.151  0.00  0.00    +0.000 A 
ATOM     15  C   UNL     1       5.743 -16.871  -4.540  0.00  0.00    +0.000 A 
ATOM     16  C   UNL     1       4.773 -15.981  -4.995  0.00  0.00    +0.000 A 
ENDBRANCH  10  11
ENDBRANCH   1  10
TORSDOF 2
ENDMDL
MODEL 7
REMARK VINA RESULT:    -4.655      8.455      9.833
REMARK INTER + INTRA:          -5.376
REMARK INTER:                  -5.249
REMARK INTRA:                  -0.126
REMARK UNBOUND:                -0.176
REMARK  Name = 1550473
REMARK  2 active torsions:
REMARK  status: ('A' for Active; 'I' for Inactive)
REMARK    1  A    between atoms: N_1  and  C_4
REMARK    2  A    between atoms: C_4  and  C_5
REMARK                            x       y       z     vdW  Elec       q    Type
REMARK                         _______ _______ _______ _____ _____    ______ ____
ROOT
ATOM      1  N   UNL     1      12.530 -11.121  -1.612  0.00  0.00    -0.354 N 
ATOM      2  N   UNL     1      12.844  -9.302  -0.212  0.00  0.00    -0.372 N 
ATOM      3  N   UNL     1      14.180  -9.519  -2.066  0.00  0.00    -0.372 N 
ATOM      4  C   UNL     1      13.185  -9.992  -1.307  0.00  0.00    +0.166 C 
ATOM      5  H   UNL     1      11.806 -11.442  -0.980  0.00  0.00    +0.163 HD
ATOM      6  H   UNL     1      13.318  -8.445   0.041  0.00  0.00    +0.159 HD
ATOM      7  H   UNL     1      12.089  -9.601   0.393  0.00  0.00    +0.159 HD
ATOM      8  H   UNL     1      14.489  -9.996  -2.902  0.00  0.00    +0.159 HD
ATOM      9  H   UNL     1      14.674  -8.670  -1.822  0.00  0.00    +0.159 HD
ENDROOT
BRANCH   1  10
ATOM     10  C   UNL     1      12.787 -11.918  -2.810  0.00  0.00    +0.151 C 
BRANCH  10  11
ATOM     11  C   UNL     1      11.521 -12.017  -3.615  0.00  0.00    -0.028 A 
ATOM     12  C   UNL     1      11.205 -13.198  -4.303  0.00  0.00    +0.005 A 
ATOM     13  C   UNL     1      10.629 -10.936  -3.688  0.00  0.00    +0.005 A 
ATOM     14  C   UNL     1      10.015 -13.301  -5.026  0.00  0.00    +0.000 A 
ATOM     15  C   UNL     1       9.441 -11.043  -4.412  0.00  0.00    +0.000 A 
ATOM     16  C   UNL     1       9.134 -12.227  -5.079  0.00  0.00    +0.000 A 
ENDBRANCH  10  11
ENDBRANCH   1  10
TORSDOF 2
ENDMDL
MODEL 8
REMARK VINA RESULT:    -4.650      2.602      4.762
REMARK INTER + INTRA:          -5.370
REMARK INTER:                  -5.257
REMARK INTRA:                  -0.112
REMARK UNBOUND:                -0.176
REMARK  Name = 1550473
REMARK  2 active torsions:
REMARK  status: ('A' for Active; 'I' for Inactive)
REMARK    1  A    between atoms: N_1  and  C_4
REMARK    2  A    between atoms: C_4  and  C_5
REMARK                            x       y       z     vdW  Elec       q    Type
REMARK                         _______ _______ _______ _____ _____    ______ ____
ROOT
ATOM      1  N   UNL     1      15.366  -2.632  -1.487  0.00  0.00    -0.354 N 
ATOM      2  N   UNL     1      14.931  -4.856  -1.010  0.00  0.00    -0.372 N 
ATOM      3  N   UNL     1      13.673  -3.798  -2.612  0.00  0.00    -0.372 N 
ATOM      4  C   UNL     1      14.657  -3.747  -1.708  0.00  0.00    +0.166 C 
ATOM      5  H   UNL     1      16.079  -2.650  -0.767  0.00  0.00    +0.163 HD
ATOM      6  H   UNL     1      14.415  -5.714  -1.158  0.00  0.00    +0.159 HD
ATOM      7  H   UNL     1      15.674  -4.884  -0.324  0.00  0.00    +0.159 HD
ATOM      8  H   UNL     1      13.413  -2.994  -3.167  0.00  0.00    +0.159 HD
ATOM      9  H   UNL     1      13.138  -4.644  -2.765  0.00  0.00    +0.159 HD
ENDROOT
BRANCH   1  10
ATOM     10  C   UNL     1      15.184  -1.387  -2.230  0.00  0.00    +0.151 C 
BRANCH  10  11
ATOM     11  C   UNL     1      16.344  -0.472  -1.948  0.00  0.00    -0.028 A 
ATOM     12  C   UNL     1      17.659  -0.960  -1.975  0.00  0.00    +0.005 A 
ATOM     13  C   UNL     1      16.136   0.885  -1.658  0.00  0.00    +0.005 A 
ATOM     14  C   UNL     1      18.738  -0.104  -1.743  0.00  0.00    +0.000 A 
ATOM     15  C   UNL     1      17.216   1.736  -1.426  0.00  0.00    +0.000 A 
ATOM     16  C   UNL     1      18.517   1.241  -1.471  0.00  0.00    +0.000 A 
ENDBRANCH  10  11
ENDBRANCH   1  10
TORSDOF 2
ENDMDL
MODEL 9
REMARK VINA RESULT:    -4.545     32.057     33.340
REMARK INTER + INTRA:          -5.253
REMARK INTER:                  -5.072
REMARK INTRA:                  -0.181
REMARK UNBOUND:                -0.176
REMARK  Name = 1550473
REMARK  2 active torsions:
REMARK  status: ('A' for Active; 'I' for Inactive)
REMARK    1  A    between atoms: N_1  and  C_4
REMARK    2  A    between atoms: C_4  and  C_5
REMARK                            x       y       z     vdW  Elec       q    Type
REMARK                         _______ _______ _______ _____ _____    ______ ____
ROOT
ATOM      1  N   UNL     1     -10.117  15.178 -15.735  0.00  0.00    -0.354 N 
ATOM      2  N   UNL     1      -8.247  16.278 -16.547  0.00  0.00    -0.372 N 
ATOM      3  N   UNL     1      -9.675  17.404 -15.148  0.00  0.00    -0.372 N 
ATOM      4  C   UNL     1      -9.360  16.282 -15.803  0.00  0.00    +0.166 C 
ATOM      5  H   UNL     1      -9.840  14.370 -16.279  0.00  0.00    +0.163 HD
ATOM      6  H   UNL     1      -7.654  17.094 -16.615  0.00  0.00    +0.159 HD
ATOM      7  H   UNL     1      -7.948  15.453 -17.054  0.00  0.00    +0.159 HD
ATOM      8  H   UNL     1     -10.505  17.474 -14.574  0.00  0.00    +0.159 HD
ATOM      9  H   UNL     1      -9.100  18.235 -15.213  0.00  0.00    +0.159 HD
ENDROOT
BRANCH   1  10
ATOM     10  C   UNL     1     -11.319  15.061 -14.911  0.00  0.00    +0.151 C 
BRANCH  10  11
ATOM     11  C   UNL     1     -10.956  14.417 -13.601  0.00  0.00    -0.028 A 
ATOM     12  C   UNL     1     -10.390  13.134 -13.572  0.00  0.00    +0.005 A 
ATOM     13  C   UNL     1     -11.170  15.086 -12.387  0.00  0.00    +0.005 A 
ATOM     14  C   UNL     1     -10.025  12.547 -12.358  0.00  0.00    +0.000 A 
ATOM     15  C   UNL     1     -10.805  14.497 -11.177  0.00  0.00    +0.000 A 
ATOM     16  C   UNL     1     -10.230  13.228 -11.163  0.00  0.00    +0.000 A 
ENDBRANCH  10  11
ENDBRANCH   1  10
TORSDOF 2
ENDMDL
