MODEL 1
REMARK VINA RESULT:    -4.933      0.000      0.000
REMARK INTER + INTRA:          -5.643
REMARK INTER:                  -5.510
REMARK INTRA:                  -0.133
REMARK UNBOUND:                -0.133
REMARK  Name = 1550473
REMARK  2 active torsions:
REMARK  status: ('A' for Active; 'I' for Inactive)
REMARK    1  A    between atoms: N_1  and  C_4
REMARK    2  A    between atoms: C_4  and  C_5
REMARK                            x       y       z     vdW  Elec       q    Type
REMARK                         _______ _______ _______ _____ _____    ______ ____
ROOT
ATOM      1  N   UNL     1      -3.207  -0.642   3.344  0.00  0.00    -0.354 N 
ATOM      2  N   UNL     1      -1.793   0.233   4.955  0.00  0.00    -0.372 N 
ATOM      3  N   UNL     1      -1.061   0.113   2.784  0.00  0.00    -0.372 N 
ATOM      4  C   UNL     1      -2.028  -0.104   3.681  0.00  0.00    +0.166 C 
ATOM      5  H   UNL     1      -3.888  -0.809   4.076  0.00  0.00    +0.163 HD
ATOM      6  H   UNL     1      -0.914   0.644   5.239  0.00  0.00    +0.159 HD
ATOM      7  H   UNL     1      -2.492   0.108   5.677  0.00  0.00    +0.159 HD
ATOM      8  H   UNL     1      -1.173  -0.125   1.807  0.00  0.00    +0.159 HD
ATOM      9  H   UNL     1      -0.170   0.513   3.051  0.00  0.00    +0.159 HD
ENDROOT
BRANCH   1  10
ATOM     10  C   UNL     1      -3.583  -0.995   1.976  0.00  0.00    +0.151 C 
BRANCH  10  11
ATOM     11  C   UNL     1      -3.953  -2.452   1.928  0.00  0.00    -0.028 A 
ATOM     12  C   UNL     1      -4.612  -2.984   0.810  0.00  0.00    +0.005 A 
ATOM     13  C   UNL     1      -3.640  -3.308   2.996  0.00  0.00    +0.005 A 
ATOM     14  C   UNL     1      -4.928  -4.343   0.753  0.00  0.00    +0.000 A 
ATOM     15  C   UNL     1      -3.959  -4.665   2.935  0.00  0.00    +0.000 A 
ATOM     16  C   UNL     1      -4.600  -5.182   1.813  0.00  0.00    +0.000 A 
ENDBRANCH  10  11
ENDBRANCH   1  10
TORSDOF 2
ENDMDL
MODEL 2
REMARK VINA RESULT:    -4.886     30.941     32.159
REMARK INTER + INTRA:          -5.591
REMARK INTER:                  -5.418
REMARK INTRA:                  -0.172
REMARK UNBOUND:                -0.133
REMARK  Name = 1550473
REMARK  2 active torsions:
REMARK  status: ('A' for Active; 'I' for Inactive)
REMARK    1  A    between atoms: N_1  and  C_4
REMARK    2  A    between atoms: C_4  and  C_5
REMARK                            x       y       z     vdW  Elec       q    Type
REMARK                         _______ _______ _______ _____ _____    ______ ____
ROOT
ATOM      1  N   UNL     1      -0.723 -19.498 -25.858  0.00  0.00    -0.354 N 
ATOM      2  N   UNL     1      -0.329 -21.654 -26.610  0.00  0.00    -0.372 N 
ATOM      3  N   UNL     1      -1.426 -21.357 -24.616  0.00  0.00    -0.372 N 
ATOM      4  C   UNL     1      -0.830 -20.823 -25.687  0.00  0.00    +0.166 C 
ATOM      5  H   UNL     1      -0.233 -19.157 -26.677  0.00  0.00    +0.163 HD
ATOM      6  H   UNL     1      -0.398 -22.657 -26.510  0.00  0.00    +0.159 HD
ATOM      7  H   UNL     1       0.119 -21.309 -27.450  0.00  0.00    +0.159 HD
ATOM      8  H   UNL     1      -1.818 -20.784 -23.881  0.00  0.00    +0.159 HD
ATOM      9  H   UNL     1      -1.494 -22.359 -24.492  0.00  0.00    +0.159 HD
ENDROOT
BRANCH   1  10
ATOM     10  C   UNL     1      -1.281 -18.507 -24.940  0.00  0.00    +0.151 C 
BRANCH  10  11
ATOM     11  C   UNL     1      -0.158 -17.843 -24.193  0.00  0.00    -0.028 A 
ATOM     12  C   UNL     1       0.400 -18.450 -23.058  0.00  0.00    +0.005 A 
ATOM     13  C   UNL     1       0.357 -16.608 -24.618  0.00  0.00    +0.005 A 
ATOM     14  C   UNL     1       1.463 -17.847 -22.381  0.00  0.00    +0.000 A 
ATOM     15  C   UNL     1       1.418 -16.009 -23.939  0.00  0.00    +0.000 A 
ATOM     16  C   UNL     1       1.972 -16.630 -22.822  0.00  0.00    +0.000 A 
ENDBRANCH  10  11
ENDBRANCH   1  10
TORSDOF 2
ENDMDL
MODEL 3
REMARK VINA RESULT:    -4.844     30.960     32.178
REMARK INTER + INTRA:          -5.544
REMARK INTER:                  -5.371
REMARK INTRA:                  -0.173
REMARK UNBOUND:                -0.133
REMARK  Name = 1550473
REMARK  2 active torsions:
REMARK  status: ('A' for Active; 'I' for Inactive)
REMARK    1  A    between atoms: N_1  and  C_4
REMARK    2  A    between atoms: C_4  and  C_5
REMARK                            x       y       z     vdW  Elec       q    Type
REMARK                         _______ _______ _______ _____ _____    ______ ____
ROOT
ATOM      1  N   UNL     1      -0.708 -19.539 -25.883  0.00  0.00    -0.354 N 
ATOM      2  N   UNL     1      -0.338 -21.698 -26.637  0.00  0.00    -0.372 N 
ATOM      3  N   UNL     1      -1.420 -21.392 -24.637  0.00  0.00    -0.372 N 
ATOM      4  C   UNL     1      -0.825 -20.863 -25.711  0.00  0.00    +0.166 C 
ATOM      5  H   UNL     1      -0.220 -19.202 -26.705  0.00  0.00    +0.163 HD
ATOM      6  H   UNL     1      -0.415 -22.701 -26.537  0.00  0.00    +0.159 HD
ATOM      7  H   UNL     1       0.109 -21.357 -27.480  0.00  0.00    +0.159 HD
ATOM      8  H   UNL     1      -1.803 -20.816 -23.899  0.00  0.00    +0.159 HD
ATOM      9  H   UNL     1      -1.496 -22.394 -24.513  0.00  0.00    +0.159 HD
ENDROOT
BRANCH   1  10
ATOM     10  C   UNL     1      -1.252 -18.544 -24.961  0.00  0.00    +0.151 C 
BRANCH  10  11
ATOM     11  C   UNL     1      -0.118 -17.877 -24.233  0.00  0.00    -0.028 A 
ATOM     12  C   UNL     1       0.384 -16.644 -24.674  0.00  0.00    +0.005 A 
ATOM     13  C   UNL     1       0.456 -18.471 -23.098  0.00  0.00    +0.005 A 
ATOM     14  C   UNL     1       1.418 -16.010 -23.980  0.00  0.00    +0.000 A 
ATOM     15  C   UNL     1       1.488 -17.835 -22.409  0.00  0.00    +0.000 A 
ATOM     16  C   UNL     1       1.967 -16.603 -22.848  0.00  0.00    +0.000 A 
ENDBRANCH  10  11
ENDBRANCH   1  10
TORSDOF 2
ENDMDL
MODEL 4
REMARK VINA RESULT:    -4.799      5.591      7.408
REMARK INTER + INTRA:          -5.494
REMARK INTER:                  -5.315
REMARK INTRA:                  -0.179
REMARK UNBOUND:                -0.133
REMARK  Name = 1550473
REMARK  2 active torsions:
REMARK  status: ('A' for Active; 'I' for Inactive)
REMARK    1  A    between atoms: N_1  and  C_4
REMARK    2  A    between atoms: C_4  and  C_5
REMARK                            x       y       z     vdW  Elec       q    Type
REMARK                         _______ _______ _______ _____ _____    ______ ____
ROOT
ATOM      1  N   UNL     1      -6.331   1.830   4.952  0.00  0.00    -0.354 N 
ATOM      2  N   UNL     1      -6.048  -0.433   4.549  0.00  0.00    -0.372 N 
ATOM      3  N   UNL     1      -4.280   0.986   4.195  0.00  0.00    -0.372 N 
ATOM      4  C   UNL     1      -5.553   0.810   4.567  0.00  0.00    +0.166 C 
ATOM      5  H   UNL     1      -7.296   1.635   5.194  0.00  0.00    +0.163 HD
ATOM      6  H   UNL     1      -5.484  -1.223   4.267  0.00  0.00    +0.159 HD
ATOM      7  H   UNL     1      -6.999  -0.631   4.835  0.00  0.00    +0.159 HD
ATOM      8  H   UNL     1      -3.848   1.900   4.180  0.00  0.00    +0.159 HD
ATOM      9  H   UNL     1      -3.703   0.209   3.897  0.00  0.00    +0.159 HD
ENDROOT
BRANCH   1  10
ATOM     10  C   UNL     1      -5.872   3.214   5.058  0.00  0.00    +0.151 C 
BRANCH  10  11
ATOM     11  C   UNL     1      -6.358   3.986   3.862  0.00  0.00    -0.028 A 
ATOM     12  C   UNL     1      -5.444   4.562   2.968  0.00  0.00    +0.005 A 
ATOM     13  C   UNL     1      -7.730   4.138   3.614  0.00  0.00    +0.005 A 
ATOM     14  C   UNL     1      -5.894   5.253   1.840  0.00  0.00    +0.000 A 
ATOM     15  C   UNL     1      -8.176   4.830   2.487  0.00  0.00    +0.000 A 
ATOM     16  C   UNL     1      -7.257   5.385   1.600  0.00  0.00    +0.000 A 
ENDBRANCH  10  11
ENDBRANCH   1  10
TORSDOF 2
ENDMDL
MODEL 5
REMARK VINA RESULT:    -4.309     14.597     16.154
REMARK INTER + INTRA:          -4.946
REMARK INTER:                  -4.771
REMARK INTRA:                  -0.174
REMARK UNBOUND:                -0.133
REMARK  Name = 1550473
REMARK  2 active torsions:
REMARK  status: ('A' for Active; 'I' for Inactive)
REMARK    1  A    between atoms: N_1  and  C_4
REMARK    2  A    between atoms: C_4  and  C_5
REMARK                            x       y       z     vdW  Elec       q    Type
REMARK                         _______ _______ _______ _____ _____    ______ ____
ROOT
ATOM      1  N   UNL     1       1.618   7.398  16.277  0.00  0.00    -0.354 N 
ATOM      2  N   UNL     1       2.480   9.314  15.302  0.00  0.00    -0.372 N 
ATOM      3  N   UNL     1       0.344   9.360  16.138  0.00  0.00    -0.372 N 
ATOM      4  C   UNL     1       1.472   8.679  15.912  0.00  0.00    +0.166 C 
ATOM      5  H   UNL     1       2.487   6.929  16.050  0.00  0.00    +0.163 HD
ATOM      6  H   UNL     1       2.400  10.281  15.018  0.00  0.00    +0.159 HD
ATOM      7  H   UNL     1       3.364   8.856  15.117  0.00  0.00    +0.159 HD
ATOM      8  H   UNL     1      -0.456   8.937  16.590  0.00  0.00    +0.159 HD
ATOM      9  H   UNL     1       0.241  10.326  15.851  0.00  0.00    +0.159 HD
ENDROOT
BRANCH   1  10
ATOM     10  C   UNL     1       0.601   6.632  16.995  0.00  0.00    +0.151 C 
BRANCH  10  11
ATOM     11  C   UNL     1      -0.044   5.660  16.046  0.00  0.00    -0.028 A 
ATOM     12  C   UNL     1       0.425   4.342  15.948  0.00  0.00    +0.005 A 
ATOM     13  C   UNL     1      -1.128   6.050  15.245  0.00  0.00    +0.005 A 
ATOM     14  C   UNL     1      -0.193   3.431  15.089  0.00  0.00    +0.000 A 
ATOM     15  C   UNL     1      -1.742   5.138  14.387  0.00  0.00    +0.000 A 
ATOM     16  C   UNL     1      -1.276   3.828  14.311  0.00  0.00    +0.000 A 
ENDBRANCH  10  11
ENDBRANCH   1  10
TORSDOF 2
ENDMDL
MODEL 6
REMARK VINA RESULT:    -4.284     22.043     23.290
REMARK INTER + INTRA:          -4.918
REMARK INTER:                  -4.801
REMARK INTRA:                  -0.117
REMARK UNBOUND:                -0.133
REMARK  Name = 1550473
REMARK  2 active torsions:
REMARK  status: ('A' for Active; 'I' for Inactive)
REMARK    1  A    between atoms: N_1  and  C_4
REMARK    2  A    between atoms: C_4  and  C_5
REMARK                            x       y       z     vdW  Elec       q    Type
REMARK                         _______ _______ _______ _____ _____    ______ ____
ROOT
ATOM      1  N   UNL     1       3.511  17.215  13.224  0.00  0.00    -0.354 N 
ATOM      2  N   UNL     1       4.857  17.242  11.340  0.00  0.00    -0.372 N 
ATOM      3  N   UNL     1       5.096  18.910  12.897  0.00  0.00    -0.372 N 
ATOM      4  C   UNL     1       4.480  17.791  12.501  0.00  0.00    +0.166 C 
ATOM      5  H   UNL     1       3.063  16.384  12.854  0.00  0.00    +0.163 HD
ATOM      6  H   UNL     1       5.588  17.653  10.774  0.00  0.00    +0.159 HD
ATOM      7  H   UNL     1       4.439  16.387  10.994  0.00  0.00    +0.159 HD
ATOM      8  H   UNL     1       4.853  19.377  13.761  0.00  0.00    +0.159 HD
ATOM      9  H   UNL     1       5.821  19.342  12.339  0.00  0.00    +0.159 HD
ENDROOT
BRANCH   1  10
ATOM     10  C   UNL     1       3.064  17.702  14.528  0.00  0.00    +0.151 C 
BRANCH  10  11
ATOM     11  C   UNL     1       2.136  16.689  15.139  0.00  0.00    -0.028 A 
ATOM     12  C   UNL     1       2.329  15.319  14.914  0.00  0.00    +0.005 A 
ATOM     13  C   UNL     1       1.063  17.094  15.949  0.00  0.00    +0.005 A 
ATOM     14  C   UNL     1       1.485  14.376  15.506  0.00  0.00    +0.000 A 
ATOM     15  C   UNL     1       0.222  16.149  16.538  0.00  0.00    +0.000 A 
ATOM     16  C   UNL     1       0.435  14.791  16.318  0.00  0.00    +0.000 A 
ENDBRANCH  10  11
ENDBRANCH   1  10
TORSDOF 2
ENDMDL
MODEL 7
REMARK VINA RESULT:    -4.271     18.147     19.885
REMARK INTER + INTRA:          -4.904
REMARK INTER:                  -4.730
REMARK INTRA:                  -0.174
REMARK UNBOUND:                -0.133
REMARK  Name = 1550473
REMARK  2 active torsions:
REMARK  status: ('A' for Active; 'I' for Inactive)
REMARK    1  A    between atoms: N_1  and  C_4
REMARK    2  A    between atoms: C_4  and  C_5
REMARK                            x       y       z     vdW  Elec       q    Type
REMARK                         _______ _______ _______ _____ _____    ______ ____
ROOT
ATOM      1  N   UNL     1       0.315  13.193  17.195  0.00  0.00    -0.354 N 
ATOM      2  N   UNL     1       2.166  13.112  18.585  0.00  0.00    -0.372 N 
ATOM      3  N   UNL     1       2.377  14.075  16.513  0.00  0.00    -0.372 N 
ATOM      4  C   UNL     1       1.609  13.462  17.420  0.00  0.00    +0.166 C 
ATOM      5  H   UNL     1      -0.205  12.699  17.911  0.00  0.00    +0.163 HD
ATOM      6  H   UNL     1       3.139  13.305  18.784  0.00  0.00    +0.159 HD
ATOM      7  H   UNL     1       1.632  12.660  19.317  0.00  0.00    +0.159 HD
ATOM      8  H   UNL     1       2.017  14.358  15.611  0.00  0.00    +0.159 HD
ATOM      9  H   UNL     1       3.355  14.266  16.689  0.00  0.00    +0.159 HD
ENDROOT
BRANCH   1  10
ATOM     10  C   UNL     1      -0.401  13.579  15.981  0.00  0.00    +0.151 C 
BRANCH  10  11
ATOM     11  C   UNL     1      -0.428  12.411  15.034  0.00  0.00    -0.028 A 
ATOM     12  C   UNL     1      -0.956  11.177  15.440  0.00  0.00    +0.005 A 
ATOM     13  C   UNL     1       0.068  12.535  13.727  0.00  0.00    +0.005 A 
ATOM     14  C   UNL     1      -1.008  10.101  14.551  0.00  0.00    +0.000 A 
ATOM     15  C   UNL     1       0.014  11.457  12.843  0.00  0.00    +0.000 A 
ATOM     16  C   UNL     1      -0.526  10.241  13.255  0.00  0.00    +0.000 A 
ENDBRANCH  10  11
ENDBRANCH   1  10
TORSDOF 2
ENDMDL
MODEL 8
REMARK VINA RESULT:    -4.187      2.011      3.041
REMARK INTER + INTRA:          -4.810
REMARK INTER:                  -4.657
REMARK INTRA:                  -0.153
REMARK UNBOUND:                -0.133
REMARK  Name = 1550473
REMARK  2 active torsions:
REMARK  status: ('A' for Active; 'I' for Inactive)
REMARK    1  A    between atoms: N_1  and  C_4
REMARK    2  A    between atoms: C_4  and  C_5
REMARK                            x       y       z     vdW  Elec       q    Type
REMARK                         _______ _______ _______ _____ _____    ______ ____
ROOT
ATOM      1  N   UNL     1      -3.684  -2.185   1.482  0.00  0.00    -0.354 N 
ATOM      2  N   UNL     1      -1.596  -1.182   1.486  0.00  0.00    -0.372 N 
ATOM      3  N   UNL     1      -2.347  -2.172  -0.443  0.00  0.00    -0.372 N 
ATOM      4  C   UNL     1      -2.556  -1.854   0.839  0.00  0.00    +0.166 C 
ATOM      5  H   UNL     1      -3.768  -1.941   2.462  0.00  0.00    +0.163 HD
ATOM      6  H   UNL     1      -0.736  -0.915   1.026  0.00  0.00    +0.159 HD
ATOM      7  H   UNL     1      -1.703  -0.899   2.453  0.00  0.00    +0.159 HD
ATOM      8  H   UNL     1      -3.029  -2.684  -0.986  0.00  0.00    +0.159 HD
ATOM      9  H   UNL     1      -1.488  -1.925  -0.917  0.00  0.00    +0.159 HD
ENDROOT
BRANCH   1  10
ATOM     10  C   UNL     1      -4.812  -2.870   0.854  0.00  0.00    +0.151 C 
BRANCH  10  11
ATOM     11  C   UNL     1      -4.739  -4.336   1.178  0.00  0.00    -0.028 A 
ATOM     12  C   UNL     1      -4.199  -4.770   2.397  0.00  0.00    +0.005 A 
ATOM     13  C   UNL     1      -5.213  -5.297   0.271  0.00  0.00    +0.005 A 
ATOM     14  C   UNL     1      -4.158  -6.131   2.712  0.00  0.00    +0.000 A 
ATOM     15  C   UNL     1      -5.170  -6.655   0.589  0.00  0.00    +0.000 A 
ATOM     16  C   UNL     1      -4.645  -7.071   1.810  0.00  0.00    +0.000 A 
ENDBRANCH  10  11
ENDBRANCH   1  10
TORSDOF 2
ENDMDL
MODEL 9
REMARK VINA RESULT:    -4.177      9.221     11.421
REMARK INTER + INTRA:          -4.799
REMARK INTER:                  -4.675
REMARK INTRA:                  -0.124
REMARK UNBOUND:                -0.133
REMARK  Name = 1550473
REMARK  2 active torsions:
REMARK  status: ('A' for Active; 'I' for Inactive)
REMARK    1  A    between atoms: N_1  and  C_4
REMARK    2  A    between atoms: C_4  and  C_5
REMARK                            x       y       z     vdW  Elec       q    Type
REMARK                         _______ _______ _______ _____ _____    ______ ____
ROOT
ATOM      1  N   UNL     1      -6.953   4.873   6.582  0.00  0.00    -0.354 N 
ATOM      2  N   UNL     1      -5.672   2.952   6.401  0.00  0.00    -0.372 N 
ATOM      3  N   UNL     1      -7.836   2.919   5.638  0.00  0.00    -0.372 N 
ATOM      4  C   UNL     1      -6.831   3.593   6.207  0.00  0.00    +0.166 C 
ATOM      5  H   UNL     1      -6.164   5.319   7.036  0.00  0.00    +0.163 HD
ATOM      6  H   UNL     1      -5.550   1.987   6.125  0.00  0.00    +0.159 HD
ATOM      7  H   UNL     1      -4.871   3.414   6.813  0.00  0.00    +0.159 HD
ATOM      8  H   UNL     1      -8.738   3.343   5.470  0.00  0.00    +0.159 HD
ATOM      9  H   UNL     1      -7.737   1.949   5.366  0.00  0.00    +0.159 HD
ENDROOT
BRANCH   1  10
ATOM     10  C   UNL     1      -8.155   5.678   6.367  0.00  0.00    +0.151 C 
BRANCH  10  11
ATOM     11  C   UNL     1      -7.844   7.117   6.675  0.00  0.00    -0.028 A 
ATOM     12  C   UNL     1      -6.525   7.523   6.921  0.00  0.00    +0.005 A 
ATOM     13  C   UNL     1      -8.864   8.079   6.715  0.00  0.00    +0.005 A 
ATOM     14  C   UNL     1      -6.232   8.865   7.178  0.00  0.00    +0.000 A 
ATOM     15  C   UNL     1      -8.568   9.418   6.972  0.00  0.00    +0.000 A 
ATOM     16  C   UNL     1      -7.251   9.811   7.201  0.00  0.00    +0.000 A 
ENDBRANCH  10  11
ENDBRANCH   1  10
TORSDOF 2
ENDMDL
